315
Graphene
C 34.31525 34.03776 0.01295
C 11.05718 27.64319 0.03338
C 11.10276 26.27928 -0.0258
C 9.87491 25.52606 -0.0331
C 9.9512 24.17161 -0.00316
C 9.78874 19.88748 0.02188
C 10.84882 19.25289 -0.01979
C 10.93469 17.8228 0.02691
C 9.87138 17.06734 -0.01581
C 9.91717 15.52875 0.01452
C 11.17244 14.75477 0.04892
C 10.99548 13.38643 -0.00111
C 9.87992 12.61377 -0.03557
C 9.90517 11.04036 0.03754
C 10.86408 9.81446 0.01739
C 9.89022 8.69209 0.00755
C 9.83428 28.41027 -0.00491
C 9.90464 29.84143 -0.00109
C 11.15949 30.54251 0.03698
C 11.02053 32.00161 -0.02213
C 8.71534 14.79334 0.02098
C 8.61525 13.39491 0.01848
C 7.34169 12.79591 -0.00619
C 7.37456 11.31635 -0.02162
C 8.58437 10.54346 0.00889
C 8.52874 9.11591 -0.00481
C 7.32346 8.53003 0.00979
C 9.84669 7.19574 -0.0054
C 7.37911 7.12584 0.01443
C 8.6084 5.04067 -0.02815
C 7.37824 4.31481 -0.04147
C 7.37995 2.84184 -0.05302
C 8.62132 2.12501 0.00213
C 8.58813 0.68106 -0.00066
C 7.34924 34.01277 -0.00289
C 9.73328 32.66127 0.00028
C 8.5961 6.4757 0.03505
C 11.01987 6.50379 0.00667
C 11.07183 5.14656 0.00143
C 9.8184 4.31094 -0.017
C 13.46235 0.62564 -0.01527
C 12.23969 34.05175 0.01087
C 14.68071 32.68735 0.00199
C 16.01944 32.00898 0.01511
C 15.94569 30.56789 -0.00478
C 14.77589 29.77741 -0.01662
C 14.77509 28.35428 -0.01185
C 13.52452 2.08117 0.00096
C 15.99682 27.68706 0.01126
C 14.74445 25.57671 -0.00381
C 14.73358 24.23688 0.03046
C 15.90567 23.50328 0.0296
C 16.29874 22.10968 0.03374
C 14.65066 20.0571 -0.02845
C 15.89362 19.79272 -0.03213
C 14.68922 4.19897 0.02239
C 16.07568 26.30272 0.01852
C 7.51364 15.56362 -0.03113
C 12.30889 2.86073 0.01277
C 13.55435 4.87559 -0.01721
C 9.83467 2.84606 0.00364
C 11.08878 2.19367 -0.00831
C 11.0703 0.77528 -0.02957
C 9.85948 34.06494 -0.04422
C 12.25519 32.62074 0.00654
C 13.48563 32.02034 -0.00703
C 13.51825 30.58198 -0.04076
C 12.31985 4.26451 -0.02422
C 12.33242 29.76141 -0.00652
C 13.52405 27.66347 -0.00865
C 13.49249 26.24536 0.00675
C 12.36648 25.49452 -0.00311
C 13.63148 19.09741 0.00742
C 13.11776 17.82684 -0.01594
C 12.07499 17.00988 0.0106
C 12.29683 15.68946 -0.01154
C 12.28212 28.31442 0.0058
C 14.65354 2.80254 0.01153
C 7.41838 16.95922 0.0351
C 8.56181 19.11478 0.00798
C 3.61112 9.24193 -0.00033
C 2.36165 8.47074 0.03589
C 2.38945 7.07621 -0.02759
C 3.70904 6.41684 0.0402
C 3.646 5.01028 0.00572
C 2.37756 4.25347 0.03592
C 2.40486 2.85331 0.00406
C 3.63991 2.12596 0.00943
C 3.69966 0.67093 0.02841
C 2.39436 34.07913 -0.01111
C 4.8792 32.58199 -0.01275
C 6.08793 31.92079 0.00985
C 6.14703 30.56148 -0.02245
C 4.94312 29.90417 -0.00428
C 4.94589 28.43689 0.03101
C 3.58635 10.67273 -0.01062
C 2.32321 11.42231 0.01364
C 2.2987 12.85607 -0.00719
C 3.57229 13.50056 0.01641
C 3.66191 30.51123 0.00488
C 2.48926 29.78116 -0.01004
C 2.44463 28.35296 -0.02896
C 3.6607 27.73391 -0.00131
C 3.67467 26.28178 -0.01118
C 2.48946 25.53776 -0.014
C 2.458 24.16627 0.02147
C 6.16331 27.62263 -0.01536
C 3.76856 23.44762 0.00373
C 2.44356 21.32631 0.00438
C 2.57603 19.90562 0.01291
C 3.75777 19.1657 0.00093
C 3.68345 17.76486 0.00057
C 2.44662 17.09295 -0.01634
C 2.37809 15.69031 -0.00334
C 3.5812 14.89657 0.02339
C 3.70404 21.95028 -0.00191
C 6.23712 26.22184 -0.02689
C 5.01022 25.51632 -0.01046
C 4.97676 24.15451 -0.00891
C 6.08513 2.09456 0.00244
C 6.15518 0.6827 -0.01717
C 4.9182 0.00059 0.05265
C 7.35717 32.66492 -0.01952
C 8.5333 31.93747 -0.02813
C 8.61533 30.51342 0.00374
C 7.35915 29.83679 0.00052
C 4.79772 2.83583 0.02299
C 7.32291 28.36343 -0.03682
C 8.60966 26.24247 0.02058
C 7.46866 25.46093 -0.01957
C 7.47552 24.0706 -0.0108
C 8.83295 23.28235 -0.00368
C 8.79466 21.81843 -0.02696
C 7.49273 21.34169 -0.00114
C 7.41613 19.85438 0.00228
C 8.54437 27.66644 0.01965
C 8.66813 17.7055 0.00422
C 4.89041 4.31976 0.03542
C 6.2131 6.40012 0.01945
C 6.24932 23.47283 0.02819
C 6.16544 22.04607 0.00165
C 4.98363 21.28248 -0.02971
C 5.02308 19.91087 0.02894
C 6.25212 19.16934 -0.01789
C 6.1805 17.66264 0.00444
C 4.90139 17.01289 -0.00925
C 6.19666 4.99842 0.01416
C 4.82355 15.64968 0.01877
C 6.04556 13.53077 -0.02162
C 4.8586 12.78915 0.00415
C 4.83482 11.38228 -0.0014
C 6.05583 10.62482 0.02162
C 6.04509 9.23363 0.0076
C 4.86521 8.49771 0.01241
C 4.94469 7.09814 -0.01454
C 6.1036 14.98093 0.01363
C 3.67459 31.96554 0.01745
C 15.998 2.11903 0.02734
C 14.70092 34.07856 0.01515
C 33.09978 31.91027 0.03794
C 33.06861 30.52845 0.01927
C 31.92949 29.76267 0.01574
C 31.92503 28.36158 -0.02383
C 33.19329 27.72411 -0.01429
C 33.16402 26.36181 -0.0136
C 31.98133 25.60702 0.00594
C 32.10487 24.17387 -0.02474
C 33.28256 23.4974 0.00369
C 33.14113 22.08103 0.00455
C 31.89014 21.58385 -0.00644
C 33.24964 19.21773 -0.01839
C 33.08997 13.67983 0.00137
C 33.15731 10.70787 0.00199
C 33.15957 9.35541 0.04381
C 31.91961 32.6601 -0.01779
C 29.45781 34.00513 0.00682
C 30.60878 0.66241 0.00026
C 30.67434 2.077 0.0544
C 30.62836 31.94544 -0.02155
C 30.63081 30.55447 -0.00944
C 29.39469 29.82591 -0.03735
C 29.49386 28.44535 -0.00971
C 30.70598 27.75119 0.01518
C 30.70412 26.36352 0.01908
C 29.53243 25.66866 0.07705
C 31.93672 8.567 0.02806
C 29.6779 24.1984 0.0103
C 30.72387 9.11917 0.00716
C 29.50701 8.49513 0.00307
C 29.42402 7.13103 0.00346
C 30.65521 6.42827 0.01713
C 30.67675 4.98593 -0.01694
C 29.43878 4.27564 0.01428
C 29.46497 2.84045 -0.02142
C 30.77875 23.51972 0.02108
C 31.90092 7.18814 0.01504
C 33.08287 6.42669 -0.00069
C 33.1375 5.00111 0.04926
C 34.41679 17.13105 0.00648
C 34.34776 15.83633 0.02114
C 1.18716 15.08663 -0.02957
C 1.10716 13.59342 0.00343
C 34.22119 12.91202 -0.02656
C 34.30059 11.44984 -0.02442
C 1.08818 10.73899 -0.00027
C 1.23838 17.91875 0.01223
C 1.08629 9.30809 -0.00583
C 34.35801 7.10506 -0.02849
C 1.17086 6.39848 0.02931
C 1.16665 5.00982 0.00628
C 34.41847 4.30316 -0.0345
C 34.34499 2.87581 -0.00931
C 1.10428 2.10458 -0.00939
C 1.06578 0.70799 -0.00468
C 34.36349 8.56504 -0.02302
C 29.38918 32.5613 -0.01461
C 1.30861 19.30504 -0.01678
C 34.40273 21.36664 -0.02213
C 31.91533 4.28474 -0.03838
C 31.87804 2.77691 0.00349
C 33.12606 2.18832 -0.00323
C 33.14998 0.74714 -0.00841
C 31.91192 34.04319 0.0001
C 34.33839 32.6023 -0.02927
C 1.23805 31.94317 -0.01404
C 34.3366 19.96871 0.01951
C 1.18356 30.54623 0.01027
C 34.42969 28.39462 -0.01037
C 1.26289 27.73138 -0.00439
C 1.27218 26.30591 -0.00598
C 34.39749 25.65775 -0.05239
C 0.00122 24.24379 0.03076
C 1.15942 23.50915 0.00723
C 1.22384 22.06115 0.02712
C 34.37021 29.89497 0.01831
C 15.9534 0.69611 -0.0055
C 26.96819 34.01925 -0.01303
C 28.21849 2.09633 0.01705
C 19.59564 29.79609 -0.009
C 19.69211 28.3902 -0.01199
C 20.92131 27.59249 -0.00229
C 20.89311 26.23676 -0.00938
C 19.6885 25.58519 -0.0264
C 19.65122 24.14224 -0.01154
C 20.89599 23.56388 0.00684
C 19.71085 2.9234 -0.01052
C 20.80134 2.19579 -0.01679
C 20.84966 0.81227 0.00367
C 19.59783 0.14978 0.04306
C 22.07628 32.71346 0.00996
C 23.28859 31.9202 0.00195
C 23.29305 30.46536 -0.00802
C 22.08879 29.81598 -0.00218
C 20.84724 30.51764 -0.00285
C 20.83517 31.95252 0.01423
C 19.6193 32.73723 0.02555
C 17.15429 0.11964 0.03102
C 17.23376 32.76389 -0.00225
C 18.40417 31.96914 0.00071
C 18.32418 30.56936 -0.01107
C 17.08331 29.87076 -0.01586
C 17.19913 28.43541 -0.01971
C 18.44388 27.70407 -0.02118
C 18.4476 26.27625 0.00733
C 22.04919 28.42863 -0.01654
C 17.22017 25.64791 -0.00178
C 18.33073 23.48662 -0.0276
C 18.32938 22.11271 0.03005
C 17.33014 21.24718 -0.04078
C 17.30387 19.58347 0.02117
C 17.06241 2.91397 0.02737
C 18.34568 2.27829 -0.00498
C 18.35062 0.84329 0.00135
C 17.12489 24.2601 0.00768
C 23.32983 27.74762 -0.00037
C 23.37711 26.22476 -0.0032
C 22.1533 25.55631 0.00622
C 25.78661 2.01857 0.01177
C 25.68754 0.69352 0.04266
C 24.48396 34.07598 0.01324
C 26.8976 32.63613 0.0014
C 28.10663 31.94514 0.00924
C 28.10913 30.56103 0.02326
C 26.98405 29.7613 0.00261
C 24.57569 2.7817 -0.00416
C 26.94471 28.25983 0.03265
C 28.23671 26.24556 -0.01854
C 27.14427 25.46525 -0.01415
C 26.77025 7.12958 -0.03039
C 28.09991 6.48883 0.01836
C 28.20518 4.95098 0.03531
C 27.0427 4.14602 -0.00669
C 26.96134 2.70357 0.0101
C 28.19834 27.73968 -0.02049
C 28.17846 0.62435 -0.0405
C 24.5906 4.18142 0.01699
C 25.70356 6.21973 0.01259
C 22.11025 24.2585 -0.02815
C 23.36235 4.99224 -0.00942
C 22.34879 4.28231 0.00487
C 22.07745 2.84897 0.00826
C 23.32467 2.11514 -0.00294
C 23.26671 0.73418 0.00152
C 22.02565 0.07232 0.01257
C 25.78804 4.75777 0.01799
C 24.50799 32.66168 0.02316
C 25.72632 30.47002 0.00194
C 24.53704 29.75119 -0.00621
C 24.57343 28.31148 0.02611
C 25.75503 27.50924 0.02198
C 25.83667 25.98315 0.01094
C 24.57738 25.45228 0.00235
C 24.54235 6.88855 0.01495
C 25.6636 31.92352 0.04185
C 2.45396 32.65951 0.03693
