381
Graphene
C 34.36257 0.08059 0.01295
C 16.04578 6.2828 -0.01454
C 15.70602 4.97428 0.01945
C 14.40925 4.29032 0.01416
C 14.75317 2.85431 0.03542
C 16.0148 2.19741 0.02299
C 16.01734 0.75986 0.00244
C 14.7446 0.05901 -0.01717
C 17.21822 32.65509 0.05265
C 18.41716 31.92813 -0.01952
C 18.4698 30.47834 -0.02813
C 17.25157 29.78984 0.00374
C 17.27194 28.32683 0.00052
C 18.50108 27.62237 -0.03682
C 18.50121 26.13624 0.01965
C 17.22193 25.43564 0.02058
C 17.2087 24.08999 -0.01957
C 18.42322 23.36605 -0.0108
C 18.38788 21.95601 -0.00368
C 17.15579 21.22124 -0.02696
C 14.3761 17.35158 0.01241
C 15.79662 17.74381 0.0076
C 15.93787 19.17828 0.02162
C 14.68716 19.95601 -0.0014
C 12.26318 21.25111 -0.01275
C 12.3787 19.76092 0.00985
C 13.579 19.03647 -0.02245
C 12.78178 4.31246 -0.00428
C 12.40082 2.91365 0.03101
C 13.5429 2.17026 -0.01536
C 13.52691 0.79088 -0.02689
C 12.29616 0.05085 -0.01046
C 14.80369 32.70303 -0.00891
C 17.13945 19.86646 -0.00114
C 15.99413 31.91106 0.02819
C 14.80179 29.86176 -0.02971
C 14.83756 28.42204 0.02894
C 16.04042 27.68912 -0.01789
C 16.05118 26.23063 0.00444
C 14.81955 25.56941 -0.00925
C 14.76969 24.17625 0.01877
C 16.01281 23.44753 0.01363
C 15.90491 22.05312 -0.02162
C 14.69862 21.3544 0.00415
C 16.0075 30.53064 0.00165
C 18.38358 19.12177 0.00228
C 18.37625 17.71029 0.00798
C 17.04465 17.14477 0.00422
C 20.86885 23.32553 -0.0331
C 20.91856 21.94993 -0.00316
C 19.69197 21.23218 0.02188
C 19.6494 19.82927 -0.01979
C 20.86712 19.15546 0.02691
C 20.86116 17.7762 -0.01581
C 19.62583 17.09863 0.01452
C 19.68678 15.64414 0.04892
C 20.92024 14.94692 -0.00111
C 19.67894 24.00384 -0.0258
C 21.00276 13.45757 -0.03557
C 19.74788 11.36504 0.01739
C 20.90276 10.63983 0.00755
C 20.92037 9.20806 -0.0054
C 19.62131 8.57846 0.00667
C 19.61612 7.08035 0.00143
C 20.86738 6.31817 -0.017
C 20.81097 4.91905 0.00364
C 19.56413 4.19641 -0.00831
C 19.57946 2.81254 -0.02957
C 19.81143 12.8243 0.03754
C 13.46541 22.03273 -0.01111
C 19.68159 25.43564 0.03338
C 20.94995 27.54691 -0.00109
C 17.33026 15.72332 0.0351
C 18.44753 14.97111 -0.03113
C 18.50148 13.50508 0.02098
C 17.38351 12.51361 0.01848
C 18.44804 10.81524 -0.00619
C 18.40101 9.41745 -0.02162
C 17.20784 8.61247 0.00889
C 17.1911 7.16703 -0.00481
C 18.36928 6.40184 0.00979
C 20.86398 26.19616 -0.00491
C 18.34873 5.00117 0.01443
C 17.13483 2.88884 -0.02815
C 18.41728 2.1395 -0.04147
C 18.39274 0.70662 -0.05302
C 17.18312 34.07949 0.00213
C 19.66126 32.6243 -0.00066
C 20.86753 31.88347 -0.00289
C 20.95089 30.4433 0.00028
C 19.72368 29.68218 -0.02213
C 19.71129 28.25463 0.03698
C 17.04621 4.30033 0.03505
C 13.48925 23.47054 0.02841
C 12.26086 24.16275 0.00943
C 12.30304 25.5876 0.00406
C 3.69056 0.75543 -0.00725
C 2.41757 0.07195 -0.05697
C 4.85717 32.77279 0.01087
C 6.08756 32.03905 -0.01343
C 6.06885 30.61348 0.00988
C 4.84751 29.90905 0.0276
C 4.87124 28.4477 0.01305
C 6.1299 27.73948 -0.00077
C 6.15702 26.33662 0.03368
C 3.66316 2.23082 0.02322
C 4.89493 25.57659 -0.02929
C 6.1158 23.46796 -0.03337
C 6.08468 22.01338 0.01227
C 4.93997 21.32992 0.00873
C 4.92893 19.83752 -0.00049
C 6.16154 19.23341 0.00848
C 5.96603 17.82524 -0.01303
C 4.9447 17.20768 -0.01378
C 6.06241 4.98451 0.02635
C 4.79563 4.34517 0.0127
C 4.86677 24.18722 -0.00966
C 4.96003 2.92387 0.01396
C 2.38203 2.79523 -0.00094
C 3.50041 4.90028 -0.03113
C 3.62507 30.55851 0.02379
C 2.41436 29.86958 0.00907
C 2.38631 28.41005 0.00643
C 3.62524 27.72128 -0.01509
C 3.58964 26.29421 0.03267
C 2.44746 25.55369 0.02374
C 2.4346 24.14579 0.00402
C 3.65827 23.48714 0.0073
C 3.64813 22.04185 0.0174
C 2.36547 4.20298 -0.02566
C 2.46214 21.32828 0.03828
C 3.63538 19.20269 -0.00279
C 3.64038 17.75691 0.01996
C 2.43596 17.00797 -0.03996
C 2.58168 15.64547 0.01465
C 2.43921 12.76853 -0.00074
C 2.25524 11.54177 -0.00518
C 2.18816 8.39433 0.0086
C 2.5971 7.16651 -0.00643
C 3.61253 6.29368 0.017
C 2.47912 19.87284 0.01226
C 20.82445 2.10094 -0.04422
C 6.26247 2.28746 0.01849
C 4.86605 0.07891 -0.00562
C 11.06649 27.78645 0.02147
C 11.08075 26.29638 0.00373
C 9.78399 25.60485 -0.00191
C 9.86261 24.1701 0.00438
C 11.01138 23.47145 0.01291
C 11.0452 21.96441 0.00093
C 9.70558 21.16342 0.00057
C 9.80503 19.63577 -0.01634
C 11.10154 19.31942 -0.00334
C 9.84453 28.55377 -0.014
C 9.91025 2.85176 0.02339
C 11.08606 0.77259 -0.00719
C 9.83083 0.10713 0.01364
C 12.28454 32.67366 -0.01062
C 13.5379 31.95662 -0.00033
C 13.6036 30.57022 0.03589
C 12.3505 29.90438 -0.02759
C 12.34071 28.52125 0.0402
C 13.56985 27.70667 0.00572
C 13.57923 26.30411 0.03592
C 11.17583 2.23504 0.01641
C 6.17921 0.83007 -0.01142
C 9.78524 29.9212 -0.01118
C 11.06182 31.98983 -0.02896
C 7.34086 32.74114 -0.00494
C 8.57445 32.08177 0.00054
C 8.51702 30.63758 0.03007
C 7.32618 29.86258 -0.00095
C 7.37405 28.45249 0.01572
C 8.61761 27.78599 -0.04848
C 8.64059 26.37093 -0.00892
C 7.38708 25.65251 -0.01362
C 7.4301 24.24895 -0.0008
C 11.04998 30.58145 -0.00131
C 8.6265 23.42543 0.0288
C 7.27498 21.32246 0.00895
C 7.32749 19.93861 0.00685
C 8.49905 19.12947 0.02888
C 7.09143 4.39716 -0.00482
C 7.47407 2.97732 -0.01384
C 8.69929 2.30996 0.03693
C 8.63241 0.8901 0.01745
C 7.39945 0.17127 0.00488
C 9.81111 32.69535 -0.01004
C 8.50335 22.02899 0.00393
C 3.64775 32.02109 0.01402
C 20.86116 0.68936 0.00654
C 22.08574 32.58266 -0.04076
C 29.42874 2.88551 0.02108
C 30.67293 2.18525 0.00716
C 30.7331 0.74799 0.00307
C 29.54947 0.02641 0.00346
C 31.96978 32.7203 0.01713
C 33.20208 31.96625 -0.01694
C 33.19829 30.50647 0.01428
C 31.95946 29.80209 -0.02142
C 31.98525 28.38748 0.0544
C 33.19775 27.68293 0.00026
C 33.20109 26.25265 0.00682
C 31.95849 25.53019 -0.01779
C 31.89169 24.15882 0.03794
C 33.13916 23.45404 0.01927
C 33.10619 22.04818 0.01574
C 31.9562 21.30965 -0.02383
C 31.9781 19.89958 -0.01429
C 33.17834 19.15055 -0.0136
C 33.22241 17.75853 0.00594
C 29.38732 4.2479 0.0103
C 30.60921 4.97773 0.07705
C 30.64399 6.39699 0.01908
C 29.44721 7.09371 0.01518
C 30.77856 32.00822 0.00924
C 30.76669 30.59749 0.02326
C 29.49759 29.87262 0.00261
C 29.50198 28.43709 0.03265
C 30.73724 27.6754 -0.02049
C 30.70739 26.3567 -0.01854
C 29.41054 25.6104 -0.01415
C 29.43018 24.15649 -0.03039
C 30.68903 23.42436 0.01836
C 31.97816 17.08627 -0.02474
C 30.67521 22.0332 0.03531
C 29.51125 19.95684 0.0101
C 30.7478 19.17682 0.01705
C 30.7708 17.76821 -0.0405
C 29.49916 17.02578 -0.01303
C 29.51983 15.60047 -0.01461
C 30.76607 14.82522 -0.02155
C 30.68899 13.28133 -0.00944
C 29.35467 12.47679 -0.03735
C 29.69625 8.56308 -0.00971
C 29.52867 21.32819 -0.00669
C 32.04521 15.616 0.00369
C 33.26393 14.93855 0.00455
C 33.24507 13.54721 -0.00644
C 34.34449 21.32338 -0.02213
C 34.41765 19.8734 0.01951
C 1.21496 19.18007 -0.01678
C 1.304 17.76218 0.01223
C 0.06424 17.04687 0.00648
C 0.05331 15.69429 0.02114
C 1.3067 15.03749 -0.02957
C 1.2936 13.62898 0.00343
C 0.04919 12.80558 -0.02656
C 1.22699 22.03091 0.02712
C 0.00343 11.41125 -0.02442
C 1.18299 9.23912 -0.00583
C 34.34668 8.57449 -0.02302
C 34.36794 7.13173 -0.02849
C 1.18741 6.37969 0.02931
C 1.21095 4.96681 0.00628
C 34.38404 4.31492 -0.0345
C 34.38039 2.90346 -0.00931
C 1.16869 2.20201 -0.00939
C 1.21298 0.72295 -0.00468
C 1.21609 10.63608 -0.00027
C 29.51678 32.67696 0.0014
C 1.22296 23.46628 0.00723
C 0.01629 25.5504 -0.05239
C 31.98565 12.76974 -0.01839
C 32.07057 11.35806 0.00137
C 33.22537 10.66036 0.00199
C 33.04089 9.27718 0.04381
C 31.75763 8.54816 0.02806
C 31.8757 7.139 0.01504
C 33.12647 6.39416 -0.00069
C 33.09544 4.99502 0.04926
C 31.83211 4.28715 -0.03838
C 34.3587 24.12514 0.03076
C 31.89786 2.90684 0.00349
C 33.10961 0.69188 -0.00841
C 31.93631 0.05121 0.0001
C 34.37287 32.72633 -0.02927
C 1.16966 32.02373 -0.01404
C 1.19121 30.51557 0.01027
C 34.3947 29.79274 0.01831
C 34.42559 28.41229 -0.01037
C 1.19942 27.66681 -0.00439
C 1.20982 26.27971 -0.00598
C 33.12632 2.16636 -0.00323
C 26.97026 34.03356 0.01324
C 28.22675 0.65967 0.04266
C 28.21859 2.1565 0.01177
C 23.34057 6.35351 0.0296
C 23.26201 4.89607 0.03374
C 22.06595 4.21004 -0.02845
C 22.05709 2.76774 -0.03213
C 23.27527 2.10946 0.02239
C 23.33748 0.61289 0.01153
C 22.04967 33.96781 0.02734
C 24.55392 32.56054 -0.0055
C 25.79356 31.86202 0.01515
C 22.10216 7.03381 0.03046
C 25.86416 30.46818 -0.00225
C 24.58145 28.3086 -0.01107
C 25.77034 27.60089 -0.01586
C 25.79039 26.21269 -0.01971
C 24.57379 25.47852 -0.02118
C 24.5674 24.07992 0.00733
C 25.80885 23.43328 -0.00178
C 25.77098 22.02189 0.00768
C 24.61175 21.26304 -0.0276
C 24.60413 19.86201 0.03005
C 24.5593 29.80717 0.00071
C 25.84893 19.12732 -0.04078
C 22.15064 8.45045 -0.00381
C 23.43907 10.59727 0.01126
C 23.32451 31.90273 -0.00652
C 23.33868 30.44635 0.0058
C 22.0995 29.72916 -0.00865
C 22.15013 28.30412 0.00675
C 23.30395 27.57491 -0.00311
C 23.35668 26.14841 0.00742
C 22.11862 25.43246 -0.01594
C 22.08454 24.04885 0.0106
C 23.27692 23.37261 -0.01154
C 23.34619 9.15499 0.01852
C 23.3416 21.90296 -0.01721
C 22.06196 19.82782 0.01277
C 23.32869 19.18443 0.00096
C 23.31752 17.79823 -0.01527
C 22.12386 17.07453 0.01087
C 22.0923 15.63269 0.00199
C 23.33769 14.89956 0.01511
C 23.39812 13.41568 -0.00478
C 22.17103 12.72809 -0.01662
C 22.14171 11.34984 -0.01185
C 22.10464 21.2273 -0.02422
C 19.64707 33.99768 -0.00703
C 25.82117 17.77284 0.02117
C 24.6919 15.64136 -0.00498
C 28.19842 23.43612 -0.02815
C 28.26615 22.03274 -0.00942
C 27.02729 21.29962 0.00487
C 27.07531 19.90078 0.00826
C 28.31228 19.20981 -0.00294
C 28.26525 17.69312 0.00152
C 27.04115 17.07201 0.01257
C 27.10513 15.64362 0.02316
C 28.303 14.86928 0.04185
C 26.97842 24.17291 0.00622
C 28.26008 13.47485 0.00194
C 27.16799 11.41923 0.02611
C 28.50659 11.00749 0.02198
C 28.64447 9.50311 0.01094
C 27.17635 8.65371 0.00235
C 27.05969 7.1392 0.01495
C 28.23835 6.38534 0.01259
C 28.21701 4.94321 0.01799
C 26.98114 4.24181 0.01699
C 27.00633 2.82599 -0.00416
C 27.06738 12.78812 -0.00621
C 24.63047 17.07748 0.02737
C 27.01291 25.5845 -0.0032
C 28.27932 27.66689 -0.01654
C 25.94171 14.9293 0.00135
C 25.89621 13.47954 0.03102
C 24.65432 12.71153 0.02555
C 24.6931 11.3103 0.01423
C 25.97104 10.64073 -0.00285
C 25.85539 9.21676 -0.009
C 24.60399 8.42447 -0.01199
C 24.5445 7.03033 -0.00229
C 25.81742 6.3649 -0.00938
C 28.14095 26.23528 -0.00037
C 25.71306 4.89361 -0.0264
C 24.48862 2.78433 0.00684
C 25.77052 2.07749 -0.01052
C 25.75393 0.66365 -0.01679
C 24.49548 34.00404 0.00367
C 27.05424 32.60057 0.04306
C 28.31484 31.92547 0.00996
C 28.29833 30.5137 0.00195
C 27.09402 29.79969 -0.00802
C 27.08125 28.38475 -0.00218
C 24.49163 4.24855 -0.01154
C 2.43175 32.7145 -0.003
