429
Graphene
C 0.00841 33.97758 0.01295
C 13.53403 23.42992 0.03589
C 13.53408 22.08213 -0.02759
C 12.32508 21.36494 0.0402
C 12.31556 19.87729 0.00572
C 13.4871 19.21745 0.03592
C 13.44184 17.77422 0.00406
C 12.21603 16.96517 0.00943
C 12.24216 15.5737 0.02841
C 13.43795 14.75827 -0.01111
C 13.59088 13.41175 -0.01275
C 12.27466 24.16707 -0.00033
C 12.33852 12.76858 0.00985
C 13.54125 10.67642 -0.00428
C 13.7503 9.28572 0.03101
C 12.44753 8.54485 -0.01536
C 12.31827 7.09473 -0.02689
C 13.51524 6.3301 -0.01046
C 13.44925 4.94198 -0.00891
C 12.2697 4.22072 0.02819
C 12.2707 2.79263 0.00165
C 13.54485 2.16018 -0.02971
C 13.58517 0.68151 0.02894
C 12.27189 11.3872 -0.02245
C 12.19365 25.62631 -0.01062
C 13.56226 26.35263 0.01364
C 13.46163 27.78552 -0.00719
C 11.07812 17.71035 0.00685
C 9.8239 17.04608 0.02888
C 9.8348 15.64754 -0.00482
C 11.07676 14.95539 -0.01384
C 11.0077 13.52719 0.03693
C 9.76467 12.86069 0.01745
C 9.85918 11.33268 0.00488
C 11.10137 10.67754 -0.01004
C 11.21109 9.17182 -0.02896
C 9.91099 8.57452 -0.00131
C 9.80179 7.16397 -0.01118
C 11.06648 6.44574 -0.014
C 10.94256 4.99107 0.02147
C 9.75846 4.33034 0.00373
C 9.78594 2.8554 -0.00191
C 10.95661 2.13552 0.00438
C 10.97909 0.72586 0.01291
C 9.76982 0.02027 0.00093
C 12.29695 32.74601 0.00057
C 13.49955 31.9222 -0.01634
C 13.46753 30.5733 -0.00334
C 12.19972 29.93801 0.02339
C 12.20894 28.50076 0.01641
C 12.26256 0.02619 -0.01789
C 14.72288 32.70169 0.00444
C 15.99425 31.98493 -0.00925
C 15.97813 30.60101 0.01877
C 17.17936 29.85757 0.00228
C 17.15099 28.39842 0.00798
C 18.42804 27.70215 0.00422
C 18.38905 26.16161 0.0351
C 17.14366 25.56266 -0.03113
C 17.12223 24.14087 0.02098
C 18.3738 23.38058 0.01848
C 18.33735 21.96124 -0.00619
C 17.13246 21.2774 -0.02162
C 17.12487 19.82508 0.00889
C 18.34617 19.07122 -0.00481
C 18.34786 17.68173 0.00979
C 17.09996 16.94469 0.01443
C 17.10699 15.49351 0.03505
C 18.37657 14.99725 -0.02815
C 17.25636 7.14409 -0.04147
C 18.4281 6.48766 -0.05302
C 18.43426 5.07355 0.00213
C 17.21749 4.34392 -0.00066
C 17.21574 2.95461 -0.00289
C 18.37253 2.16631 0.00028
C 18.43094 0.70135 -0.02213
C 17.19088 34.07534 0.03698
C 18.37486 30.56433 -0.00114
C 11.07792 19.13876 0.00895
C 18.41853 31.99127 -0.02696
C 14.83205 0.01706 -0.0108
C 14.74564 29.84107 0.01363
C 14.69171 28.4316 -0.02162
C 15.88771 27.73674 0.00415
C 15.96197 26.36244 -0.0014
C 14.75411 25.6017 0.02162
C 14.73903 24.18564 0.0076
C 15.99485 23.40784 0.01241
C 15.96571 22.0145 -0.01454
C 14.78101 21.2659 0.01945
C 14.642 19.87533 0.01416
C 15.90889 19.108 0.03542
C 15.88831 17.66585 0.02299
C 14.66404 17.03512 0.00244
C 14.68312 15.62404 -0.01717
C 15.78707 14.95012 0.05265
C 14.7988 8.39268 -0.01952
C 14.79607 7.04872 -0.02813
C 16.04633 6.33392 0.00374
C 15.95946 4.97064 0.00052
C 14.74161 4.20216 -0.03682
C 14.76569 2.85846 0.01965
C 15.9739 2.18313 0.02058
C 15.99014 0.7312 -0.01957
C 17.22656 32.7096 -0.00368
C 9.88389 19.967 0.00393
C 9.81218 21.35638 0.0288
C 11.07074 22.04204 -0.0008
C 3.67499 2.14125 0.02728
C 3.65664 0.71417 -0.00039
C 2.43023 0.01474 0.0064
C 4.85866 32.72381 0.00211
C 6.0989 32.01918 -0.00449
C 6.10479 30.62188 -0.01979
C 4.88363 29.88853 0.02784
C 4.94001 28.45964 -0.01977
C 6.10316 27.72567 -0.00561
C 6.15241 26.27343 0.00208
C 4.95368 25.59655 0.01707
C 4.95858 24.13502 0.02769
C 6.14486 23.38297 -0.03291
C 6.17958 22.03463 -0.04999
C 4.96493 21.32336 0.04505
C 4.90245 19.89102 0.03284
C 6.14029 19.20806 -0.04307
C 6.14284 17.75035 0.03189
C 4.87847 17.03142 0.00031
C 4.8864 15.64241 -0.003
C 6.0155 14.8795 0.01402
C 6.05954 13.5322 0.02379
C 4.7946 12.77757 0.00907
C 2.41919 2.89261 0.00245
C 4.85688 11.3922 0.00643
C 2.39927 4.25628 0.00081
C 3.64057 6.44271 -0.01386
C 3.69163 30.50406 0.00267
C 2.40918 29.7783 0.00787
C 2.52955 28.36335 0.02426
C 3.71377 27.68346 0.01218
C 3.61849 26.32514 -0.01471
C 2.44914 25.58689 -0.02827
C 2.4407 24.10045 0.01078
C 3.67396 23.43832 -0.00112
C 3.73196 22.00764 0.03345
C 2.45106 21.25501 0.00748
C 2.43976 19.87573 0.00662
C 3.63962 19.20985 -0.0154
C 3.71796 17.83624 -0.01299
C 2.41285 17.0389 -0.00407
C 2.31477 15.65414 0.01138
C 3.52841 14.98296 0.03278
C 3.55919 13.44894 -0.00177
C 2.39246 12.74407 0.04421
C 2.42567 11.38741 0.00088
C 3.60197 10.69923 0.00828
C 3.63113 9.26113 -0.02375
C 2.42079 8.53985 0.00558
C 2.39619 7.13465 -0.0059
C 3.63355 5.04239 -0.02805
C 19.62064 32.63947 -0.00109
C 6.10265 10.74979 -0.01509
C 4.84154 8.6256 0.02374
C 7.37762 12.8465 -0.02929
C 7.3604 11.44765 -0.00966
C 8.67878 10.70664 -0.03337
C 8.62994 9.36459 0.01227
C 7.36367 8.61143 0.00873
C 7.43461 7.21896 -0.00049
C 8.538 6.40218 0.00848
C 8.55727 5.00167 -0.01303
C 7.38908 4.34933 -0.01378
C 7.28042 2.92475 0.02635
C 8.54873 2.18971 0.0127
C 8.51312 0.73032 0.01396
C 7.36523 0.02172 0.01849
C 9.8085 32.69196 -0.01142
C 11.06975 32.01457 -0.00562
C 11.00397 30.59658 -0.00494
C 9.73108 29.90012 0.00054
C 9.7648 28.55341 0.03007
C 11.04106 27.76582 -0.00095
C 11.06889 26.35636 0.01572
C 9.84811 25.63102 -0.04848
C 9.85834 24.20325 -0.00892
C 11.08703 23.45176 -0.01362
C 8.57995 13.50632 0.03368
C 6.09326 9.34443 0.03267
C 8.56768 14.98901 -0.00077
C 7.35085 17.0965 0.0276
C 4.85769 7.16091 0.00402
C 6.1069 6.51327 0.0073
C 6.09106 5.11365 0.0174
C 4.87257 4.30958 0.03828
C 4.90768 2.91028 0.01226
C 6.14747 2.14816 -0.00279
C 6.15063 0.78014 0.01996
C 4.92904 0.00489 -0.03996
C 7.33977 32.7216 0.01465
C 8.55615 32.00597 -0.00074
C 8.56014 30.57327 -0.00518
C 7.32805 29.90741 0.0086
C 7.25971 28.43577 -0.00643
C 8.56816 27.77618 0.017
C 8.60422 26.31084 -0.03113
C 7.35446 25.61859 -0.02566
C 7.4201 24.17505 -0.00094
C 8.64856 23.53623 0.02322
C 8.59934 22.1264 -0.00725
C 7.41456 21.32759 -0.05697
C 7.42817 19.89717 0.01087
C 8.70094 19.17976 -0.01343
C 8.56185 17.75136 0.00988
C 7.36788 15.67273 0.01305
C 3.6762 31.88239 0.01913
C 20.85181 31.97857 -0.00491
C 19.62834 29.80968 -0.0258
C 29.45639 12.79042 -0.01461
C 29.50359 11.36342 -0.02155
C 30.72769 10.6141 -0.00944
C 30.79152 9.09536 -0.03735
C 29.47062 8.52026 -0.00971
C 29.50347 6.99374 0.01518
C 30.69881 6.30296 0.01908
C 30.67481 4.92881 0.07705
C 29.46688 4.16047 0.0103
C 29.48995 2.75168 0.02108
C 30.65014 13.51002 -0.01303
C 30.70473 1.95871 0.00716
C 29.4602 33.84823 0.00346
C 31.96517 32.57574 0.01713
C 33.25377 31.85604 -0.01694
C 33.12905 30.42632 0.01428
C 31.91173 29.79668 -0.02142
C 31.83194 28.25928 0.0544
C 33.15589 27.71766 0.00026
C 33.24163 26.24793 0.00682
C 31.94433 25.57879 -0.01779
C 31.922 24.1294 0.03794
C 30.69157 0.60716 0.00307
C 30.63839 14.89849 -0.0405
C 29.42741 15.61866 0.01705
C 29.4922 17.03721 0.0101
C 27.03437 11.34904 0.02198
C 28.26267 10.59706 0.01094
C 28.26437 9.21408 0.00235
C 27.04852 8.51602 0.01495
C 27.04694 7.06828 0.01259
C 28.2735 6.29906 0.01799
C 28.20788 4.82875 0.01699
C 26.98502 4.22684 -0.00416
C 27.00695 2.7485 0.01177
C 28.26806 2.06593 0.04266
C 28.22303 0.62321 0.01324
C 27.01179 34.04993 0.0014
C 29.45798 32.36283 0.00924
C 30.8081 31.68111 0.02326
C 30.86295 26.4387 0.00261
C 29.51125 25.86118 0.03265
C 29.53943 24.28371 -0.02049
C 30.68578 23.51271 -0.01854
C 30.73359 22.04598 -0.01415
C 29.44542 21.34967 -0.03039
C 29.48725 19.90309 0.01836
C 30.73381 19.238 0.03531
C 30.67085 17.83802 -0.00669
C 33.17882 23.45706 0.01927
C 33.21047 22.00076 0.01574
C 31.99437 21.30396 -0.02383
C 32.03536 19.95748 -0.01429
C 0.01644 24.10269 0.03076
C 1.23298 23.40462 0.00723
C 1.24566 21.95749 0.02712
C 34.37877 21.30416 -0.02213
C 0.02159 19.92195 0.01951
C 1.2082 19.19511 -0.01678
C 1.21389 17.79605 0.01223
C 34.32734 17.04544 0.00648
C 34.34312 15.63404 0.02114
C 1.06621 14.86145 -0.02957
C 1.08978 13.44562 0.00343
C 34.29727 12.6989 -0.02656
C 34.34337 11.30578 -0.02442
C 1.15495 10.61887 -0.00027
C 1.16623 9.15906 -0.00583
C 34.37598 8.44426 -0.02302
C 34.37136 6.9924 -0.02849
C 1.18194 6.39546 0.02931
C 1.22787 4.98283 0.00628
C 34.37459 4.24712 -0.0345
C 34.35367 2.85393 -0.00931
C 1.22652 2.11096 -0.00939
C 1.24696 0.6586 -0.00468
C 0.03007 25.54773 -0.05239
C 27.06631 12.74951 0.02611
C 1.22806 26.2408 -0.00598
C 0.02099 28.3737 -0.01037
C 33.22381 19.16819 -0.0136
C 33.12243 17.76702 0.00594
C 31.93919 17.02941 -0.02474
C 31.90446 15.63961 0.00369
C 33.09755 14.96225 0.00455
C 33.08491 13.52493 -0.00644
C 31.93087 12.74534 -0.01839
C 31.90539 11.31811 0.00137
C 33.16272 10.56392 0.00199
C 33.16485 9.1489 0.04381
C 31.90618 8.42414 0.02806
C 31.93195 6.98549 0.01504
C 33.21016 6.31588 -0.00069
C 33.16007 4.89161 0.04926
C 31.95443 4.19332 -0.03838
C 31.9107 2.7126 0.00349
C 33.14497 2.11508 -0.00323
C 33.17962 0.62808 -0.00841
C 31.95764 33.93381 0.0001
C 34.40917 32.51034 -0.02927
C 1.27346 31.93996 -0.01404
C 1.21045 30.4409 0.01027
C 34.41947 29.74816 0.01831
C 1.29355 27.6544 -0.00439
C 28.2088 13.52225 -0.00621
C 28.18802 14.92024 0.00194
C 27.01225 15.66223 0.04185
C 23.32596 31.92142 0.00675
C 23.38948 30.48667 -0.00311
C 22.11248 29.82149 0.00742
C 22.16065 28.38663 -0.01594
C 23.40545 27.68516 0.0106
C 23.34893 26.28876 -0.01154
C 22.13925 25.56481 -0.01721
C 22.13304 24.05218 -0.02422
C 23.33551 23.43381 0.01277
C 23.36372 22.03194 0.00096
C 22.12826 21.34324 -0.01527
C 22.06597 19.88095 0.01087
C 23.30762 19.21202 0.00199
C 23.24787 17.76861 0.01511
C 22.06091 17.00864 -0.00478
C 22.07827 15.57641 -0.01662
C 23.2961 14.98417 -0.01185
C 23.39389 13.47515 0.01126
C 22.18308 12.85758 0.01852
C 22.29788 11.39665 -0.00381
C 23.5419 10.64367 0.03046
C 23.38067 9.21376 0.0296
C 22.16095 8.57467 0.03374
C 22.03675 32.60564 -0.00865
C 22.13 7.14613 -0.02845
C 19.62477 0.03137 0.0058
C 20.82861 2.09857 -0.04076
C 19.64932 28.39583 -0.0331
C 20.83389 27.60876 -0.00316
C 20.89147 26.21015 0.02188
C 19.65072 25.5266 -0.01979
C 19.58 24.11905 0.02691
C 20.87786 23.44389 -0.01581
C 20.87008 22.00251 0.01452
C 19.67577 21.27765 0.04892
C 19.5674 19.83102 -0.00111
C 20.85441 19.16606 -0.03557
C 20.8589 17.7978 0.03754
C 19.6663 17.03483 0.01739
C 19.6991 15.58191 0.00755
C 20.86323 14.83839 -0.0054
C 20.91601 13.35316 0.00667
C 21.05801 10.76722 0.00143
C 20.83651 9.34611 -0.017
C 19.69495 8.48364 0.00364
C 19.69375 7.18766 -0.00831
C 20.80528 6.42876 -0.02957
C 20.92227 4.9974 -0.04422
C 19.64888 4.39282 0.00654
C 19.60635 2.91764 -0.00703
C 20.85534 0.74188 -0.00652
C 20.86951 30.54657 0.03338
C 23.34179 6.42275 -0.03213
C 22.15993 4.2564 0.01153
C 24.68177 8.49839 -0.0264
C 24.61302 6.98964 -0.01154
C 25.87894 6.35888 0.00684
C 25.82223 4.89275 -0.01052
C 24.56445 4.20717 -0.01679
C 24.57527 2.79837 0.00367
C 25.80204 2.11778 0.04306
C 25.74498 0.68738 0.00996
C 24.5546 34.07744 0.00195
C 27.07289 32.54551 -0.00802
C 28.14125 31.66262 -0.00218
C 27.23995 30.11212 -0.01654
C 27.26849 28.44663 -0.00037
C 28.19365 26.46353 -0.0032
C 27.08305 25.57415 0.00622
C 27.07227 24.18409 -0.02815
C 28.34216 23.56521 -0.00942
C 28.25082 22.10378 0.00487
C 27.0762 21.32668 0.00826
C 26.98721 19.9032 -0.00294
C 28.2725 19.16511 0.00152
C 28.29784 17.74854 0.01257
C 27.00538 17.06983 0.02316
C 25.8441 9.22393 -0.00938
C 23.34701 4.92736 0.02239
C 25.85874 10.67542 -0.00229
C 24.65427 12.78883 -0.009
C 22.05687 2.80028 0.02734
C 23.33085 2.06847 -0.0055
C 23.30963 0.67435 0.01515
C 22.09854 34.06332 -0.00225
C 24.52424 32.57473 0.00071
C 25.72612 31.93318 -0.01107
C 25.88115 30.54491 -0.01586
C 24.65713 29.85879 -0.01971
C 24.58817 28.39202 -0.02118
C 25.94134 27.83127 0.00733
C 25.8145 26.34647 -0.00178
C 24.5652 25.58799 0.00768
C 24.60658 24.19921 -0.0276
C 25.85226 23.42166 0.03005
C 25.80523 22.04116 -0.04078
C 24.5923 21.33267 0.02117
C 24.55661 19.93293 0.02737
C 25.76165 19.19072 -0.00498
C 25.78993 17.7903 0.00135
C 24.51153 17.07167 0.03102
C 24.58093 15.67719 0.02555
C 25.82081 14.92887 0.01423
C 25.84823 13.55105 -0.00285
C 24.6367 11.39068 -0.01199
C 2.45995 32.62916 -0.03672
