349
Graphene
C 34.34044 34.07814 0.01295
C 9.96789 15.60248 0.00422
C 11.23743 14.87011 0.0351
C 11.05758 13.44686 -0.03113
C 9.8725 12.74401 0.02098
C 9.96956 11.34343 0.01848
C 11.0683 10.36284 -0.00619
C 11.0572 9.08713 -0.02162
C 9.78295 8.43658 0.00889
C 9.87904 7.03971 -0.00481
C 11.19419 6.40452 0.00979
C 11.08413 4.89147 0.01443
C 9.78347 4.27892 0.03505
C 9.84243 2.82809 -0.02815
C 11.06375 2.15926 -0.04147
C 11.02324 0.7904 -0.05302
C 9.80348 0.07957 0.00213
C 12.25558 32.68601 -0.00066
C 9.86325 17.04192 0.00798
C 11.09082 17.74017 0.00228
C 11.07513 19.20941 -0.00114
C 9.75059 19.88516 -0.02696
C 8.56729 5.04151 -0.01454
C 7.39437 4.29571 0.01945
C 7.38824 2.89682 0.01416
C 8.62335 2.15057 0.03542
C 8.54617 0.73577 0.02299
C 7.32363 0.09623 0.00244
C 9.80425 32.73539 -0.01717
C 10.99603 32.00704 0.05265
C 13.50311 31.98499 -0.00289
C 10.99287 30.6481 -0.01952
C 9.80421 28.43719 0.00374
C 11.09291 27.69944 0.00052
C 11.03648 26.2153 -0.03682
C 9.79039 25.62751 0.01965
C 9.79367 24.25045 0.02058
C 11.04561 23.41729 -0.01957
C 11.0403 21.97467 -0.0108
C 9.78074 21.23423 -0.00368
C 9.80438 29.89132 -0.02813
C 13.49377 30.60189 0.00028
C 12.22815 29.91342 -0.02213
C 12.23424 28.42884 0.03698
C 14.75626 29.83762 -0.00831
C 14.75723 28.42949 -0.02957
C 15.96784 27.67658 -0.04422
C 15.88183 26.29102 0.00654
C 14.70204 25.63266 -0.00703
C 14.68363 24.11816 -0.04076
C 15.88269 23.42112 -0.00652
C 15.9816 22.04115 0.0058
C 15.97686 30.51332 0.00364
C 14.68803 21.27107 -0.00865
C 16.03517 19.25339 -0.00311
C 16.10658 17.79077 0.00742
C 14.84465 17.2614 -0.01594
C 14.98901 4.36316 0.0106
C 14.68766 2.86165 -0.01154
C 15.90369 2.05729 -0.01721
C 15.98926 0.64872 -0.02422
C 14.80171 34.02479 0.01277
C 14.73429 19.84976 0.00675
C 8.62266 6.37751 0.01241
C 15.94836 31.93987 -0.017
C 12.29221 0.07416 0.00667
C 13.47672 27.76812 -0.00109
C 13.43226 26.26797 -0.00491
C 12.29221 25.51091 0.03338
C 12.22924 24.11235 -0.0258
C 13.48898 23.40492 -0.0331
C 13.50162 21.91847 -0.00316
C 12.26494 21.27471 0.02188
C 12.27951 19.89399 -0.01979
C 14.72761 32.68033 0.00143
C 13.5556 19.11082 0.02691
C 12.29945 17.0551 0.01452
C 12.48115 15.61793 0.04892
C 12.37344 7.01104 -0.00111
C 13.68421 5.04414 -0.03557
C 12.39979 4.24564 0.03754
C 12.3184 2.79984 0.01739
C 13.52406 2.09953 0.00755
C 13.56562 0.68346 -0.0054
C 13.57384 17.75194 -0.01581
C 7.36398 7.11294 0.0076
C 7.40716 8.48837 0.02162
C 8.6418 9.27581 -0.0014
C 2.43094 7.15386 -0.00892
C 3.68021 6.42429 -0.01362
C 3.71199 4.9737 -0.0008
C 2.4099 4.38992 0.0288
C 2.45174 2.89786 0.00393
C 3.67407 2.1387 0.00895
C 3.61106 0.74198 0.00685
C 2.38085 0.06432 0.02888
C 2.49665 8.56099 -0.04848
C 4.86837 32.71013 -0.00482
C 6.10598 30.61616 0.03693
C 4.89191 29.92473 0.01745
C 4.87292 28.3991 0.00488
C 6.08691 27.74647 -0.01004
C 6.1005 26.27402 -0.02896
C 4.85596 25.59654 -0.00131
C 4.84901 24.20589 -0.01118
C 6.10058 23.40778 -0.014
C 6.12101 32.06448 -0.01384
C 6.08913 22.02778 0.02147
C 3.69446 9.26091 0.01572
C 2.50103 11.39681 0.03007
C 3.5886 30.56362 0.03368
C 2.29883 29.86249 -0.02929
C 2.3575 28.34895 -0.00966
C 3.63118 27.73243 -0.03337
C 3.58413 26.34149 0.01227
C 2.31504 25.5187 0.00873
C 2.33612 24.15671 -0.00049
C 3.61927 23.55691 0.00848
C 3.72105 10.69965 -0.00095
C 3.6435 22.139 -0.01303
C 2.39727 19.89246 0.02635
C 3.59308 19.14506 0.0127
C 3.58737 17.68844 0.01396
C 2.29671 16.99649 0.01849
C 2.41018 15.57403 -0.01142
C 3.73541 14.92692 -0.00562
C 3.74253 13.52365 -0.00494
C 2.47921 12.77708 0.00054
C 2.4584 21.22287 -0.01378
C 17.2058 32.65442 0.00096
C 4.87232 21.31396 0.00373
C 6.05013 19.21076 0.00438
C 7.27087 28.52144 -0.02245
C 8.52794 27.78153 -0.00428
C 8.53716 26.30848 0.03101
C 7.33286 25.58187 -0.01536
C 7.34022 24.11336 -0.02689
C 8.57206 23.43542 -0.01046
C 8.54981 22.03658 -0.00891
C 7.34038 21.38856 0.02819
C 7.34505 29.91326 0.00985
C 7.36782 19.9268 0.00165
C 8.58666 17.76897 0.02894
C 7.33173 17.03183 -0.01789
C 7.35497 15.5957 0.00444
C 8.70912 14.91109 -0.00925
C 8.66072 13.51084 0.01877
C 7.43605 12.78896 0.01363
C 7.45359 11.29747 -0.02162
C 8.71515 10.6306 0.00415
C 8.54274 19.18326 -0.02971
C 4.82175 19.82757 -0.00191
C 8.55044 30.55329 -0.01275
C 7.33466 32.72588 0.02841
C 6.12175 17.77074 0.01291
C 4.82399 17.01329 0.00093
C 4.91051 15.62509 0.00057
C 6.11532 14.9122 -0.01634
C 6.18864 13.5315 -0.00334
C 4.92916 12.74994 0.02339
C 5.02357 11.34743 0.01641
C 6.23276 10.6374 -0.00719
C 8.57325 32.07743 -0.01111
C 6.22447 9.25643 0.01364
C 4.95314 7.13107 -0.00033
C 6.15681 6.31378 0.03589
C 6.17615 4.92278 -0.02759
C 4.92064 4.24524 0.0402
C 4.92244 2.85367 0.00572
C 6.18406 2.16218 0.03592
C 6.12266 0.75134 0.00406
C 4.8337 0.09084 0.00943
C 4.89292 8.5534 -0.01062
C 3.68826 31.96882 -0.00077
C 18.51534 31.92875 -0.01527
C 17.16174 29.80892 0.00199
C 30.65897 0.70373 0.01428
C 29.38311 0.04875 -0.02142
C 31.94863 32.70595 0.0544
C 33.08965 31.92616 0.00026
C 33.00798 30.46501 0.00682
C 31.79182 29.73931 -0.01779
C 31.97204 28.27817 0.03794
C 33.08995 27.76802 0.01927
C 33.35058 22.3303 0.01574
C 32.03841 21.56173 -0.02383
C 32.00249 20.06673 -0.01429
C 33.10461 19.23184 -0.0136
C 33.13666 17.76272 0.00594
C 31.92843 16.98059 -0.02474
C 31.99562 15.56837 0.00369
C 33.21479 14.82172 0.00455
C 33.23097 13.42543 -0.00644
C 30.71911 2.15738 -0.01694
C 29.51651 2.85818 0.01713
C 29.52614 4.2768 0.00346
C 30.75308 5.00409 0.00307
C 29.47892 32.6663 0.01836
C 30.78742 32.02647 0.03531
C 30.69665 30.63452 -0.00669
C 30.82885 22.15154 0.0101
C 29.46559 19.9258 0.01705
C 30.75288 19.25009 -0.0405
C 30.71169 17.80588 -0.01303
C 29.47586 17.10289 -0.01461
C 31.99364 12.77445 -0.01839
C 29.48968 15.63358 -0.02155
C 30.72071 13.44884 -0.03735
C 29.51942 12.74812 -0.00971
C 29.51906 11.28185 0.01518
C 30.81071 10.51847 0.01908
C 30.86949 9.11392 0.07705
C 29.59005 8.54396 0.0103
C 29.53107 7.11714 0.02108
C 30.77294 6.42905 0.00716
C 30.72174 14.92454 -0.00944
C 32.01113 11.36423 0.00137
C 33.25248 10.60307 0.00199
C 33.31477 9.18114 0.04381
C 1.12652 19.19547 -0.01678
C 1.06268 17.79258 0.01223
C 34.33135 17.04039 0.00648
C 0.00236 15.57382 0.02114
C 1.18285 14.8937 -0.02957
C 1.25384 13.46811 0.00343
C 0.02289 12.73166 -0.02656
C 0.00447 11.29867 -0.02442
C 34.33973 19.90163 0.01951
C 1.22246 10.62977 -0.00027
C 0.09153 8.49442 -0.02302
C 0.0379 7.0434 -0.02849
C 1.26093 6.43407 0.02931
C 1.21493 5.03577 0.00628
C 34.39665 4.33615 -0.0345
C 34.40286 2.87069 -0.00931
C 1.17168 2.1192 -0.00939
C 1.12957 0.69327 -0.00468
C 1.26726 9.2497 -0.00583
C 26.98316 0.10309 -0.03039
C 34.34615 21.33229 -0.02213
C 1.17334 23.31732 0.00723
C 32.09584 8.4885 0.02806
C 32.0218 7.07957 0.01504
C 33.20084 6.39747 -0.00069
C 33.17486 5.01815 0.04926
C 31.94752 4.28026 -0.03838
C 31.95058 2.86844 0.00349
C 33.14817 2.20429 -0.00323
C 33.15669 0.77597 -0.00841
C 1.25886 21.86437 0.02712
C 31.88885 0.00183 0.0001
C 1.15788 31.94765 -0.01404
C 1.10033 30.56745 0.01027
C 34.32615 29.85782 0.01831
C 34.34589 28.38068 -0.01037
C 1.12928 27.69817 -0.00439
C 1.01029 26.15479 -0.00598
C 34.20088 25.38907 -0.05239
C 34.27188 23.90293 0.03076
C 34.35523 32.64444 -0.02927
C 28.24504 0.80786 -0.01415
C 28.24833 2.16471 -0.01854
C 27.04835 2.90874 -0.02049
C 19.59254 19.89099 -0.02118
C 20.82079 19.03585 0.00733
C 20.82572 17.65914 -0.00178
C 19.48094 17.10252 0.00768
C 20.80298 4.86433 -0.0276
C 19.65942 4.2762 0.03005
C 19.63819 2.85373 -0.04078
C 20.82917 2.12073 0.02117
C 19.56415 21.19365 -0.01971
C 20.8969 0.76244 0.02737
C 22.04547 32.75097 0.00135
C 23.42693 32.14011 0.03102
C 22.09402 19.73377 0.02555
C 23.25713 19.13338 0.01423
C 23.35129 17.74175 -0.00285
C 22.13778 17.00442 -0.009
C 22.41611 15.63139 -0.01199
C 23.4272 15.00163 -0.00229
C 19.64324 0.06384 -0.00498
C 23.26809 6.36504 -0.00938
C 19.49152 28.4248 -0.01586
C 21.07164 30.48669 0.00071
C 17.20463 28.29604 0.01511
C 18.46594 27.53267 -0.00478
C 18.35476 26.08469 -0.01662
C 17.09867 25.54316 -0.01185
C 17.09332 24.11212 0.01126
C 18.34678 23.54579 0.01852
C 18.547 22.17505 -0.00381
C 17.30659 21.41682 0.03046
C 19.80002 29.78256 -0.01107
C 17.21955 20.00056 0.0296
C 18.45254 17.76644 -0.02845
C 16.61035 4.32195 -0.03213
C 17.0317 2.91893 0.02239
C 18.29683 2.15724 0.01153
C 18.40678 0.79382 0.02734
C 17.15759 34.05499 -0.0055
C 19.62097 32.70161 0.01515
C 20.85408 31.88025 -0.00225
C 18.41908 19.17387 0.03374
C 18.53862 30.48635 0.01087
C 23.37038 5.04423 -0.0264
C 22.06802 2.78525 0.00684
C 24.53056 0.02032 -0.00621
C 27.03023 32.70676 0.02611
C 28.202 32.01716 0.02198
C 28.37717 19.22133 0.01094
C 28.26036 17.79474 0.00235
C 27.03249 17.10605 0.01495
C 27.00699 15.71083 0.01259
C 28.30165 14.92005 0.01799
C 25.73936 0.79507 0.00194
C 28.31396 13.48573 0.01699
C 27.0513 11.43037 0.01177
C 28.2141 10.67014 0.04266
C 28.32203 9.23229 0.01324
C 27.10535 8.52783 0.0014
C 26.9886 7.15138 0.00924
C 28.24305 6.44782 0.02326
C 28.33851 5.01102 0.00261
C 27.02105 4.26571 0.03265
C 27.07187 12.85022 -0.00416
C 22.10067 4.16175 -0.01154
C 25.8233 2.1744 0.04185
C 24.50917 4.27769 0.01257
C 23.33388 2.07217 -0.01052
C 23.3206 0.62055 -0.01679
C 22.11038 0.02335 0.00367
C 24.54171 32.73371 0.04306
C 25.66162 19.19904 0.00996
C 25.71216 17.83719 0.00195
C 24.58034 17.03164 -0.00802
C 24.66637 15.63514 -0.00218
C 24.56114 2.86294 0.02316
C 25.87754 14.97761 -0.01654
C 24.66152 12.75613 -0.0032
C 24.79724 11.52711 0.00622
C 25.8595 10.63765 -0.02815
C 25.88421 9.18291 -0.00942
C 24.7188 8.4717 0.00487
C 24.43883 7.11263 0.00826
C 25.72246 6.45296 -0.00294
C 25.75237 5.00439 0.00152
C 26.01047 13.61092 -0.00037
C 2.43156 32.66041 0.01305
