356
Graphene
C 0.0235 0.04628 0.01295
C 10.96438 4.96759 -0.0108
C 9.86302 4.28376 -0.00368
C 9.84808 2.9351 -0.02696
C 11.0546 2.12388 -0.00114
C 11.03635 0.65088 0.00228
C 9.82233 0.0034 0.00798
C 12.30793 32.72398 0.00422
C 13.5481 31.97194 0.0351
C 11.05243 6.44322 -0.01957
C 13.57006 30.56785 -0.03113
C 12.22907 28.45452 0.01848
C 12.43392 19.68362 -0.00619
C 13.49256 17.66161 -0.02162
C 12.24549 16.99355 0.00889
C 12.27293 15.54009 -0.00481
C 13.49413 14.90595 0.00979
C 13.46125 13.40856 0.01443
C 12.29613 12.78261 0.03505
C 12.34161 29.84257 0.02098
C 12.32668 11.40217 -0.02815
C 9.78065 7.07051 0.02058
C 11.02487 9.2551 -0.03682
C 9.78242 28.46109 -0.02162
C 11.13068 27.715 0.00415
C 10.96597 26.35742 -0.0014
C 9.74095 25.67954 0.02162
C 9.82167 24.29224 0.0076
C 11.23434 23.66252 0.01241
C 10.96177 22.39933 -0.01454
C 10.07824 21.44331 0.01945
C 9.68514 8.52605 0.01965
C 9.90189 19.9094 0.01416
C 11.0892 17.77678 0.02299
C 9.86552 17.12278 0.00244
C 9.9315 15.68445 -0.01717
C 11.03785 14.85481 0.05265
C 11.07227 13.49023 -0.01952
C 9.78342 12.79938 -0.02813
C 9.83142 11.40844 0.00374
C 11.04216 10.66324 0.00052
C 11.25455 19.19524 0.03542
C 13.50716 10.57424 -0.04147
C 13.47442 9.21036 -0.05302
C 12.2362 8.50137 0.00213
C 14.73475 2.76106 0.00667
C 15.92609 2.12595 0.00143
C 15.99624 0.73075 -0.017
C 14.72747 0.05548 0.00364
C 17.26473 32.67839 -0.00831
C 17.09408 15.5903 -0.02957
C 18.42138 14.99877 -0.04422
C 18.34345 13.47747 0.00654
C 14.74901 4.16817 -0.0054
C 17.20774 12.75003 -0.00703
C 18.43027 10.681 -0.00652
C 18.37297 9.19152 0.0058
C 17.13413 8.57157 -0.00865
C 17.16761 7.10951 0.00675
C 18.44249 6.40511 -0.00311
C 18.38343 5.02572 0.00742
C 17.21665 4.2312 -0.01594
C 17.16019 2.79406 0.0106
C 17.21621 11.36002 -0.04076
C 15.96186 4.99751 0.00755
C 15.94729 6.38613 0.01739
C 14.74162 7.14295 0.03754
C 12.31649 7.07879 -0.00066
C 13.56493 6.40053 -0.00289
C 13.45099 4.98185 0.00028
C 12.22149 4.30002 -0.02213
C 12.24837 2.87004 0.03698
C 13.48513 2.16044 -0.00109
C 13.44112 0.76413 -0.00491
C 12.31225 0.01851 0.03338
C 14.80171 32.71761 -0.0258
C 16.04028 31.98591 -0.0331
C 14.63402 16.93021 -0.00316
C 14.78996 15.58396 0.02188
C 15.96874 14.80184 -0.01979
C 15.91436 13.34264 0.02691
C 14.71942 12.6534 -0.01581
C 14.73176 11.27231 0.01452
C 16.01801 10.63095 0.04892
C 15.83062 9.19402 -0.00111
C 14.67176 8.50878 -0.03557
C 9.89282 29.8524 0.01363
C 18.37382 2.20114 -0.01154
C 11.08359 30.59499 0.01877
C 9.86487 32.67045 0.00444
C 3.75269 6.46984 -0.00562
C 3.66106 5.06545 -0.00494
C 2.44513 4.34778 0.00054
C 2.45409 2.93207 0.03007
C 3.64223 2.21199 -0.00095
C 3.67872 0.72066 0.01572
C 2.39567 0.12753 -0.04848
C 4.90501 32.69006 -0.00892
C 2.44971 7.13044 -0.01142
C 6.13944 31.95178 -0.01362
C 4.82497 29.88959 0.0288
C 4.87798 28.40166 0.00393
C 6.13791 27.7061 0.00895
C 6.13641 26.21093 0.00685
C 4.92693 25.42064 0.02888
C 4.89097 23.90086 -0.00482
C 6.12476 17.84756 -0.01384
C 4.96136 17.11314 0.03693
C 6.08302 30.52685 -0.0008
C 4.96372 15.7133 0.01745
C 2.44867 8.50442 0.01849
C 3.64479 10.67175 0.0127
C 3.63826 30.56019 -0.05697
C 2.44596 29.82648 0.01087
C 2.46654 28.39679 -0.01343
C 3.70248 27.66182 0.00988
C 3.76453 26.1732 0.0276
C 2.56237 25.51515 0.01305
C 2.43378 24.08347 -0.00077
C 3.67384 23.36502 0.03368
C 3.72232 9.27925 0.01396
C 2.52353 21.47709 -0.02929
C 3.73768 19.16407 -0.03337
C 3.74384 17.80091 0.01227
C 2.41286 17.10873 0.00873
C 2.38509 15.71785 -0.00049
C 3.74924 15.02433 0.00848
C 3.63523 13.52146 -0.01303
C 2.47029 12.83611 -0.01378
C 2.41778 11.36749 0.02635
C 2.53883 19.98601 -0.00966
C 6.18847 14.90669 0.00488
C 6.1494 13.47276 -0.01004
C 4.93251 12.84822 -0.02896
C 8.55235 17.76632 0.00406
C 7.29493 17.10312 0.00943
C 7.35176 15.65209 0.02841
C 8.66666 15.02875 -0.01111
C 8.59706 13.53729 -0.01275
C 7.36195 12.78597 0.00985
C 7.35372 11.33808 -0.02245
C 8.59182 10.62401 -0.00428
C 8.63546 19.1779 0.03592
C 8.5099 9.1982 0.03101
C 7.36698 7.06417 -0.02689
C 8.51523 6.37085 -0.01046
C 8.55104 4.97481 -0.00891
C 7.32164 4.30322 0.02819
C 7.32219 2.9305 0.00165
C 8.57762 2.19909 -0.02971
C 8.60355 0.74242 0.02894
C 7.36541 0.09413 -0.01789
C 7.3437 8.53964 -0.01536
C 8.62358 23.5069 0.00572
C 7.57454 24.18947 0.0402
C 7.36115 25.57354 -0.02759
C 4.88768 11.35418 -0.00131
C 6.14031 10.7136 -0.01118
C 6.1123 9.26043 -0.014
C 4.93671 8.50959 0.02147
C 4.91033 7.1169 0.00373
C 6.05333 6.44286 -0.00191
C 6.07483 5.07452 0.00438
C 4.92202 4.2715 0.01291
C 4.86176 2.9199 0.00093
C 6.08287 2.17167 0.00057
C 6.17218 0.78823 -0.01634
C 4.88734 0.04298 -0.00334
C 7.34885 32.65922 0.02339
C 8.59144 31.92619 0.01641
C 8.59055 30.54452 -0.00719
C 7.38677 29.86345 0.01364
C 7.33245 28.42569 -0.01062
C 8.55948 27.7793 -0.00033
C 8.56068 26.37292 0.03589
C 11.08874 31.93606 -0.00925
C 18.41159 0.76906 -0.01721
C 17.22293 0.028 -0.02422
C 19.22097 32.61519 0.01277
C 31.86691 32.63076 0.01713
C 33.12713 32.00612 -0.01694
C 33.19577 30.58029 0.01428
C 31.96952 29.94195 -0.02142
C 32.09645 28.56943 0.0544
C 33.28423 27.69165 0.00026
C 33.26103 26.30066 0.00682
C 31.99347 25.54116 -0.01779
C 29.46814 34.07108 0.00346
C 31.96473 24.13702 0.03794
C 33.15158 22.04664 0.01574
C 31.86039 21.3252 -0.02383
C 31.87737 19.88491 -0.01429
C 33.19704 19.22501 -0.0136
C 33.12847 17.78507 0.00594
C 31.90965 17.05189 -0.02474
C 31.85287 15.64857 0.00369
C 33.11306 14.97762 0.00455
C 33.20798 23.47627 0.01927
C 33.15217 13.51367 -0.00644
C 30.70046 0.7063 0.00307
C 29.51322 2.77715 0.02108
C 30.64585 22.09337 -0.01415
C 29.41026 21.29345 -0.03039
C 29.31753 19.93705 0.01836
C 30.62784 19.20091 0.03531
C 30.5563 17.75503 -0.00669
C 29.36955 17.00036 0.0101
C 29.38964 15.57587 0.01705
C 30.65483 14.91981 -0.0405
C 30.79307 2.09129 0.00716
C 30.67391 13.52408 -0.01303
C 29.5517 11.28368 -0.02155
C 30.73116 10.63366 -0.00944
C 30.77324 9.17647 -0.03735
C 29.50326 8.49213 -0.00971
C 29.53202 7.1407 0.01518
C 30.70823 6.37276 0.01908
C 30.70844 4.9465 0.07705
C 29.50481 4.22111 0.0103
C 29.52483 12.74064 -0.01461
C 31.95623 12.80364 -0.01839
C 31.82333 11.44408 0.00137
C 33.17799 10.69606 0.00199
C 1.28111 19.31271 -0.01678
C 1.21768 17.92966 0.01223
C 34.39166 17.21413 0.00648
C 34.38085 15.68293 0.02114
C 1.21671 14.96371 -0.02957
C 1.22119 13.49733 0.00343
C 0.02929 12.8295 -0.02656
C 34.37439 11.35897 -0.02442
C 0.00162 19.9565 0.01951
C 1.20576 10.61334 -0.00027
C 34.41252 8.55315 -0.02302
C 34.4036 7.1338 -0.02849
C 1.18186 6.45384 0.02931
C 1.22675 5.00661 0.00628
C 0.09781 4.23682 -0.0345
C 34.42761 2.7689 -0.00931
C 1.22991 2.1714 -0.00939
C 1.14491 0.77738 -0.00468
C 1.24098 9.23063 -0.00583
C 34.4276 21.3184 -0.02213
C 1.23845 22.05295 0.02712
C 1.17268 23.43786 0.00723
C 33.18273 9.23747 0.04381
C 31.99105 8.5131 0.02806
C 31.94791 7.03204 0.01504
C 33.19365 6.37238 -0.00069
C 33.27436 4.90609 0.04926
C 32.02022 4.32699 -0.03838
C 32.00278 2.85541 0.00349
C 33.24686 2.13316 -0.00323
C 33.2072 0.73565 -0.00841
C 31.99266 0.00827 0.0001
C 0.02315 32.66486 -0.02927
C 1.22077 31.97219 -0.01404
C 1.21915 30.5341 0.01027
C 0.01838 29.86286 0.01831
C 0.0928 28.39 -0.01037
C 1.2157 27.70753 -0.00439
C 1.27363 26.26619 -0.00598
C 0.06891 25.50897 -0.05239
C 0.04202 24.15852 0.03076
C 30.75563 23.51039 -0.01854
C 29.45743 24.38283 -0.02049
C 29.56653 25.80638 0.03265
C 30.78436 26.31695 0.00261
C 23.35737 10.5972 -0.01107
C 23.34287 9.19876 -0.01586
C 22.04549 8.48083 -0.01971
C 22.15991 7.04259 -0.02118
C 23.37203 6.32071 0.00733
C 23.32329 4.89402 -0.00178
C 22.0933 4.201 0.00768
C 22.04858 2.7353 -0.0276
C 22.10761 11.31521 0.00071
C 23.32358 2.06439 0.03005
C 22.14044 33.96305 0.02117
C 25.3656 32.59278 0.02737
C 25.58923 19.04858 -0.00498
C 25.55427 17.62683 0.00135
C 24.3422 16.79772 0.03102
C 24.58001 15.47667 0.02555
C 25.82207 14.81034 0.01423
C 25.854 13.4669 -0.00285
C 23.35525 0.6471 -0.04078
C 22.13034 12.73673 -0.00225
C 23.41349 13.38513 0.01515
C 23.37214 14.76116 -0.0055
C 20.58658 31.93193 0.00096
C 19.7156 15.56957 -0.01527
C 20.93451 15.08939 0.01087
C 20.89354 13.55496 0.00199
C 19.61174 12.87769 0.01511
C 19.62976 11.45803 -0.00478
C 20.81867 10.66235 -0.01662
C 20.71985 9.23095 -0.01185
C 19.55187 8.51509 0.01126
C 19.63661 7.08691 0.01852
C 20.90135 6.38171 -0.00381
C 20.90205 4.94082 0.03046
C 19.60838 4.26989 0.0296
C 19.64722 2.83469 0.03374
C 20.80364 2.11918 -0.02845
C 20.90354 0.67118 -0.03213
C 19.56783 33.9483 0.02239
C 21.78328 32.63686 0.01153
C 22.26098 15.62006 0.02734
C 24.59768 12.66213 -0.009
C 3.61645 32.03817 -0.00725
C 24.5688 11.32736 -0.01199
C 25.79541 9.25087 -0.00938
C 27.04338 11.25459 0.04185
C 28.28489 10.65266 0.00194
C 28.33153 9.26558 -0.00621
C 27.00925 8.51056 0.02611
C 26.99744 7.12787 0.02198
C 28.19963 6.35008 0.01094
C 28.26281 4.95634 0.00235
C 27.04905 4.29521 0.01495
C 27.01058 12.70517 0.02316
C 27.03126 2.93369 0.01259
C 28.1563 0.70814 0.01699
C 26.94811 0.12608 -0.00416
C 29.29986 32.59474 0.01177
C 30.53912 31.94809 0.04266
C 30.64822 30.54696 0.01324
C 29.31363 29.76843 0.0014
C 29.5777 28.27585 0.00924
C 30.8477 27.80955 0.02326
C 28.24686 2.14186 0.01799
C 28.24205 13.43627 0.01257
C 28.20219 14.87135 0.00152
C 27.042 15.60986 -0.00294
C 24.62648 8.47457 -0.0264
C 24.54953 7.02854 -0.01154
C 25.79967 6.35683 0.00684
C 25.79755 4.96775 -0.01052
C 24.5527 4.22525 -0.01679
C 24.54561 2.87148 0.00367
C 25.78394 2.1802 0.04306
C 25.76633 0.8441 0.00996
C 24.62261 33.91999 0.00195
C 26.63107 32.78134 -0.00802
C 27.93667 32.00618 -0.00218
C 28.16829 30.64278 -0.01654
C 28.22334 23.51628 -0.00037
C 28.07186 22.09783 -0.0032
C 26.7465 21.38507 0.00622
C 26.83155 19.89261 -0.02815
C 28.05016 19.22669 -0.00942
C 28.00807 17.78257 0.00487
C 26.83906 17.02726 0.00826
C 25.83331 10.60567 -0.00229
C 2.42526 32.77776 0.02322
