377
Graphene
C 0.01423 0.02369 0.01295
C 12.33387 24.11908 0.03542
C 13.52612 23.48137 0.02299
C 13.53386 22.03604 0.00244
C 12.32558 21.28172 -0.01717
C 12.35328 19.90729 0.05265
C 13.53725 19.16408 -0.01952
C 13.476 17.70792 -0.02813
C 12.26431 17.0116 0.00374
C 12.2602 15.52329 0.00052
C 13.53653 14.89769 -0.03682
C 13.57958 13.51579 0.01965
C 12.3302 12.73136 0.02058
C 12.32323 11.3441 -0.01957
C 13.56185 10.63354 -0.0108
C 13.51366 9.29348 -0.00368
C 12.31397 8.47171 -0.02696
C 12.29611 7.0352 -0.00114
C 13.48462 6.37131 0.00228
C 13.56995 4.90701 0.00798
C 12.24363 25.56614 0.01416
C 13.49567 26.30128 0.01945
C 13.53609 27.63754 -0.01454
C 12.26886 28.42726 0.01241
C 9.75922 15.68185 -0.00428
C 11.07039 14.93757 0.03101
C 11.0811 13.48726 -0.01536
C 9.85097 12.79895 -0.02689
C 9.87332 11.38544 -0.01046
C 11.08889 10.65614 -0.00891
C 11.09971 9.21273 0.02819
C 9.86753 8.5566 0.00165
C 9.84904 7.18491 -0.02971
C 12.25589 4.2864 0.00422
C 11.04663 6.44351 0.02894
C 9.85002 4.20947 0.00444
C 9.85044 2.8314 -0.00925
C 11.09543 2.14904 0.01877
C 11.1474 0.69844 0.01363
C 9.8265 34.02066 -0.02162
C 12.27213 32.68822 0.00415
C 13.55032 31.92712 -0.0014
C 13.48228 30.52513 0.02162
C 12.31244 29.79671 0.0076
C 11.11617 4.99599 -0.01789
C 9.82548 17.07736 -0.02245
C 12.32198 2.8377 0.0351
C 13.49939 0.76924 0.02098
C 14.76442 8.53926 -0.01979
C 14.7473 7.07317 0.02691
C 15.98944 6.36455 -0.01581
C 15.99659 5.00869 0.01452
C 14.76687 4.22432 0.04892
C 14.74814 2.85134 -0.00111
C 15.96503 2.13578 -0.03557
C 16.01634 0.69418 0.03754
C 14.81219 0.0472 0.01739
C 17.21089 32.62359 0.00755
C 18.4754 31.94509 -0.0054
C 18.45271 30.52585 0.00667
C 17.25227 29.77688 0.00143
C 17.18354 28.39586 -0.017
C 18.4365 27.70514 0.00364
C 18.48853 26.24032 -0.00831
C 17.23502 25.54791 -0.02957
C 17.20083 24.1873 -0.04422
C 18.39951 23.44117 0.00654
C 15.95847 9.24298 0.02188
C 15.91055 10.70671 -0.00316
C 14.73174 11.381 -0.0331
C 14.74736 12.79152 -0.0258
C 12.33047 34.0388 0.01848
C 14.77591 32.66986 -0.00619
C 15.99004 31.98245 -0.02162
C 15.98628 30.56737 0.00889
C 14.77379 29.84563 -0.00481
C 14.74514 28.40095 0.00979
C 15.99634 27.66649 0.01443
C 15.95419 26.23451 0.03505
C 14.73867 25.55563 -0.02815
C 13.55588 2.13544 -0.03113
C 14.75002 24.15861 -0.04147
C 15.95265 22.01085 0.00213
C 14.71454 21.3052 -0.00066
C 14.75396 19.8652 -0.00289
C 15.97799 19.17473 0.00028
C 16.00366 17.76492 -0.02213
C 14.78873 17.0292 0.03698
C 14.73992 15.57617 -0.00109
C 15.97506 14.83635 -0.00491
C 15.94408 13.46215 0.03338
C 15.9926 23.43111 -0.05302
C 11.03986 17.74142 0.00985
C 11.0936 19.18796 -0.01275
C 9.87531 19.88928 -0.01111
C 6.10593 31.99599 0.00988
C 6.13833 30.52974 0.0276
C 6.12459 27.71035 0.01305
C 6.12854 26.30281 -0.00077
C 4.93054 25.61399 0.03368
C 4.94426 24.07396 -0.02929
C 6.14034 23.4542 -0.00966
C 6.09924 22.02036 -0.03337
C 4.88853 21.30547 0.01227
C 6.19895 14.95023 0.00873
C 6.1519 13.53079 -0.00049
C 4.92599 12.74521 0.00848
C 4.94824 11.38791 -0.01303
C 6.16901 10.68992 -0.01378
C 6.16769 9.23901 0.02635
C 4.88062 8.58513 0.0127
C 4.93857 7.11917 0.01396
C 6.15546 6.3887 0.01849
C 6.15279 4.97147 -0.01142
C 4.87859 32.68476 -0.01343
C 2.49382 34.05543 0.01087
C 3.73028 0.73207 -0.05697
C 3.6826 2.09722 -0.00725
C 3.75826 30.48833 0.03267
C 2.50071 29.83586 0.02374
C 3.6753 26.24211 0.00402
C 2.45675 25.64317 0.0073
C 2.46193 24.1509 0.0174
C 3.70815 23.4043 0.03828
C 3.68413 22.00765 0.01226
C 2.46117 21.31266 -0.00279
C 2.44256 19.87163 0.01996
C 4.95416 4.22725 -0.00562
C 3.61355 13.44032 -0.03996
C 2.44281 11.41601 -0.00074
C 3.6733 10.69193 -0.00518
C 3.69927 9.25211 0.0086
C 2.48532 8.54938 -0.00643
C 2.45023 7.04906 0.017
C 3.73607 6.39605 -0.03113
C 3.71929 5.00262 -0.02566
C 2.44994 4.2897 -0.00094
C 2.43923 2.82351 0.02322
C 2.43753 12.74439 0.01465
C 4.91416 2.79108 -0.00494
C 6.19667 2.1251 0.00054
C 6.15754 0.66815 0.03007
C 7.40285 7.12593 0.00438
C 8.60799 6.45127 0.01291
C 8.5953 4.97821 0.00093
C 7.43193 4.25174 0.00057
C 7.43378 2.85109 -0.01634
C 8.64641 2.17358 -0.00334
C 8.58748 0.64036 0.02339
C 7.37407 0.00126 0.01641
C 9.81816 32.67655 -0.00719
C 7.34459 8.49446 -0.00191
C 11.06378 31.96378 0.01364
C 9.82417 29.84893 -0.00033
C 9.81479 28.42384 0.03589
C 11.08678 27.63898 -0.02759
C 11.05077 26.29914 0.0402
C 9.81948 25.58279 0.00572
C 9.83876 24.17802 0.03592
C 11.0469 23.42969 0.00406
C 11.06928 22.00325 0.00943
C 9.854 21.34087 0.02841
C 11.07838 30.56392 -0.01062
C 18.40301 22.02749 -0.00703
C 8.64483 9.23502 0.00373
C 7.37684 11.39727 -0.014
C 4.91902 0.00568 -0.00095
C 7.38122 32.70982 0.01572
C 8.54578 32.0102 -0.04848
C 8.59198 30.55945 -0.00892
C 7.3575 29.84173 -0.01362
C 7.30305 28.42012 -0.0008
C 8.62068 27.72433 0.0288
C 8.62851 26.28205 0.00393
C 7.39987 25.56245 0.00895
C 8.5848 10.68798 0.02147
C 7.35512 24.19421 0.00685
C 8.61755 22.02046 -0.00482
C 7.30896 21.26869 -0.01384
C 7.35361 19.91931 0.03693
C 8.58171 19.12136 0.01745
C 8.61561 17.73742 0.00488
C 7.28833 15.66543 -0.01004
C 8.56452 14.96797 -0.02896
C 8.65136 13.56493 -0.00131
C 7.41398 12.73449 -0.01118
C 8.60295 23.43451 0.02888
C 3.6349 31.93919 -0.01509
C 17.23242 21.29468 -0.04076
C 18.42825 19.19127 0.0058
C 30.6747 9.21536 0.00716
C 29.48288 8.49936 0.00307
C 29.49603 7.03681 0.00346
C 30.73054 6.42071 0.01713
C 30.70807 4.96988 -0.01694
C 29.52793 4.28551 0.01428
C 29.52545 2.80039 -0.02142
C 30.75866 2.12941 0.0544
C 30.74221 0.74327 0.00026
C 29.53624 34.07834 0.00682
C 31.98467 32.69261 -0.01779
C 33.19291 31.94674 0.03794
C 33.21183 30.52432 0.01927
C 31.97081 29.80995 0.01574
C 31.94939 28.44193 -0.02383
C 33.24252 27.68604 -0.01429
C 33.21876 26.25313 -0.0136
C 33.20519 17.71643 0.00594
C 32.00258 17.08539 -0.02474
C 30.74005 10.67878 0.02108
C 29.50594 11.3525 0.0103
C 29.50728 12.77485 0.07705
C 30.74323 13.49977 0.01908
C 27.05077 12.77822 0.02326
C 27.07743 11.38667 0.00261
C 28.28092 10.56186 0.03265
C 28.31264 9.15531 -0.02049
C 27.06725 8.54142 -0.01854
C 27.04365 7.14997 -0.01415
C 28.30915 6.35959 -0.03039
C 28.25171 4.96729 0.01836
C 27.09278 4.20842 0.03531
C 31.94609 15.56618 0.00369
C 27.03918 2.84144 -0.00669
C 28.26739 0.68245 0.01705
C 27.05297 0.02937 -0.0405
C 29.50208 32.66745 -0.01303
C 30.74276 31.91416 -0.01461
C 30.78972 30.51909 -0.02155
C 29.5236 29.82923 -0.00944
C 29.61069 28.40498 -0.03735
C 30.6991 27.65309 -0.00971
C 30.76239 14.90543 0.01518
C 28.31008 2.10407 0.0101
C 28.25997 13.4763 0.00924
C 33.22911 14.86811 0.00455
C 31.96204 12.79536 -0.01839
C 34.41145 19.9239 0.01951
C 1.27236 19.22708 -0.01678
C 1.20213 17.7465 0.01223
C 0.04193 17.06589 0.00648
C 34.39682 15.62836 0.02114
C 1.22128 14.90787 -0.02957
C 1.23161 13.49646 0.00343
C 0.03998 12.79356 -0.02656
C 0.00841 11.36303 -0.02442
C 1.19537 10.64066 -0.00027
C 1.22883 9.25276 -0.00583
C 34.42724 8.53803 -0.02302
C 0.01914 7.15086 -0.02849
C 1.17918 6.30699 0.02931
C 1.18851 4.93091 0.00628
C 34.42417 4.22695 -0.0345
C 0.05673 2.8283 -0.00931
C 1.20248 2.10608 -0.00939
C 1.21021 0.71896 -0.00468
C 34.41583 21.23237 -0.02213
C 1.16996 22.02669 0.02712
C 1.20726 23.40817 0.00723
C 34.43153 24.20663 0.03076
C 31.97025 11.38008 0.00137
C 33.18794 10.6419 0.00199
C 33.18433 9.22553 0.04381
C 31.93896 8.48838 0.02806
C 31.90706 7.12336 0.01504
C 33.19925 6.41458 -0.00069
C 33.23565 4.93399 0.04926
C 31.98266 4.26113 -0.03838
C 31.95226 2.89803 0.00349
C 33.22996 13.49368 -0.00644
C 33.19131 2.16738 -0.00323
C 31.95337 0.01329 0.0001
C 34.40488 32.65501 -0.02927
C 1.23213 31.99487 -0.01404
C 1.25382 30.52496 0.01027
C 0.00451 29.822 0.01831
C 34.43252 28.39015 -0.01037
C 1.20399 27.65808 -0.00439
C 1.23803 26.2985 -0.00598
C 34.40354 25.64312 -0.05239
C 33.20511 0.65048 -0.00841
C 28.28973 14.86827 0.0014
C 26.97619 29.83387 0.01324
C 28.29933 30.52543 0.04266
C 19.70588 25.55762 -0.02845
C 19.62913 24.09209 -0.03213
C 20.88341 23.43064 0.02239
C 20.93395 22.05127 0.01153
C 19.63843 21.23882 0.02734
C 19.64652 19.88052 -0.0055
C 20.91754 19.15226 0.01515
C 20.91212 17.76084 -0.00225
C 19.67895 17.07579 0.00071
C 19.65885 15.59821 -0.01107
C 20.92947 14.86198 -0.01586
C 20.89266 13.48132 -0.01971
C 19.64332 12.7569 -0.02118
C 19.66315 11.36131 0.00733
C 20.93595 10.60301 -0.00178
C 20.87391 9.25429 0.00768
C 19.60563 8.54154 -0.0276
C 19.61528 7.0995 0.03005
C 20.87562 6.33207 -0.04078
C 20.85681 27.67982 0.03374
C 19.72928 28.38249 0.0296
C 19.69848 29.80779 0.03046
C 20.84082 30.51513 -0.00381
C 18.39343 17.70343 -0.00865
C 17.23823 17.02799 0.00675
C 17.2114 15.60051 -0.00311
C 18.48231 14.8646 0.00742
C 18.49259 13.42067 -0.01594
C 17.25574 12.75622 0.0106
C 17.19455 11.3783 -0.01154
C 18.44737 10.60024 -0.01721
C 18.38905 9.20507 -0.02422
C 20.87886 5.00524 0.02117
C 17.24738 8.46057 0.01277
C 18.49593 6.36188 -0.01527
C 18.43653 4.91554 0.01087
C 17.21593 4.23602 0.00199
C 17.21448 2.83287 0.01511
C 18.45373 2.11787 -0.00478
C 18.46501 0.71847 -0.01662
C 17.18401 34.06242 -0.01185
C 19.70204 32.65047 0.01126
C 20.93664 31.91949 0.01852
C 17.24131 7.0862 0.00096
C 19.71237 4.30072 0.02737
C 19.70989 2.89569 -0.00498
C 20.93695 2.08301 0.00135
C 25.81178 31.94024 -0.00942
C 25.8624 30.52124 0.00487
C 24.58696 15.65144 0.00826
C 25.75639 14.93262 -0.00294
C 25.83687 13.5045 0.00152
C 24.58154 12.81014 0.01257
C 24.58543 11.33431 0.02316
C 25.85581 10.65896 0.04185
C 25.81844 9.28518 0.00194
C 24.59301 32.60716 -0.02815
C 24.61737 8.57961 -0.00621
C 25.8546 6.39157 0.02198
C 25.8828 4.93868 0.01094
C 24.54794 4.23107 0.00235
C 24.60396 2.85326 0.01495
C 25.81268 2.1153 0.01259
C 25.9432 0.73808 0.01799
C 24.57325 0.00943 0.01699
C 27.05904 32.64258 -0.00416
C 28.26824 31.92891 0.01177
C 24.53636 7.12375 0.02611
C 17.19222 19.9023 -0.00652
C 22.09645 34.07175 0.00622
C 23.33993 2.11477 -0.00037
C 20.92557 0.67001 0.03102
C 19.59051 34.02205 0.02555
C 22.13163 32.66473 0.01423
C 23.3435 31.94435 -0.00285
C 23.3138 30.49087 -0.009
C 22.1416 29.8308 -0.01199
C 22.09897 17.0575 -0.00229
C 22.15289 15.63434 -0.00938
C 23.34628 14.93596 -0.0264
C 23.38966 0.65089 -0.0032
C 23.40999 13.50541 -0.01154
C 22.12292 11.31134 -0.01052
C 23.38921 10.63969 -0.01679
C 23.42736 9.30249 0.00367
C 22.15571 8.54192 0.04306
C 22.08746 7.05359 0.00996
C 23.35625 6.37579 0.00195
C 23.36672 5.00921 -0.00802
C 22.10508 4.30434 -0.00218
C 22.13428 2.83203 -0.01654
C 22.16781 12.80661 0.00684
C 2.47889 32.67916 0.00643
