332
Graphene
C 34.39681 34.05339 0.01295
C 14.68873 19.90645 0.03505
C 15.94748 19.19561 -0.02815
C 16.01621 17.76855 -0.04147
C 14.95945 16.81987 -0.05302
C 15.49846 15.62003 0.00213
C 15.7334 4.61252 -0.00066
C 14.92779 3.00435 -0.00289
C 14.66288 21.31052 0.01443
C 15.95788 2.1164 0.00028
C 14.99876 33.72793 0.03698
C 17.10057 32.64904 -0.00109
C 18.46202 31.91432 -0.00491
C 18.37002 30.49087 0.03338
C 17.14593 29.91318 -0.0258
C 17.1398 28.52134 -0.0331
C 18.37521 27.69469 -0.00316
C 16.03493 0.6759 -0.02213
C 16.00074 22.06201 0.00979
C 16.01343 23.46624 -0.00481
C 14.6594 24.14492 0.00889
C 9.79109 0.29826 -0.03682
C 12.31886 24.19359 0.01965
C 13.39198 23.43082 0.02058
C 13.4453 21.97641 -0.01957
C 12.25135 21.22112 -0.0108
C 12.18294 19.71999 -0.00368
C 13.4741 19.08033 -0.02696
C 13.59392 17.55507 -0.00114
C 12.36673 17.03511 0.00228
C 12.29716 2.81571 0.00798
C 13.59035 2.5405 0.00422
C 13.62578 0.10427 0.0351
C 12.3118 0.07499 -0.03113
C 15.82837 32.04082 0.02098
C 16.10116 27.65254 0.01848
C 15.90786 26.2721 -0.00619
C 14.73449 25.46543 -0.02162
C 18.41904 26.20259 0.02188
C 17.15214 25.56568 -0.01979
C 17.22039 24.1293 0.02691
C 18.4331 23.41013 -0.01581
C 19.66047 29.82258 0.00675
C 19.64615 28.40002 -0.00311
C 20.92237 27.61378 0.00742
C 20.83303 26.20048 -0.01594
C 19.62097 25.51912 0.0106
C 19.68799 24.07038 -0.01154
C 20.98578 23.43831 -0.01721
C 20.91238 21.99461 -0.02422
C 19.65526 21.33604 0.01277
C 19.65804 19.92411 0.00096
C 20.88519 19.04511 -0.01527
C 20.89843 17.63199 0.01087
C 19.63251 17.24896 0.00199
C 19.65472 15.88577 0.01511
C 20.9874 15.6301 -0.00478
C 19.3773 12.69528 -0.01662
C 19.77987 11.3395 -0.01185
C 20.96492 30.5378 -0.00865
C 10.91976 33.82565 0.00052
C 20.93283 31.91425 0.0058
C 17.23538 0.00151 -0.04076
C 18.42677 21.97055 0.01452
C 17.18914 21.3301 0.04892
C 17.11598 19.9009 -0.00111
C 18.41358 19.29669 -0.03557
C 18.39862 17.86204 0.03754
C 17.25154 17.13262 0.01739
C 17.01763 15.70175 0.00755
C 18.38252 15.13406 -0.0054
C 18.73984 13.82069 0.00667
C 18.6252 10.48305 0.00143
C 18.60712 9.1313 -0.017
C 18.36136 6.2942 0.00364
C 18.29739 4.93511 -0.00831
C 17.05764 4.1903 -0.02957
C 17.23948 2.75999 -0.04422
C 18.42764 2.03953 0.00654
C 18.40957 0.68026 -0.00703
C 19.63206 32.54283 -0.00652
C 21.07579 10.63594 0.01126
C 11.05228 3.24055 0.00374
C 9.70501 16.99306 -0.01952
C 2.35619 8.54095 -0.01118
C 2.53478 6.97921 -0.014
C 3.67367 6.22284 0.02147
C 3.73292 4.85276 0.00373
C 2.42511 4.15656 -0.00191
C 2.41981 2.82586 0.00438
C 3.70383 2.08821 0.01291
C 3.60294 9.22683 -0.00131
C 3.67163 0.7393 0.00093
C 4.963 32.67946 -0.01634
C 6.27018 32.09916 -0.00334
C 6.16863 30.67627 0.02339
C 4.9687 29.9083 0.01641
C 4.94511 28.49655 -0.00719
C 6.16229 27.75754 0.01364
C 6.09273 26.33115 -0.01062
C 2.50749 0.02293 0.00057
C 3.50883 10.58159 -0.02896
C 2.32054 11.38352 -0.01004
C 2.34188 12.87737 0.00488
C 3.72337 30.61448 0.00054
C 2.5125 29.94376 0.03007
C 2.52128 28.50923 -0.00095
C 3.80487 27.77739 0.01572
C 3.72353 26.38684 -0.04848
C 2.48499 25.60801 -0.00892
C 2.43344 24.23139 -0.01362
C 3.70504 23.48726 -0.0008
C 3.69731 22.0777 0.0288
C 2.44412 21.37815 0.00393
C 2.39688 19.94061 0.00895
C 3.65538 19.16002 0.00685
C 3.57565 17.75312 0.02888
C 2.32115 17.0023 -0.00482
C 2.40099 15.61681 -0.01384
C 3.67624 14.85509 0.03693
C 3.59018 13.50752 0.01745
C 4.85701 25.68098 -0.00033
C 5.00392 24.18641 0.03589
C 6.20172 23.45023 -0.02759
C 6.10974 22.10046 0.0402
C 7.34456 21.40026 -0.00925
C 7.34482 19.90434 0.01877
C 8.49943 19.09458 0.01363
C 8.43888 17.42583 -0.02162
C 7.0551 16.60102 0.00415
C 6.9979 3.23589 -0.0014
C 8.39305 2.55587 0.02162
C 8.57572 1.03242 0.0076
C 7.37034 0.02677 0.01241
C 9.74327 25.60758 -0.01454
C 9.85593 24.20427 0.01945
C 11.1494 23.52396 0.01416
C 11.08362 21.98228 0.03542
C 9.7408 21.20661 0.02299
C 9.71709 19.7693 0.00244
C 10.94985 19.05918 -0.01717
C 11.0786 17.60173 0.05265
C 8.61781 22.04717 0.00444
C 9.7188 3.0449 -0.02813
C 8.58842 23.4449 -0.01789
C 7.4302 25.629 -0.02971
C 4.89361 21.39924 0.00572
C 4.87183 19.88413 0.03592
C 6.06339 19.13355 0.00406
C 6.07269 17.71118 0.00943
C 4.85902 17.07495 0.02841
C 4.98209 15.62795 -0.01111
C 6.57616 15.46623 -0.01275
C 6.39147 4.39471 0.00985
C 4.99879 4.15788 -0.02245
C 4.84928 2.74701 -0.00428
C 6.04572 2.16275 0.03101
C 6.11545 0.77825 -0.01536
C 4.9015 0.02244 -0.02689
C 7.45181 32.79165 -0.01046
C 7.35395 29.81275 -0.00891
C 7.4168 28.48745 0.02819
C 8.7075 26.28289 0.00165
C 7.42553 24.20927 0.02894
C 21.16025 9.14412 0.01852
C 19.82287 8.47226 -0.00381
C 19.64073 7.00564 0.03046
C 33.20131 27.72049 0.00026
C 33.20635 26.37714 0.00682
C 32.01822 25.64213 -0.01779
C 32.002 24.18416 0.03794
C 33.16264 23.47322 0.01927
C 33.076 22.0619 0.01574
C 31.91959 21.35204 -0.02383
C 31.94782 28.43312 0.0544
C 32.01868 19.962 -0.01429
C 32.96386 17.73919 0.00594
C 31.67374 17.00653 -0.02474
C 31.85055 15.65647 0.00369
C 33.06238 15.01364 0.00455
C 33.08049 13.51639 -0.00644
C 31.99708 12.64576 -0.01839
C 32.01617 11.38346 0.00137
C 33.14613 19.14019 -0.0136
C 31.99345 29.86109 -0.02142
C 33.23269 30.62181 0.01428
C 33.13365 32.00804 -0.01694
C 30.74857 23.53487 0.01705
C 30.7082 22.0614 -0.0405
C 29.46731 21.3555 -0.01303
C 29.46188 19.86141 -0.01461
C 30.73023 19.24714 -0.02155
C 30.52133 17.86796 -0.00944
C 30.73121 9.10252 -0.03735
C 29.67929 8.56076 -0.00971
C 29.499 7.10266 0.01518
C 30.7881 6.42094 0.01908
C 30.69339 5.0367 0.07705
C 29.5862 4.29498 0.0103
C 29.55391 2.86037 0.02108
C 30.72065 2.11043 0.00716
C 30.6995 0.6967 0.00307
C 29.49923 34.05206 0.00346
C 31.94147 32.70179 0.01713
C 33.12938 10.62987 0.00199
C 33.27332 9.17912 0.04381
C 32.05111 8.48641 0.02806
C 31.99056 7.11235 0.01504
C 1.05549 17.7812 0.01223
C 34.24183 17.08917 0.00648
C 34.36281 15.66722 0.02114
C 1.09791 14.89098 -0.02957
C 1.05326 13.53121 0.00343
C 34.31797 12.85406 -0.02656
C 34.28958 11.41664 -0.02442
C 1.0589 10.64768 -0.00027
C 1.12216 9.24138 -0.00583
C 34.43122 8.47471 -0.02302
C 34.42179 7.05376 -0.02849
C 1.23869 6.3306 0.02931
C 1.26117 4.9449 0.00628
C 34.43217 4.28245 -0.0345
C 34.40241 2.83851 -0.00931
C 1.18194 2.11079 -0.00939
C 1.2062 0.7285 -0.00468
C 1.15524 19.25101 -0.01678
C 29.46407 24.14295 0.0101
C 34.38197 19.8756 0.01951
C 1.21606 22.09692 0.02712
C 33.17542 6.42661 -0.00069
C 33.20531 4.94985 0.04926
C 31.89912 4.24847 -0.03838
C 31.89008 2.79646 0.00349
C 33.12986 2.14215 -0.00323
C 33.1704 0.73058 -0.00841
C 31.90376 34.06526 0.0001
C 0.02168 32.6286 -0.02927
C 1.29298 31.96237 -0.01404
C 1.2179 30.58815 0.01027
C 0.01847 29.88436 0.01831
C 34.3949 28.48402 -0.01037
C 1.26628 27.84718 -0.00439
C 1.32154 26.36465 -0.00598
C 0.07214 25.64517 -0.05239
C 0.03414 24.2192 0.03076
C 1.23462 23.52458 0.00723
C 34.36892 21.36877 -0.02213
C 29.51521 25.58954 -0.00669
C 30.75014 26.30519 0.03531
C 30.69932 27.74638 0.01836
C 22.52598 8.40982 0.02117
C 22.14396 7.04288 0.02737
C 23.27752 6.22522 -0.00498
C 23.29641 4.85839 0.00135
C 21.97886 4.19023 0.03102
C 22.04464 2.82783 0.02555
C 23.31379 2.14315 0.01423
C 23.30212 0.72293 -0.00285
C 22.07886 34.06697 -0.009
C 24.55086 32.66206 -0.01199
C 25.83022 31.92652 -0.00229
C 25.77343 30.51573 -0.00938
C 24.61415 29.77791 -0.0264
C 24.63775 28.38701 -0.01154
C 25.82463 27.66175 0.00684
C 25.7928 26.28268 -0.01052
C 24.58332 25.49765 -0.01679
C 23.20796 19.16045 -0.04078
C 24.60475 24.02445 0.00367
C 22.05239 19.88075 0.03005
C 23.4232 21.89308 0.00768
C 20.95793 6.3175 0.0296
C 20.8094 4.89465 0.03374
C 19.53097 4.2389 -0.02845
C 19.57544 2.8667 -0.03213
C 20.764 2.12685 0.02239
C 20.80747 0.71622 0.01153
C 19.69038 34.06229 0.02734
C 22.1135 32.65734 -0.0055
C 23.33704 31.94468 0.01515
C 23.38943 30.48924 -0.00225
C 22.17644 29.71424 0.00071
C 22.19836 28.37161 -0.01107
C 23.47212 27.71357 -0.01586
C 23.46069 26.24121 -0.01971
C 22.13937 25.53361 -0.02118
C 22.24917 24.05629 0.00733
C 23.41602 23.35491 -0.00178
C 22.07793 21.26486 -0.0276
C 3.7002 32.03445 -0.00494
C 25.81994 23.3548 0.04306
C 24.5709 21.09737 0.00195
C 28.20798 21.974 0.01495
C 27.0008 21.13067 0.01259
C 27.09408 19.63993 0.01799
C 28.38724 19.04983 0.01699
C 26.99053 7.01344 -0.00416
C 28.28108 6.37947 0.01177
C 28.2638 4.95036 0.04266
C 27.0262 4.31402 0.01324
C 27.0182 2.88203 0.0014
C 28.28395 2.14677 0.00924
C 28.22515 0.71954 0.02326
C 27.00094 0.01983 0.00261
C 29.47163 32.67847 0.03265
C 30.68048 32.06736 -0.02049
C 30.73959 30.5994 -0.01854
C 29.49474 29.88052 -0.01415
C 29.47034 28.51061 -0.03039
C 28.26107 23.38716 0.00235
C 25.82497 21.84944 0.00996
C 27.03306 24.10662 0.01094
C 28.2665 26.2703 0.02611
C 24.53454 19.66255 -0.00802
C 25.82774 19.02867 -0.00218
C 23.72116 8.41549 -0.01654
C 24.39395 7.13026 -0.00037
C 25.6931 6.46511 -0.0032
C 25.80366 5.00636 0.00622
C 24.56934 4.2372 -0.02815
C 24.59911 2.81428 -0.00942
C 25.83483 2.1023 0.00487
C 25.74122 0.66381 0.00826
C 24.52945 33.99799 -0.00294
C 26.99978 32.71857 0.00152
C 28.22625 31.9202 0.01257
C 28.25667 30.5425 0.02316
C 27.03194 29.79182 0.04185
C 27.05662 28.39418 0.00194
C 28.32985 27.74915 -0.00621
C 27.03806 25.55308 0.02198
C 2.5114 32.70178 -0.00562
