420
Graphene
C 0.00711 34.01946 0.01295
C 13.50256 27.75435 0.00406
C 13.54878 26.25181 0.00943
C 12.26594 25.61174 0.02841
C 12.3501 24.20191 -0.01111
C 13.67056 23.31618 -0.01275
C 13.39238 21.99804 0.00985
C 12.30826 21.32047 -0.02245
C 12.27076 19.84299 -0.00428
C 13.28072 19.01645 0.03101
C 13.70531 17.69806 -0.01536
C 12.31485 28.4616 0.03592
C 12.31961 17.03221 -0.02689
C 13.44261 14.85853 -0.00891
C 13.492 13.47923 0.02819
C 12.29839 12.77809 0.00165
C 12.35605 11.38769 -0.02971
C 13.52836 10.61995 0.02894
C 13.51066 9.16847 -0.01789
C 12.21479 8.40171 0.00444
C 12.26719 6.98395 -0.00925
C 13.50877 6.31789 0.01877
C 13.44617 4.99064 0.01363
C 12.31053 15.57414 -0.01046
C 12.28451 4.26636 -0.02162
C 12.28699 29.90144 0.00572
C 13.5247 32.03467 -0.02759
C 9.75163 21.38573 0.00488
C 9.81205 19.93066 -0.01004
C 11.04423 19.147 -0.02896
C 11.09963 17.79057 -0.00131
C 9.79624 17.16772 -0.01118
C 9.80102 15.76725 -0.014
C 11.01588 15.0098 0.02147
C 11.04727 13.52812 0.00373
C 9.86402 12.80226 -0.00191
C 9.94432 11.29523 0.00438
C 13.51945 30.61961 0.0402
C 11.11807 10.53296 0.01291
C 9.82805 8.54222 0.00057
C 9.80003 7.09789 -0.01634
C 10.97076 6.35849 -0.00334
C 11.01006 4.96118 0.02339
C 9.74517 4.26413 0.01641
C 9.81549 2.82418 -0.00719
C 11.11453 2.12934 0.01364
C 11.03414 0.74747 -0.01062
C 9.81341 0.03018 -0.00033
C 12.33038 32.71614 0.03589
C 11.09147 9.16172 0.00093
C 12.31611 2.90948 0.00415
C 13.51963 2.07654 -0.0014
C 13.51168 0.73096 0.02162
C 17.21178 32.6769 0.02098
C 18.45898 31.9847 0.01848
C 18.51537 30.59013 -0.00619
C 17.22404 29.78826 -0.02162
C 17.19837 28.41306 0.00889
C 18.42717 27.59401 -0.00481
C 18.55193 26.06324 0.00979
C 17.19917 25.53509 0.01443
C 17.09393 15.57835 0.03505
C 18.35252 15.09975 -0.02815
C 14.73608 0.04637 -0.03113
C 18.37866 13.58577 -0.04147
C 17.1736 11.37017 0.00213
C 18.35502 10.6578 -0.00066
C 18.38058 9.21762 -0.00289
C 17.17331 8.53414 0.00028
C 17.14116 7.11102 -0.02213
C 18.33598 6.37422 0.03698
C 18.39283 4.98805 -0.00109
C 17.19701 4.26306 -0.00491
C 17.1838 2.81223 0.03338
C 18.41921 2.12708 -0.0258
C 17.18495 12.7973 -0.05302
C 15.99171 0.68706 0.0351
C 15.97813 2.16658 0.00422
C 14.77579 2.81454 0.00798
C 12.27451 0.03062 0.0076
C 14.74102 32.70941 0.01241
C 15.99873 31.95255 -0.01454
C 16.02367 30.52814 0.01945
C 14.78325 29.84183 0.01416
C 14.75388 28.44528 0.03542
C 16.01671 27.71808 0.02299
C 16.05787 26.26244 0.00244
C 14.75513 25.64006 -0.01717
C 14.79205 24.24528 0.05265
C 14.77223 16.86742 -0.01952
C 14.70793 15.49952 -0.02813
C 15.94311 14.82343 0.00374
C 16.00874 13.43253 0.00052
C 14.7553 12.73451 -0.03682
C 14.68822 11.2869 0.01965
C 16.0001 10.64827 0.02058
C 15.87434 9.33499 -0.01957
C 14.72739 8.49323 -0.0108
C 14.71757 7.08677 -0.00368
C 15.91244 6.38725 -0.02696
C 15.96661 5.02275 -0.00114
C 14.73092 4.23006 0.00228
C 11.06191 22.03531 0.01745
C 18.41295 0.75147 -0.0331
C 11.12303 23.49686 0.03693
C 9.81536 25.59177 -0.00482
C 2.40819 2.89742 -0.00561
C 3.64426 2.14915 0.00208
C 3.66899 0.72018 0.01707
C 2.48665 34.07115 0.02769
C 4.87129 32.66617 -0.03291
C 6.02949 31.98138 -0.04999
C 6.11181 30.58963 0.04505
C 4.92211 29.84479 0.03284
C 5.01715 28.40046 -0.04307
C 6.11696 27.69159 0.03189
C 2.43387 4.27353 -0.01977
C 6.07454 26.22057 0.00031
C 4.86824 24.07353 0.01402
C 6.19125 23.39637 0.02379
C 6.18068 22.01429 0.00907
C 4.90671 21.2598 0.00643
C 4.9305 19.93117 -0.01509
C 6.11589 19.22131 0.03267
C 6.1244 17.76374 0.02374
C 4.86071 17.04116 0.00402
C 4.96455 15.62825 0.0073
C 6.1796 14.98136 0.0174
C 4.88245 25.52665 -0.003
C 6.15318 13.48971 0.03828
C 3.69169 5.07373 0.02784
C 2.35736 7.17471 -0.00449
C 3.65554 30.51392 0.00748
C 2.49491 29.83142 0.00662
C 2.48256 28.36649 -0.0154
C 3.72373 27.63912 -0.01299
C 3.62106 26.21523 -0.00407
C 2.38982 25.4929 0.01138
C 2.41519 24.13117 0.03278
C 3.65567 23.43371 -0.00177
C 3.61869 22.04995 0.04421
C 2.3966 21.38787 0.00088
C 3.61021 6.48901 -0.01979
C 2.46306 19.8874 0.00828
C 3.74718 17.7908 0.00558
C 2.45029 17.06469 -0.0059
C 2.47046 15.6052 -0.01386
C 3.69465 14.78696 -0.02805
C 3.68154 13.48223 0.00081
C 2.35124 12.72897 0.00245
C 2.35383 11.27693 0.02728
C 3.65339 10.63249 -0.00039
C 3.68311 9.18931 0.0064
C 2.42148 8.53514 0.00211
C 3.72325 19.21088 -0.02375
C 4.89574 12.75732 0.01226
C 4.88212 11.27953 -0.00279
C 6.19948 10.6785 0.01996
C 8.63302 14.97698 -0.01303
C 8.66559 13.53028 -0.01378
C 7.40759 12.8517 0.02635
C 7.35919 11.44675 0.0127
C 8.63877 10.70187 0.01396
C 8.64778 9.25073 0.01849
C 7.35584 8.59947 -0.01142
C 7.33918 7.13968 -0.00562
C 8.57714 6.43267 -0.00494
C 8.5584 5.00749 0.00054
C 7.44136 15.65613 0.00848
C 7.36563 4.28547 0.03007
C 8.58018 2.19539 0.01572
C 8.60462 0.79043 -0.04848
C 7.31534 0.04285 -0.00892
C 9.82133 32.78464 -0.01362
C 11.06146 32.05241 -0.0008
C 11.06418 30.56397 0.0288
C 9.82468 29.87965 0.00393
C 9.82644 28.50552 0.00895
C 11.13587 27.82233 0.00685
C 11.04282 26.35193 0.02888
C 7.33657 2.91579 -0.00095
C 7.36179 17.12533 -0.00049
C 8.62671 17.83907 0.00873
C 8.63976 19.22424 0.01227
C 6.15198 9.27273 -0.03996
C 4.97959 8.60516 0.01465
C 4.89964 7.14181 -0.00074
C 6.16655 6.4231 -0.00518
C 6.09218 5.02449 0.0086
C 4.88175 4.32013 -0.00643
C 4.90325 2.91645 0.017
C 6.09493 2.17992 -0.03113
C 6.08651 0.79295 -0.02566
C 4.86581 0.0277 -0.00094
C 7.34405 32.71335 0.02322
C 8.59514 32.01212 -0.00725
C 8.54185 30.61614 -0.05697
C 7.33874 29.82942 0.01087
C 7.38609 28.37115 -0.01343
C 8.60148 27.76281 0.00988
C 8.56263 26.29691 0.0276
C 7.3541 25.59688 0.01305
C 7.39481 24.16939 -0.00077
C 8.6413 23.53035 0.03368
C 8.57067 22.0275 -0.02929
C 7.29717 21.31263 -0.00966
C 7.35613 19.94586 -0.03337
C 9.8191 24.24151 -0.01384
C 17.19111 0.00497 -0.00316
C 19.65619 32.70457 0.02188
C 20.8803 31.95365 -0.01979
C 29.45719 11.31663 -0.02155
C 30.68115 10.62693 -0.00944
C 30.76217 9.22216 -0.03735
C 29.5135 8.41905 -0.00971
C 29.55184 7.11953 0.01518
C 30.74299 6.37207 0.01908
C 30.75199 4.90861 0.07705
C 29.5244 4.25129 0.0103
C 29.47529 2.93809 0.02108
C 30.68826 2.06805 0.00716
C 29.51457 12.77292 -0.01461
C 30.64547 0.72262 0.00307
C 31.92941 32.67677 0.01713
C 33.15223 31.95635 -0.01694
C 33.22161 30.45575 0.01428
C 31.98061 29.77165 -0.02142
C 31.99797 28.42779 0.0544
C 33.22721 27.67246 0.00026
C 33.2367 26.23427 0.00682
C 31.97829 25.54898 -0.01779
C 31.94321 24.15771 0.03794
C 33.18801 23.43347 0.01927
C 29.38967 34.05105 0.00346
C 33.223 22.01528 0.01574
C 30.79773 13.44507 -0.01303
C 29.54031 15.56937 0.01705
C 28.32786 5.00036 0.00235
C 27.01369 4.31746 0.01495
C 27.0613 2.95205 0.01259
C 28.232 2.15948 0.01799
C 28.27934 0.74089 0.01699
C 27.05965 0.04047 -0.00416
C 29.44844 32.6001 0.01177
C 30.70788 31.89835 0.04266
C 30.70645 30.52857 0.01324
C 29.54741 29.85123 0.0014
C 30.77794 14.82766 -0.0405
C 29.52012 28.40679 0.00924
C 30.77778 26.21514 0.00261
C 29.58699 25.58765 0.03265
C 29.47997 24.09097 -0.02049
C 30.7088 23.36551 -0.01854
C 30.64006 21.93725 -0.01415
C 29.49144 21.25891 -0.03039
C 29.45096 19.7903 0.01836
C 30.68534 19.16531 0.03531
C 30.72796 17.69291 -0.00669
C 29.48341 17.03014 0.0101
C 30.76691 27.64893 0.02326
C 31.9718 21.24326 -0.02383
C 31.9296 19.8558 -0.01429
C 33.18236 19.18766 -0.0136
C 1.15224 23.43359 0.00723
C 1.19959 21.9876 0.02712
C 34.40278 21.24597 -0.02213
C 34.38951 19.89112 0.01951
C 1.2713 19.20066 -0.01678
C 1.3077 17.74853 0.01223
C 0.01081 17.13994 0.00648
C 0.03672 15.68351 0.02114
C 1.25395 14.95278 -0.02957
C 1.18042 13.51263 0.00343
C 34.37654 24.13353 0.03076
C 34.36524 12.71827 -0.02656
C 1.08353 10.56348 -0.00027
C 1.18213 9.20071 -0.00583
C 34.40481 8.48178 -0.02302
C 34.33619 7.05919 -0.02849
C 1.14958 6.34613 0.02931
C 1.20116 5.0119 0.00628
C 34.36751 4.2753 -0.0345
C 34.42027 2.83733 -0.00931
C 1.20052 2.12646 -0.00939
C 1.22647 0.68116 -0.00468
C 34.38726 11.33441 -0.02442
C 0.02585 25.56155 -0.05239
C 1.20584 26.21383 -0.00598
C 1.32461 27.62039 -0.00439
C 33.16957 17.7691 0.00594
C 31.9308 17.0408 -0.02474
C 31.97946 15.58602 0.00369
C 33.22532 14.90812 0.00455
C 33.21651 13.481 -0.00644
C 31.98451 12.77163 -0.01839
C 31.92095 11.3207 0.00137
C 33.15644 10.58692 0.00199
C 33.17596 9.20561 0.04381
C 31.94168 8.5345 0.02806
C 31.93672 7.07929 0.01504
C 33.17566 6.3389 -0.00069
C 33.14674 4.92556 0.04926
C 31.91022 4.16837 -0.03838
C 31.94039 2.71151 0.00349
C 33.12407 2.08172 -0.00323
C 33.16276 0.67726 -0.00841
C 31.97931 0.04239 0.0001
C 0.01813 32.64275 -0.02927
C 1.19644 31.89501 -0.01404
C 1.26368 30.47669 0.01027
C 34.43144 29.77055 0.01831
C 0.05506 28.36695 -0.01037
C 28.30084 6.39021 0.01094
C 27.06654 7.00748 0.02198
C 27.06466 8.47231 0.02611
C 28.31074 9.15348 -0.00621
C 23.47123 27.71778 0.0106
C 23.48157 26.34977 -0.01154
C 22.36312 25.36647 -0.01721
C 23.32109 23.52185 -0.02422
C 23.22388 17.65755 0.01277
C 22.19697 15.68432 0.00096
C 23.36966 14.9113 -0.01527
C 23.2717 13.45271 0.01087
C 22.12569 12.77406 0.00199
C 22.09949 11.33636 0.01511
C 22.17291 28.49253 -0.01594
C 23.34455 10.68303 -0.00478
C 22.16839 8.59236 -0.01185
C 22.13334 7.13773 0.01126
C 23.33697 6.45369 0.01852
C 23.42349 4.94466 -0.00381
C 22.06914 4.3219 0.03046
C 22.06094 2.88599 0.0296
C 23.27321 2.18719 0.03374
C 23.31711 0.7532 -0.02845
C 22.13109 34.06117 -0.03213
C 24.62684 32.72322 0.02239
C 23.42827 9.29037 -0.01662
C 22.21479 29.83693 0.00742
C 23.44136 30.593 -0.00311
C 23.40938 31.91567 0.00675
C 20.89946 30.52568 0.02691
C 19.6913 29.79229 -0.01581
C 19.76892 28.34998 0.01452
C 20.98013 27.67942 0.04892
C 21.2402 26.15846 -0.00111
C 19.77807 25.68654 -0.03557
C 19.64125 15.5694 0.03754
C 20.87072 15.0595 0.01739
C 20.8394 13.50264 0.00755
C 19.66822 12.78295 -0.0054
C 19.58325 11.35245 0.00667
C 20.82246 10.67051 0.00143
C 20.88334 9.23503 -0.017
C 19.56401 8.49791 0.00364
C 19.63869 7.06308 -0.00831
C 20.84877 6.42778 -0.02957
C 20.87366 4.99893 -0.04422
C 19.67703 4.30762 0.00654
C 19.64304 2.81962 -0.00703
C 20.85602 2.15418 -0.04076
C 20.84139 0.74591 -0.00652
C 19.62706 0.05011 0.0058
C 22.14539 32.71776 -0.00865
C 25.83971 32.02329 0.01153
C 3.64086 31.99608 0.03345
C 25.82478 30.60912 0.02734
C 24.6311 28.39302 0.01515
C 27.04491 32.69289 -0.01052
C 28.28993 31.91525 -0.01679
C 28.23975 30.48912 0.00367
C 27.05166 29.80791 0.04306
C 27.14671 28.42726 0.00996
C 28.32909 27.72563 0.00195
C 28.27266 26.23493 -0.00802
C 27.07049 25.54707 -0.00218
C 27.00173 24.10663 -0.01654
C 28.20802 23.41381 -0.00037
C 24.57925 0.02876 0.00684
C 28.19731 21.92735 -0.0032
C 27.00115 19.82161 -0.02815
C 28.19851 19.11141 -0.00942
C 28.20895 17.70221 0.00487
C 26.98846 16.99543 0.00826
C 27.02564 15.58727 -0.00294
C 28.27787 14.92778 0.00152
C 28.36554 13.4611 0.01257
C 27.04422 12.77486 0.02316
C 27.09071 11.38236 0.04185
C 28.21168 10.59574 0.00194
C 26.96233 21.20476 0.00622
C 25.84371 0.7139 -0.01154
C 25.82689 2.17759 -0.0264
C 24.61051 2.81082 -0.00938
C 25.88173 27.72625 -0.00225
C 25.93819 26.29347 0.00071
C 24.70281 25.56783 -0.01107
C 24.52493 24.07465 -0.01586
C 25.75756 23.34515 -0.01971
C 25.71706 21.97392 -0.02118
C 24.54573 21.26401 0.00733
C 24.63731 19.86203 -0.00178
C 25.7578 19.11038 0.00768
C 25.75765 17.68703 -0.0276
C 24.46062 16.99762 0.03005
C 24.62931 15.55499 -0.04078
C 25.78652 14.85597 0.02117
C 25.82964 13.49282 0.02737
C 24.56515 12.76365 -0.00498
C 24.60739 11.32579 0.00135
C 25.84907 10.59939 0.03102
C 25.87817 9.26759 0.02555
C 24.61363 8.54163 0.01423
C 24.59001 7.08318 -0.00285
C 25.80606 6.43394 -0.009
C 25.79273 4.98642 -0.01199
C 24.59593 4.21105 -0.00229
C 24.66383 29.90774 -0.0055
C 2.41151 32.64796 -0.00112
