407
Graphene
C 34.39719 34.03721 0.01295
C 12.25488 28.48206 -0.02689
C 13.56576 27.68404 -0.01046
C 13.50232 26.34082 -0.00891
C 12.25749 25.59108 0.02819
C 12.27538 24.13456 0.00165
C 13.49276 23.42862 -0.02971
C 13.61899 21.98936 0.02894
C 12.35896 21.30531 -0.01789
C 12.37709 19.918 0.00444
C 13.5978 19.13258 -0.00925
C 13.55829 17.69793 0.01877
C 12.31999 17.11067 0.01363
C 12.25131 15.66604 -0.02162
C 13.42739 14.84241 0.00415
C 12.2579 7.15267 -0.0014
C 13.50821 6.62742 0.02162
C 13.5125 5.05748 0.0076
C 12.24474 4.41185 0.01241
C 12.1805 2.99942 -0.01454
C 13.38543 2.18099 0.01945
C 13.45959 0.7118 0.01416
C 12.18845 29.88783 -0.01536
C 13.46484 30.58655 0.03101
C 13.4932 32.00447 -0.00428
C 12.22354 32.70268 -0.02245
C 9.74837 24.23436 0.01291
C 11.05173 23.46722 0.00093
C 11.0623 21.97503 0.00057
C 9.8417 21.30487 -0.01634
C 9.86392 19.87783 -0.00334
C 11.06617 19.20359 0.02339
C 11.07594 17.76715 0.01641
C 9.85426 17.09097 -0.00719
C 9.8147 15.65518 0.01364
C 10.99412 15.01 -0.01062
C 12.2021 0.05259 0.03542
C 11.18657 13.51993 -0.00033
C 9.84238 11.38363 -0.02759
C 9.89855 8.68272 0.0402
C 9.82429 7.23876 0.00572
C 10.99981 6.49822 0.03592
C 11.03381 5.06529 0.00406
C 9.74901 4.3164 0.00943
C 9.76925 2.88984 0.02841
C 11.041 2.211 -0.01111
C 11.0713 0.83153 -0.01275
C 9.83528 0.02279 0.00985
C 10.07294 12.75904 0.03589
C 9.88074 25.67028 0.00438
C 14.70435 32.74866 0.02299
C 15.94137 30.48081 -0.01717
C 17.26036 29.84302 0.03505
C 17.25327 28.42919 -0.02815
C 18.46285 27.66045 -0.04147
C 18.45818 26.27921 -0.05302
C 17.20345 25.54163 0.00213
C 17.23489 24.16189 -0.00066
C 18.48336 23.42429 -0.00289
C 18.45886 21.96834 0.00028
C 17.23364 21.27657 -0.02213
C 17.25246 19.80943 0.03698
C 18.51963 19.25741 -0.00109
C 18.38408 17.90938 -0.00491
C 17.17907 17.07655 0.03338
C 17.24836 15.59119 -0.0258
C 18.50156 14.91113 -0.0331
C 18.24823 13.49819 -0.00316
C 18.38123 10.60287 0.02188
C 18.23604 9.25297 -0.01979
C 17.02539 8.42047 0.02691
C 17.09618 7.06526 -0.01581
C 18.38463 6.41229 0.01452
C 18.50267 30.56672 0.01443
C 18.429 31.88558 0.00979
C 17.18605 32.67282 -0.00481
C 14.61166 0.03798 0.00889
C 14.64158 29.85197 0.05265
C 14.74381 28.42495 -0.01952
C 16.01271 27.73275 -0.02813
C 15.97609 26.26768 0.00374
C 14.74553 25.68469 0.00052
C 14.80811 24.21585 -0.03682
C 15.9904 23.39667 0.01965
C 16.03261 21.91045 0.02058
C 14.81228 21.26255 -0.01957
C 14.78245 19.78184 -0.0108
C 15.89347 31.96601 0.00244
C 15.98034 19.02534 -0.00368
C 14.74565 16.89992 -0.00114
C 14.78643 15.34235 0.00228
C 16.05948 14.8055 0.00798
C 14.88752 7.25749 0.00422
C 15.94481 6.28402 0.0351
C 15.99685 4.83034 -0.03113
C 14.78636 4.18928 0.02098
C 14.65389 2.81258 0.01848
C 15.98337 2.16993 -0.00619
C 15.92399 0.72411 -0.02162
C 15.92989 17.58569 -0.02696
C 18.41892 4.98943 0.04892
C 11.08809 26.35527 -0.00191
C 9.75006 28.49518 0.02147
C 2.45832 2.858 0.02379
C 3.63905 2.17485 0.00907
C 3.60197 0.75383 0.00643
C 2.39164 0.06808 -0.01509
C 4.85179 32.69404 0.03267
C 6.02677 32.01865 0.02374
C 6.05378 30.55562 0.00402
C 4.8543 29.83717 0.0073
C 4.86367 28.38845 0.0174
C 6.07537 27.75251 0.03828
C 6.12626 26.28348 0.01226
C 4.83062 25.56419 -0.00279
C 4.80876 24.23701 0.01996
C 5.97212 23.49195 -0.03996
C 6.12862 22.09645 0.01465
C 4.77977 21.36597 -0.00074
C 4.86098 19.93207 -0.00518
C 6.15943 19.23035 0.0086
C 6.09889 17.72879 -0.00643
C 4.83859 17.12575 0.017
C 4.87257 15.74793 -0.03113
C 2.4218 4.24691 0.01402
C 3.59774 5.08107 -0.003
C 3.71372 6.50244 0.00031
C 2.42679 7.21521 0.03189
C 3.62077 30.63667 -0.0059
C 2.43485 29.75303 -0.01386
C 2.38083 28.37112 -0.02805
C 3.63742 27.69806 0.00081
C 3.6094 26.2253 0.00245
C 2.36872 25.63824 0.02728
C 2.35923 24.15972 -0.00039
C 3.57446 23.50147 0.0064
C 3.64084 22.05335 0.00211
C 2.43186 21.28806 -0.00449
C 6.14996 14.97854 -0.02566
C 2.39494 19.84304 -0.01979
C 3.56457 17.81373 -0.01977
C 2.34673 17.10238 -0.00561
C 2.38435 15.59673 0.00208
C 3.69461 14.8377 0.01707
C 3.72991 13.49811 0.02769
C 2.33016 12.82453 -0.03291
C 2.37811 11.37926 -0.04999
C 3.7165 10.71937 0.04505
C 3.72 9.36459 0.03284
C 2.40888 8.60539 -0.04307
C 3.66093 19.20797 0.02784
C 11.0729 27.85123 0.00373
C 6.23802 13.5617 -0.00094
C 4.96589 11.46954 -0.00725
C 7.32968 17.0469 -0.00095
C 7.34095 15.65823 0.01572
C 8.60787 14.84952 -0.04848
C 8.73206 13.49764 -0.00892
C 7.42079 12.84041 -0.01362
C 7.38424 11.43388 -0.0008
C 8.61402 10.70437 0.0288
C 8.60432 9.25485 0.00393
C 7.44243 8.5007 0.00895
C 7.31974 7.12999 0.00685
C 8.56827 6.48568 0.02888
C 8.56073 5.0584 -0.00482
C 7.34501 4.25914 -0.01384
C 7.33274 2.87071 0.03693
C 8.61586 2.10077 0.01745
C 8.56809 0.75684 0.00488
C 7.22766 0.08147 -0.01004
C 9.75206 32.70024 -0.02896
C 10.95564 31.9294 -0.00131
C 10.94255 30.50783 -0.01118
C 9.64355 29.97317 -0.014
C 8.62084 17.80428 0.03007
C 8.61188 19.17741 0.00054
C 7.36252 19.86818 -0.00494
C 7.39152 21.34622 -0.00562
C 6.14325 10.71428 -0.05697
C 6.21572 9.30003 0.01087
C 4.93736 8.65903 -0.01343
C 4.94954 7.23472 0.00988
C 6.0637 6.42457 0.0276
C 6.05992 5.03805 0.01305
C 4.81539 4.3712 -0.00077
C 4.79226 2.96121 0.03368
C 6.0476 2.24701 -0.02929
C 6.0633 0.83298 -0.00966
C 5.01246 12.88996 0.02322
C 4.88559 0.09082 -0.03337
C 8.48939 32.03805 0.00873
C 8.4533 30.67175 -0.00049
C 7.24034 29.90975 0.00848
C 7.34077 28.51113 -0.01303
C 8.50649 27.7502 -0.01378
C 8.55747 26.37436 0.02635
C 7.32956 25.66063 0.0127
C 7.27197 24.21733 0.01396
C 8.51384 23.50815 0.01849
C 8.57723 21.99073 -0.01142
C 7.26291 32.71589 0.01227
C 3.61882 32.02827 0.00558
C 17.22122 4.23495 -0.00111
C 18.47285 2.06962 0.03754
C 29.47485 8.4521 -0.00971
C 29.51773 7.0819 0.01518
C 30.68687 6.38586 0.01908
C 30.69728 4.93005 0.07705
C 29.51314 4.12521 0.0103
C 29.47852 2.79988 0.02108
C 30.65809 2.0802 0.00716
C 30.7502 0.71544 0.00307
C 29.56044 0.02161 0.00346
C 31.86642 32.63679 0.01713
C 33.08453 31.96131 -0.01694
C 33.08943 30.54926 0.01428
C 31.89132 29.72227 -0.02142
C 31.94909 28.32943 0.0544
C 33.1379 27.67752 0.00026
C 33.20753 26.2373 0.00682
C 31.99264 25.50876 -0.01779
C 31.93721 24.08694 0.03794
C 33.16577 23.40691 0.01927
C 33.12467 21.99553 0.01574
C 31.93768 21.2885 -0.02383
C 30.72124 9.2527 -0.03735
C 30.69849 10.65736 -0.00944
C 29.47628 11.31066 -0.02155
C 29.48712 12.69264 -0.01461
C 28.21839 2.07866 0.01799
C 28.28838 0.71285 0.01699
C 27.07117 33.99685 -0.00416
C 29.44462 32.75016 0.01177
C 30.73439 31.93588 0.04266
C 30.66946 30.5082 0.01324
C 29.47405 29.83206 0.0014
C 29.47914 28.38148 0.00924
C 30.74866 27.6567 0.02326
C 30.70541 26.22823 0.00261
C 31.84572 19.81301 -0.01429
C 29.47019 25.51743 0.03265
C 30.74634 23.39046 -0.01854
C 30.69515 21.99189 -0.01415
C 29.46359 21.19478 -0.03039
C 29.31169 19.82556 0.01836
C 30.60058 19.18948 0.03531
C 30.61201 17.70387 -0.00669
C 29.49475 16.86728 0.0101
C 29.41763 15.62374 0.01705
C 30.61785 15.00402 -0.0405
C 30.70581 13.46463 -0.01303
C 29.54264 24.10804 -0.02049
C 26.9661 2.77649 0.01259
C 33.19927 19.2644 -0.0136
C 31.96313 17.01779 -0.02474
C 1.17294 21.99779 0.02712
C 34.37288 21.32281 -0.02213
C 34.40482 19.9433 0.01951
C 1.15313 19.11584 -0.01678
C 1.08097 17.7331 0.01223
C 34.3291 17.03431 0.00648
C 34.34913 15.66224 0.02114
C 1.18991 14.94526 -0.02957
C 1.19427 13.58056 0.00343
C 34.3655 12.81319 -0.02656
C 34.31159 11.42717 -0.02442
C 1.18959 10.71915 -0.00027
C 1.21983 9.20647 -0.00583
C 34.41367 8.40201 -0.02302
C 0.01279 7.00606 -0.02849
C 1.25141 6.37608 0.02931
C 1.24377 4.99512 0.00628
C 34.40197 4.24382 -0.0345
C 34.38487 2.84349 -0.00931
C 1.22166 2.18775 -0.00939
C 1.19247 0.77524 -0.00468
C 1.18144 23.46496 0.00723
C 34.35065 24.12934 0.03076
C 34.41741 25.50741 -0.05239
C 1.15934 26.29725 -0.00598
C 31.9009 15.66477 0.00369
C 33.15425 14.89183 0.00455
C 33.18046 13.47347 -0.00644
C 31.89939 12.7832 -0.01839
C 31.88415 11.37609 0.00137
C 33.11683 10.62207 0.00199
C 33.14301 9.19387 0.04381
C 31.97226 8.53133 0.02806
C 31.92842 7.10499 0.01504
C 33.15555 6.40804 -0.00069
C 33.15246 17.82819 0.00594
C 33.09192 4.95818 0.04926
C 31.92031 2.83266 0.00349
C 33.13845 2.20487 -0.00323
C 33.17243 0.72403 -0.00841
C 31.93105 0.02929 0.0001
C 34.30918 32.62129 -0.02927
C 1.11949 31.95687 -0.01404
C 1.16963 30.51649 0.01027
C 34.42274 29.86409 0.01831
C 34.39289 28.47438 -0.01037
C 1.11251 27.68472 -0.00439
C 31.93376 4.22385 -0.03838
C 17.22217 2.783 -0.03557
C 26.99304 4.2247 0.01495
C 28.37132 6.31342 0.01094
C 19.66039 4.31706 -0.01527
C 19.63375 2.79973 0.01087
C 20.87909 2.15495 0.00199
C 20.86084 0.74193 0.01511
C 19.65367 0.03084 -0.00478
C 22.12403 32.64367 -0.01662
C 23.39855 31.90673 -0.01185
C 23.37831 30.54475 0.01126
C 22.10873 29.84704 0.01852
C 22.18635 28.38627 -0.00381
C 23.32201 27.72498 0.03046
C 23.32448 26.29275 0.0296
C 22.12614 25.53214 0.03374
C 22.13274 24.08591 -0.02845
C 23.37892 23.41199 -0.03213
C 23.37588 21.9972 0.02239
C 22.2169 21.37749 0.01153
C 21.71116 12.77293 0.02734
C 22.06333 11.34899 -0.0055
C 23.24474 10.65654 0.01515
C 23.23468 9.17784 -0.00225
C 20.79689 4.9994 0.00096
C 20.78923 6.44209 0.01277
C 19.53348 7.21353 -0.02422
C 19.4493 8.56481 -0.01721
C 18.44633 0.67289 0.01739
C 17.19419 34.07687 0.00755
C 19.68415 32.61796 -0.0054
C 20.86708 31.95833 0.00667
C 20.92752 30.53104 0.00143
C 19.6885 29.77213 -0.017
C 19.64522 28.36718 0.00364
C 20.92174 27.57837 -0.00831
C 20.86435 26.24657 -0.02957
C 19.6177 25.44014 -0.04422
C 21.98131 8.5038 0.00071
C 19.68042 24.08726 0.00654
C 20.97077 22.03495 -0.04076
C 19.7017 21.28919 -0.00652
C 19.77771 19.95803 0.0058
C 19.54266 16.96104 -0.00865
C 19.78284 15.60781 0.00675
C 20.66167 13.43554 -0.00311
C 19.35559 12.75974 0.00742
C 19.56377 11.38705 -0.01594
C 20.78714 10.68336 0.0106
C 20.70178 9.25824 -0.01154
C 20.98568 23.40192 -0.00703
C 28.31452 4.89123 0.00235
C 22.10098 7.09409 -0.01107
C 23.36414 4.97397 -0.01971
C 25.86974 0.63705 0.00996
C 24.63111 34.04432 0.00195
C 27.06961 32.56378 -0.00802
C 28.30401 31.97474 -0.00218
C 28.27337 30.53437 -0.01654
C 27.03675 29.80418 -0.00037
C 26.99968 28.41572 -0.0032
C 28.22346 27.67271 0.00622
C 28.22801 26.27029 -0.02815
C 26.98637 25.65177 -0.00942
C 26.97374 24.16423 0.00487
C 28.2868 23.43363 0.00826
C 28.31607 21.98888 -0.00294
C 26.9709 21.40339 0.00152
C 28.27415 13.36439 0.01257
C 27.07577 12.59477 0.02316
C 26.92997 11.28064 0.04185
C 28.21567 10.56491 0.00194
C 28.19335 9.12476 -0.00621
C 26.90394 8.45309 0.02611
C 27.06479 7.04828 0.02198
C 25.82661 2.04831 0.04306
C 24.55425 2.76354 0.00367
C 24.62536 4.17211 -0.01679
C 25.79594 4.92329 -0.01052
C 22.14755 4.29273 -0.02118
C 22.1555 2.86947 0.00733
C 23.3532 2.03518 -0.00178
C 23.3822 0.66863 0.00768
C 22.17285 34.06022 -0.0276
C 24.60404 32.59051 0.03005
C 25.83533 31.9419 -0.04078
C 25.81452 30.61466 0.02117
C 24.60333 29.81291 0.02737
C 24.64052 28.36263 -0.00498
C 23.38147 6.45481 -0.01586
C 25.79873 27.68723 0.00135
C 24.6293 25.62367 0.02555
C 24.66884 24.25585 0.01423
C 25.81054 23.43029 -0.00285
C 25.74125 22.01536 -0.009
C 24.47779 11.36414 -0.01199
C 25.62517 10.61446 -0.00229
C 25.70886 9.18527 -0.00938
C 24.42282 8.50155 -0.0264
C 24.59563 7.1351 -0.01154
C 25.83418 6.39051 0.00684
C 25.85861 26.35614 0.03102
C 2.30534 32.70249 -0.02375
