354
Graphene
C 34.29538 34.0781 0.01295
C 10.99178 14.8608 -0.02696
C 11.13299 13.41389 -0.00114
C 9.8824 12.77538 0.00228
C 9.79015 11.42552 0.00798
C 11.07093 10.58838 0.00422
C 11.12904 9.18419 0.0351
C 9.83145 8.56092 -0.03113
C 9.80955 7.12613 0.02098
C 9.87558 15.63594 -0.00368
C 11.03057 6.44549 0.01848
C 9.7006 4.35974 -0.02162
C 9.77084 2.96354 0.00889
C 10.99142 2.15552 -0.00481
C 10.9252 0.77817 0.00979
C 9.79373 34.06018 0.01443
C 12.16993 32.6591 0.03505
C 13.46917 31.97719 -0.02815
C 13.5041 30.47814 -0.04147
C 10.94722 5.09886 -0.00619
C 12.25617 29.85691 -0.05302
C 9.82278 17.02313 -0.0108
C 11.10725 19.28443 0.02058
C 7.36387 4.33861 -0.0014
C 7.38316 2.92158 0.02162
C 8.55019 2.17401 0.0076
C 8.53022 0.72846 0.01241
C 7.27806 0.0491 -0.01454
C 9.66354 32.71619 0.01945
C 10.94601 31.90668 0.01416
C 11.01109 30.54329 0.03542
C 11.07489 17.80155 -0.01957
C 9.76198 29.82644 0.02299
C 11.074 27.64822 -0.01717
C 11.04975 26.16479 0.05265
C 9.8103 25.67595 -0.01952
C 9.86084 24.20921 -0.02813
C 11.08026 23.45713 0.00374
C 11.04736 22.07383 0.00052
C 9.8612 21.28665 -0.03682
C 9.82907 19.82192 0.01965
C 9.7753 28.39112 0.00244
C 8.5679 5.13615 0.00415
C 12.22867 28.44501 0.00213
C 13.44344 26.22879 -0.00289
C 13.49307 2.08338 0.00143
C 13.46304 0.67038 -0.017
C 12.23158 34.01912 0.00364
C 14.71349 32.62047 -0.00831
C 15.91198 31.9 -0.02957
C 15.95834 30.48326 -0.04422
C 14.72221 29.72804 0.00654
C 14.74057 28.40228 -0.00703
C 12.25344 2.81751 0.00667
C 15.95217 27.59275 -0.04076
C 14.74913 25.61807 0.0058
C 14.73187 24.19939 -0.00865
C 15.98065 23.55543 0.00675
C 15.9005 22.05038 -0.00311
C 14.77179 21.24545 0.00742
C 14.86073 19.87532 -0.01594
C 16.04656 19.15238 0.0106
C 15.99661 17.70004 -0.01154
C 15.92248 26.25019 -0.00652
C 13.47952 27.71221 -0.00066
C 12.22305 4.26012 -0.0054
C 13.51472 6.44471 0.01739
C 12.26863 25.47153 0.00028
C 12.31382 24.07982 -0.02213
C 13.57222 23.39124 0.03698
C 13.52538 21.96143 -0.00109
C 12.25627 21.31713 -0.00491
C 12.30391 19.90073 0.03338
C 13.54183 19.25801 -0.0258
C 13.48398 17.84202 -0.0331
C 13.44949 5.00359 0.00755
C 12.30319 17.02306 -0.00316
C 13.44362 14.98312 -0.01979
C 13.47624 13.47344 0.02691
C 12.25839 12.73894 -0.01581
C 12.27355 11.33597 0.01452
C 13.47827 10.62042 0.04892
C 13.55922 9.22665 -0.00111
C 12.42227 8.50849 -0.03557
C 12.2635 7.15728 0.03754
C 12.25207 15.59657 0.02188
C 8.51923 6.48491 -0.02162
C 7.27545 7.14867 0.01363
C 7.35076 8.55046 0.01877
C 2.43574 7.14757 0.00054
C 3.66438 6.43602 0.03007
C 3.58584 5.00368 -0.00095
C 2.36623 4.32245 0.01572
C 2.4144 2.92567 -0.04848
C 3.53682 2.16334 -0.00892
C 3.62622 0.71297 -0.01362
C 2.36728 0.05888 -0.0008
C 2.4147 8.51396 -0.00494
C 4.89668 32.73363 0.0288
C 6.03268 30.62493 0.00895
C 4.8631 29.90849 0.00685
C 4.92082 28.41954 0.02888
C 6.20198 27.68698 -0.00482
C 6.16012 26.28645 -0.01384
C 4.86326 25.64196 0.03693
C 4.87536 24.13539 0.01745
C 6.13518 23.47724 0.00488
C 6.11684 32.0303 0.00393
C 6.17539 21.96879 -0.01004
C 3.65864 9.2688 -0.00562
C 2.45734 11.33539 0.01849
C 3.5688 30.56015 -0.01343
C 2.40086 29.82907 0.00988
C 2.40978 28.40958 0.0276
C 3.67136 27.76108 0.01305
C 3.68249 26.4126 -0.00077
C 2.42021 25.64511 0.03368
C 2.39952 24.20725 -0.02929
C 3.61578 23.47343 -0.00966
C 3.68563 10.70929 -0.01142
C 3.72928 22.09318 -0.03337
C 2.39071 19.91927 0.00873
C 3.60634 19.14467 -0.00049
C 3.60542 17.75338 0.00848
C 2.34352 17.12335 -0.01303
C 2.32507 15.6873 -0.01378
C 3.62881 14.99358 0.02635
C 3.56267 13.55938 0.0127
C 2.42017 12.88539 0.01396
C 2.49619 21.3693 0.01227
C 4.90019 21.32452 -0.02896
C 4.83731 19.91637 -0.00131
C 6.09249 19.1301 -0.01118
C 8.5718 27.76284 0.02841
C 8.5703 26.29735 -0.01111
C 7.35666 25.55929 -0.01275
C 7.37401 24.11039 0.00985
C 8.67138 23.41917 -0.02245
C 8.65283 21.98421 -0.00428
C 7.42655 21.29661 0.03101
C 7.34842 19.92843 -0.01536
C 7.35025 28.53069 0.00943
C 8.59043 19.18609 -0.02689
C 7.28448 16.99238 -0.00891
C 7.34508 15.63449 0.02819
C 8.55174 14.93661 0.00165
C 8.58246 13.52883 -0.02971
C 7.34647 12.75055 0.02894
C 7.32881 11.37814 -0.01789
C 8.54689 10.6811 0.00444
C 8.59215 9.26002 -0.00925
C 8.56473 17.8367 -0.01046
C 7.28053 29.97676 0.00406
C 8.55702 30.62766 0.03592
C 8.51336 32.05017 0.00572
C 6.08028 17.7409 -0.014
C 4.89695 16.98901 0.02147
C 4.80326 15.65857 0.00373
C 6.00339 14.89716 -0.00191
C 6.03757 13.47929 0.00438
C 4.80543 12.76691 0.01291
C 4.91851 11.38723 0.00093
C 6.09829 10.6627 0.00057
C 6.16868 9.2668 -0.01634
C 4.90141 8.62702 -0.00334
C 4.89723 7.15024 0.02339
C 6.11056 6.40112 0.01641
C 6.09029 4.98765 -0.00719
C 4.89865 4.26696 0.01364
C 4.80027 2.86745 -0.01062
C 6.03178 2.2336 -0.00033
C 6.13746 0.83134 0.03589
C 4.81769 0.06062 -0.02759
C 7.31196 32.74807 0.0402
C 14.71429 17.10002 -0.01721
C 14.79672 15.64511 -0.02422
C 15.88251 14.92273 0.01277
C 15.92026 13.55886 0.00096
C 29.55219 24.04308 0.01713
C 30.80519 23.37827 -0.01694
C 30.94317 21.92359 0.01428
C 30.87729 6.39689 -0.02142
C 30.7294 5.08134 0.0544
C 29.55305 4.34189 0.00026
C 29.49896 2.89698 0.00682
C 30.69429 2.1852 -0.01779
C 29.48312 25.45482 0.00346
C 30.73174 0.76213 0.03794
C 31.88261 32.6735 0.01574
C 33.13917 31.9638 -0.02383
C 33.17052 30.55387 -0.01429
C 31.91983 29.81817 -0.0136
C 31.93485 28.47103 0.00594
C 33.10702 27.65276 -0.02474
C 33.09841 26.33797 0.00369
C 31.88957 25.54494 0.00455
C 29.46295 0.1349 0.01927
C 31.95437 24.15054 -0.00644
C 30.68097 26.18354 0.00307
C 29.40933 28.34723 0.02108
C 28.1948 30.43134 -0.01415
C 26.99303 29.71698 -0.03039
C 27.02632 28.31516 0.01836
C 28.23996 27.59916 0.03531
C 28.31505 26.13754 -0.00669
C 27.05079 25.47507 0.0101
C 27.137 23.9961 0.01705
C 28.28702 23.26868 -0.0405
C 30.68386 27.62414 0.00716
C 28.39401 5.0914 -0.01303
C 27.05036 2.90956 -0.02155
C 28.29271 2.1725 -0.00944
C 28.26833 0.7195 -0.03735
C 27.12192 34.05445 -0.00971
C 29.44243 32.6914 0.01518
C 30.66843 32.00847 0.01908
C 30.65057 30.54718 0.07705
C 29.45336 29.80294 0.0103
C 27.21045 4.40842 -0.01461
C 33.1582 23.48061 -0.01839
C 33.2401 22.10327 0.00137
C 32.0561 21.27152 0.00199
C 1.14932 19.31793 -0.01678
C 1.14664 17.90417 0.01223
C 0.02507 17.18 0.00648
C 34.4083 15.83373 0.02114
C 1.09509 14.87427 -0.02957
C 1.06401 13.45381 0.00343
C 0.00754 12.51993 -0.02656
C 34.40597 11.18163 -0.02442
C 34.18571 19.93612 0.01951
C 1.21421 10.70418 -0.00027
C 34.32861 8.54626 -0.02302
C 34.33107 7.08692 -0.02849
C 1.24251 6.44933 0.02931
C 1.13972 5.10051 0.00628
C 0.02488 4.30192 -0.0345
C 34.34838 2.86411 -0.00931
C 1.13471 2.12701 -0.00939
C 1.11294 0.72433 -0.00468
C 1.1586 9.21617 -0.00583
C 0.02113 21.43307 -0.02213
C 1.27586 22.08456 0.02712
C 1.17441 23.48667 0.00723
C 32.89307 19.49063 0.04381
C 33.22387 9.37283 0.02806
C 31.97845 7.18949 0.01504
C 33.13406 6.3963 -0.00069
C 33.24176 4.98191 0.04926
C 31.96679 4.29209 -0.03838
C 31.93798 2.86265 0.00349
C 33.13627 2.13457 -0.00323
C 33.13298 0.7616 -0.00841
C 31.86204 0.02445 0.0001
C 34.40728 32.69966 -0.02927
C 1.20814 32.01716 -0.01404
C 1.18557 30.61562 0.01027
C 34.41208 29.78936 0.01831
C 34.40335 28.37157 -0.01037
C 1.17561 27.69548 -0.00439
C 1.14213 26.31302 -0.00598
C 34.30929 25.589 -0.05239
C 34.38493 24.11031 0.03076
C 28.25945 32.0131 -0.01854
C 3.661 32.03878 0.01087
C 27.03267 32.72578 -0.02049
C 25.86451 0.78281 0.00261
C 18.43539 23.47158 -0.01107
C 18.46218 22.00403 -0.01586
C 17.17102 21.35002 -0.01971
C 17.21561 19.86669 -0.02118
C 17.14413 8.42449 0.00733
C 17.14077 7.09995 -0.00178
C 18.39775 6.3479 0.00768
C 18.44707 4.87243 -0.0276
C 17.23773 24.18279 0.00071
C 17.19566 4.21924 0.03005
C 18.43093 2.11297 0.02117
C 18.3852 0.70241 0.02737
C 17.13729 33.98219 -0.00498
C 19.63517 32.58937 0.00135
C 20.8922 31.93717 0.03102
C 20.8803 30.56572 0.02555
C 19.60549 29.80881 0.01423
C 19.71018 28.38403 -0.00285
C 17.28145 2.88413 -0.04078
C 20.97395 27.67269 -0.009
C 17.19537 25.5518 -0.00225
C 18.50348 27.74913 -0.0055
C 14.78062 12.75225 -0.01527
C 14.69857 11.33483 0.01087
C 15.9396 10.66671 0.00199
C 16.05278 9.27765 0.01511
C 14.77517 8.5318 -0.00478
C 14.72115 7.1713 -0.01662
C 15.88583 6.39598 -0.01185
C 15.93688 4.98259 0.01126
C 18.47975 26.2498 0.01515
C 14.67254 4.23715 0.01852
C 16.02713 2.08776 0.03046
C 15.99449 0.69274 0.0296
C 14.77056 0.01964 0.03374
C 17.14519 32.62986 -0.02845
C 18.45198 31.85991 -0.03213
C 18.35701 30.50537 0.02239
C 17.18222 29.8386 0.01153
C 17.27052 28.40608 0.02734
C 14.84424 2.82671 -0.00381
C 20.91645 26.27518 -0.01199
C 19.70714 25.57418 -0.00229
C 19.63373 24.22159 -0.00938
C 22.09141 2.74196 0.04185
C 23.36062 2.12718 0.00194
C 23.36365 0.72164 -0.00621
C 22.13374 0.00689 0.02611
C 24.66714 32.68171 0.02198
C 25.88729 31.93026 0.01094
C 25.75789 30.53231 0.00235
C 24.53314 29.81193 0.01495
C 22.15796 4.15382 0.02316
C 24.65647 28.38425 0.01259
C 25.83386 26.17117 0.01699
C 24.61981 25.4674 -0.00416
C 24.57763 24.01353 0.01177
C 25.90322 23.47267 0.04266
C 25.97865 5.01128 0.01324
C 24.63936 4.37703 0.0014
C 24.55839 2.89904 0.00924
C 25.80054 2.20329 0.02326
C 25.83 27.6068 0.01799
C 23.33726 4.89842 0.01257
C 23.32335 23.3862 0.00152
C 22.15518 24.20193 -0.00294
C 20.90719 23.44321 -0.0264
C 20.90016 22.10079 -0.01154
C 19.62834 21.3039 0.00684
C 19.52281 6.99322 -0.01052
C 20.78284 6.292 -0.01679
C 20.88739 4.978 0.00367
C 19.713 4.11613 0.04306
C 19.62729 2.75173 0.00996
C 20.8417 2.01367 0.00195
C 20.86213 0.60956 -0.00802
C 19.61468 34.00202 -0.00218
C 22.23986 32.68431 -0.01654
C 23.37263 31.93482 -0.00037
C 23.39028 30.52709 -0.0032
C 21.99071 29.76183 0.00622
C 22.22964 28.32878 -0.02815
C 23.44872 27.69316 -0.00942
C 23.42459 26.25383 0.00487
C 22.24745 25.6257 0.00826
C 24.66996 0.01779 0.03265
C 2.40689 32.73643 -0.05697
