370
Graphene
C 34.34099 0.03947 0.01295
C 13.2907 22.14284 0.05265
C 12.25558 21.2929 -0.01952
C 12.25444 19.84596 -0.02813
C 13.54036 19.14757 0.00374
C 13.67841 17.69789 0.00052
C 12.33587 17.05159 -0.03682
C 12.19549 15.65668 0.01965
C 12.21298 4.18279 0.02058
C 12.34756 2.83757 -0.01957
C 13.60499 2.06416 -0.0108
C 13.4898 0.6131 -0.00368
C 12.26862 34.04582 -0.02696
C 14.76423 32.65078 -0.00114
C 15.94021 31.90082 0.00228
C 15.98474 30.4443 0.00798
C 14.72026 29.8129 0.00422
C 14.64058 28.42491 0.0351
C 15.91481 27.64938 -0.03113
C 15.92643 26.26842 0.02098
C 13.2805 23.50898 -0.01717
C 14.72869 25.58356 0.01848
C 11.96912 24.22305 0.00244
C 13.41845 26.22578 0.03542
C 9.84836 17.09794 -0.00891
C 9.76868 15.69856 0.02819
C 11.00633 14.96639 0.00165
C 9.77972 12.97089 -0.02971
C 9.78068 11.55034 0.02894
C 9.86702 8.55982 -0.01789
C 9.8111 7.14531 0.00444
C 11.01669 4.87942 -0.00925
C 9.8595 4.21055 0.01877
C 9.90324 2.87691 0.01363
C 11.12265 2.08622 -0.02162
C 11.11511 0.65993 0.00415
C 9.81296 34.07404 -0.0014
C 12.23838 32.62771 0.02162
C 13.47947 32.01156 0.0076
C 13.51985 30.57198 0.01241
C 12.29818 29.73938 -0.01454
C 12.25426 28.32075 0.01945
C 13.41438 27.63684 0.01416
C 12.13024 25.61474 0.02299
C 11.01913 17.79399 -0.01046
C 14.58029 24.14382 -0.00619
C 15.87166 22.02747 0.00889
C 18.25831 17.78218 0.01452
C 17.2332 2.78434 0.04892
C 18.51343 2.22693 -0.00111
C 18.54872 0.77495 -0.03557
C 17.24549 0.03622 0.03754
C 19.61597 32.70454 0.01739
C 20.84213 31.89303 0.00755
C 20.88261 30.40404 -0.0054
C 19.6862 29.75592 0.00667
C 19.62776 28.27721 0.00143
C 20.85411 27.69077 -0.017
C 20.88797 26.19429 0.00364
C 19.6516 25.45534 -0.00831
C 19.66275 24.0634 -0.02957
C 20.94451 23.32294 -0.04422
C 20.92466 21.9306 0.00654
C 19.69489 21.30724 -0.00703
C 19.61129 19.86029 -0.04076
C 20.86362 19.10841 -0.00652
C 18.36772 19.18631 -0.01581
C 15.95291 23.44289 -0.02162
C 17.19723 19.95736 0.02691
C 18.44022 22.04399 0.02188
C 14.65013 21.40218 -0.00481
C 14.69707 20.00845 0.00979
C 15.97153 19.28235 0.01443
C 16.11837 17.8991 0.03505
C 14.98682 17.22833 -0.02815
C 14.68344 2.84382 -0.04147
C 15.97992 2.25791 -0.05302
C 15.98161 0.74157 0.00213
C 14.76876 34.05952 -0.00066
C 17.15595 32.65814 -0.00289
C 18.34224 31.93668 0.00028
C 18.48146 30.45619 -0.02213
C 17.21675 29.76419 0.03698
C 17.17866 28.28405 -0.00109
C 18.44361 27.55054 -0.00491
C 18.42242 26.1082 0.03338
C 17.11875 25.51557 -0.0258
C 17.10855 24.21458 -0.0331
C 18.43467 23.4817 -0.00316
C 17.15213 21.4659 -0.01979
C 11.07437 19.24 -0.02689
C 9.80956 19.95326 -0.01536
C 9.80449 21.31642 0.03101
C 3.63305 0.84709 -0.00966
C 2.45665 0.02577 -0.03337
C 4.4145 32.76883 0.01227
C 5.88353 31.97822 0.00873
C 6.0637 30.47934 -0.00049
C 6.81317 27.46459 0.00848
C 5.43505 26.75478 -0.01303
C 4.8737 25.51282 -0.01378
C 5.13385 24.01504 0.02635
C 6.41135 23.2718 0.0127
C 6.15126 21.99562 0.01396
C 4.85389 21.37988 0.01849
C 4.8601 19.92302 -0.01142
C 6.08225 19.25602 -0.00562
C 6.12468 17.8266 -0.00494
C 4.94399 17.05632 0.00054
C 4.9382 15.69309 0.03007
C 6.15066 14.9467 -0.00095
C 6.10647 13.50633 0.01572
C 3.67408 2.23392 -0.02929
C 4.91508 12.87046 -0.04848
C 2.47453 2.98024 0.03368
C 3.69582 5.11033 0.01305
C 2.45372 25.75551 -0.00279
C 2.48168 24.29312 0.01996
C 3.76379 23.44909 -0.03996
C 3.63999 22.06565 0.01465
C 2.44891 21.36832 -0.00074
C 2.39577 19.87063 -0.00518
C 3.63006 19.19837 0.0086
C 3.66711 17.72116 -0.00643
C 2.42152 17.09221 0.017
C 2.40274 15.7196 -0.03113
C 3.76254 15.02654 -0.02566
C 3.65077 13.59639 -0.00094
C 2.44525 12.93672 0.02322
C 2.42029 11.42626 -0.00725
C 3.75166 10.6967 -0.05697
C 3.81497 9.30889 0.01087
C 2.42074 8.68393 -0.01343
C 2.47041 7.24748 0.00988
C 3.71901 6.48755 0.0276
C 2.45067 4.3688 -0.00077
C 4.91144 11.43419 -0.00892
C 6.22639 10.73632 -0.01362
C 6.23125 9.34951 -0.0008
C 7.39461 12.88313 0.02339
C 7.41931 11.43092 0.01641
C 8.68666 10.78601 -0.00719
C 8.75539 9.30975 0.01364
C 7.40474 8.60021 -0.01062
C 7.45117 7.20358 -0.00033
C 8.7124 6.42253 0.03589
C 8.65122 5.01225 -0.02759
C 7.35102 4.32065 0.0402
C 7.45285 2.98051 0.00572
C 8.6558 2.15625 0.03592
C 8.5993 0.72765 0.00406
C 7.33492 34.06074 0.00943
C 9.7701 32.6756 0.02841
C 11.03278 31.94217 -0.01111
C 11.14619 30.47209 -0.01275
C 9.95016 29.86714 0.00985
C 10.83837 23.3732 -0.02245
C 10.96012 22.02478 -0.00428
C 8.58911 13.58889 -0.00334
C 8.57652 15.0204 -0.01634
C 7.26777 15.75799 0.00057
C 7.34257 17.13892 0.00093
C 4.98979 8.59296 0.0288
C 4.97385 7.19412 0.00393
C 6.13157 6.49152 0.00895
C 6.14092 5.03019 0.00685
C 4.9243 4.34946 0.02888
C 4.97283 2.92829 -0.00482
C 6.24849 2.12675 -0.01384
C 6.14933 0.65646 0.03693
C 4.83725 0.10112 0.01745
C 20.70787 17.73402 0.0058
C 7.25217 32.59847 0.00488
C 8.7571 30.57326 -0.02896
C 7.33826 29.92305 -0.00131
C 6.52398 28.84648 -0.01118
C 8.25128 23.39888 -0.014
C 8.53277 22.07192 0.02147
C 7.35381 21.22564 0.00373
C 7.38823 19.77815 -0.00191
C 8.6271 19.20511 0.00438
C 8.6042 17.83445 0.01291
C 8.56437 32.05928 -0.01004
C 19.44203 17.18841 -0.00865
C 19.83304 2.91944 0.00675
C 20.893 1.98212 -0.00311
C 30.6747 6.49726 0.00716
C 30.70367 5.06878 0.00307
C 29.46562 4.28234 0.00346
C 29.41302 2.86419 0.01713
C 30.65706 2.14439 -0.01694
C 30.69094 0.69736 0.01428
C 29.45296 0.05951 -0.02142
C 31.94628 32.64797 0.0544
C 33.27024 32.03586 0.00026
C 33.26001 30.56211 0.00682
C 31.98184 29.88745 -0.01779
C 32.03298 28.44671 0.03794
C 33.20088 27.70778 0.01927
C 33.14519 26.31116 0.01574
C 31.95172 25.47104 -0.02383
C 32.03158 24.06084 -0.01429
C 33.26459 23.41161 -0.0136
C 33.2707 22.0146 0.00594
C 32.03236 21.24551 -0.02474
C 29.4156 7.14055 0.02108
C 31.9614 19.79552 0.00369
C 29.45279 8.638 0.0103
C 30.68109 10.77467 0.01908
C 30.74427 31.96416 0.00261
C 30.65936 30.54507 0.03265
C 29.4493 29.79583 -0.02049
C 29.55185 28.39301 -0.01854
C 30.83052 27.7486 -0.01415
C 30.73827 26.32183 -0.03039
C 29.54864 25.62352 0.01836
C 29.57591 24.09484 0.03531
C 30.81686 23.37388 -0.00669
C 30.78644 21.92889 0.0101
C 29.56822 21.15344 0.01705
C 29.57661 19.67915 -0.0405
C 30.81046 18.85387 -0.01303
C 30.98094 17.37744 -0.01461
C 29.68625 16.58668 -0.02155
C 29.58584 15.11821 -0.00944
C 30.31156 13.82449 -0.03735
C 29.30436 12.79674 -0.00971
C 29.4192 11.39833 0.01518
C 30.66622 9.39925 0.07705
C 33.22658 19.06826 0.00455
C 33.29063 17.69956 -0.00644
C 32.32963 16.74233 -0.01839
C 34.40721 19.86102 0.01951
C 1.16602 19.26068 -0.01678
C 1.28915 17.90054 0.01223
C 0.12891 17.18592 0.00648
C 34.41989 15.802 0.02114
C 1.17242 15.00235 -0.02957
C 1.06746 13.53476 0.00343
C 34.19203 13.05156 -0.02656
C 34.2293 11.54189 -0.02442
C 1.12591 10.82738 -0.00027
C 1.15176 9.43282 -0.00583
C 34.38716 8.63412 -0.02302
C 34.43244 7.12897 -0.02849
C 1.2194 6.43687 0.02931
C 1.22634 5.05112 0.00628
C 0.00836 4.3019 -0.0345
C 34.37751 2.91607 -0.00931
C 1.14364 2.15774 -0.00939
C 1.20423 0.81202 -0.00468
C 0.04266 21.29606 -0.02213
C 1.24265 22.02937 0.02712
C 1.22178 23.51686 0.00723
C 0.05486 24.23348 0.03076
C 33.01406 15.51556 0.00137
C 32.9604 13.97754 0.00199
C 31.69935 13.22101 0.04381
C 31.82467 11.65461 0.02806
C 33.06481 10.78943 0.01504
C 33.08614 9.3555 -0.00069
C 31.89462 8.63032 0.04926
C 31.95103 7.14251 -0.03838
C 33.23351 6.40794 0.00349
C 29.46757 32.72037 0.02326
C 33.24583 5.02477 -0.00323
C 31.89855 2.92527 0.0001
C 33.16933 2.15935 -0.02927
C 33.12828 0.74487 -0.01404
C 31.94638 0.04446 0.01027
C 0.03563 32.75758 0.01831
C 0.01125 29.74674 -0.01037
C 0.03176 28.4268 -0.00439
C 1.18439 26.40346 -0.00598
C 0.03033 25.62714 -0.05239
C 31.96759 4.37667 -0.00841
C 3.86456 26.32815 0.01226
C 26.98452 34.06955 0.00924
C 28.21878 2.14839 0.01324
C 21.95436 4.0795 0.02239
C 22.16574 2.76592 0.01153
C 23.46061 2.05373 0.02734
C 23.43218 0.58588 -0.0055
C 22.1117 33.97197 0.01515
C 24.53336 32.60557 -0.00225
C 25.74211 31.86937 0.00071
C 25.8334 30.46788 -0.01107
C 24.58547 29.7199 -0.01586
C 24.59143 28.26573 -0.01971
C 25.88148 27.5045 -0.02118
C 25.7483 26.11375 0.00733
C 24.54605 25.46246 -0.00178
C 24.62199 24.05203 0.00768
C 25.89938 23.3281 -0.0276
C 25.86146 21.92706 0.03005
C 24.64875 21.21914 -0.04078
C 24.56535 19.79941 0.02117
C 25.75445 19.07486 0.02737
C 23.15816 4.99435 -0.03213
C 25.71416 17.57597 -0.00498
C 23.25983 6.37892 -0.02845
C 23.15345 14.87443 0.0296
C 20.9167 0.61953 0.00742
C 19.72767 34.07637 -0.01594
C 22.03913 32.61926 0.0106
C 23.27298 31.89354 -0.01154
C 23.36969 30.37237 -0.01721
C 22.09331 29.7119 -0.02422
C 22.08282 28.31083 0.01277
C 23.31959 27.5539 0.00096
C 23.36268 26.14457 -0.01527
C 22.14191 25.48502 0.01087
C 22.12351 24.05672 0.00199
C 23.43048 23.25919 0.01511
C 23.34097 21.85504 -0.00478
C 22.13021 21.18098 -0.01662
C 22.11911 19.81285 -0.01185
C 23.26977 19.12378 0.01126
C 23.28624 17.71376 0.01852
C 21.96719 16.98418 -0.00381
C 21.91452 15.59724 0.03046
C 23.3676 13.52985 0.03374
C 24.48536 16.97703 0.00135
C 24.45007 15.62873 0.03102
C 25.64873 14.88811 0.02555
C 28.37537 21.8575 0.00826
C 27.14216 21.14556 -0.00294
C 27.143 19.72128 0.00152
C 28.37061 18.95581 0.01257
C 28.5312 17.48221 0.02316
C 27.06081 16.92101 0.04185
C 26.91624 15.46317 0.00194
C 28.12632 14.78513 -0.00621
C 28.05158 13.38873 0.02611
C 26.88723 12.66575 0.02198
C 26.91957 11.26603 0.01094
C 28.18477 10.59079 0.00235
C 28.23423 9.23815 0.01495
C 26.98106 8.53713 0.01259
C 26.99261 7.10248 0.01799
C 28.21641 6.43223 0.01699
C 28.24394 4.93186 -0.00416
C 26.92229 4.36263 0.01177
C 26.91781 2.9126 0.04266
C 28.45515 23.3425 0.00487
C 27.11253 24.02878 -0.00942
C 27.05935 25.48755 -0.02815
C 28.2194 26.26641 0.00622
C 25.66653 13.40072 0.01423
C 24.39346 12.65698 -0.00285
C 24.4744 11.15037 -0.009
C 25.74512 10.57602 -0.01199
C 25.82446 9.20042 -0.00229
C 24.6035 8.60595 -0.00938
C 24.37447 7.24638 -0.0264
C 25.64971 6.49087 -0.01154
C 25.59701 5.08434 0.00684
C 28.24244 0.72563 0.0014
C 24.39167 4.31911 -0.01052
C 25.76821 2.13738 0.00367
C 25.74967 0.65238 0.04306
C 24.56898 34.01202 0.00996
C 26.94194 32.58336 0.00195
C 28.23538 31.92755 -0.00802
C 28.26114 30.50546 -0.00218
C 27.07324 29.76383 -0.01654
C 27.06197 28.38514 -0.00037
C 28.35047 27.68897 -0.0032
C 24.52277 2.85752 -0.01679
C 2.88025 32.85771 0.03828
