376
Graphene
C 34.39077 0.02458 0.01295
C 12.21894 2.92219 0.03542
C 13.43424 2.18852 0.02299
C 13.5334 0.72377 0.00244
C 12.23811 0.0334 -0.01717
C 14.75111 32.7079 0.05265
C 15.90657 32.03452 -0.01952
C 16.00313 30.59231 -0.02813
C 14.82552 29.85801 0.00374
C 14.80884 28.31501 0.00052
C 16.06788 27.63132 -0.03682
C 16.08828 26.228 0.01965
C 14.84623 25.52459 0.02058
C 14.53585 20.23158 -0.01957
C 15.93393 9.14555 -0.0108
C 14.81658 8.50423 -0.00368
C 14.66202 7.13662 -0.02696
C 15.88871 6.41301 -0.00114
C 15.90977 5.01719 0.00228
C 14.7654 4.23175 0.00798
C 12.20648 4.43455 0.01416
C 13.52952 5.05058 0.01945
C 13.52658 6.41891 -0.01454
C 12.31203 7.16766 0.01241
C 9.69542 7.23109 -0.00428
C 11.05398 6.71507 0.03101
C 11.0325 5.17261 -0.01536
C 9.8248 4.29571 -0.02689
C 9.78689 2.88797 -0.01046
C 10.95844 2.1936 -0.00891
C 10.98724 0.73543 0.02819
C 9.82564 34.06207 0.00165
C 12.33504 32.71702 -0.02971
C 14.68964 2.87919 0.00422
C 13.51607 31.95546 0.02894
C 12.29869 29.85158 0.00444
C 12.37289 28.34289 -0.00925
C 13.63328 27.56469 0.01877
C 13.63274 26.08724 0.01363
C 12.36155 25.40705 -0.02162
C 12.33275 24.0497 0.00415
C 13.62131 23.37776 -0.0014
C 13.62201 21.90898 0.02162
C 12.42726 21.17064 0.0076
C 13.58441 30.54832 -0.01789
C 9.70669 21.3438 -0.02245
C 16.02034 2.17413 0.0351
C 14.71631 0.05457 0.02098
C 20.84152 30.44112 -0.01979
C 19.61175 29.73124 0.02691
C 19.66354 28.22747 -0.01581
C 20.96348 27.67995 0.01452
C 20.93805 17.68163 0.04892
C 19.67259 17.07886 -0.00111
C 19.72049 15.6556 -0.03557
C 20.88431 14.85969 0.03754
C 20.90512 13.48941 0.01739
C 19.66998 12.72123 0.00755
C 19.70459 11.35471 -0.0054
C 20.87477 10.67502 0.00667
C 20.85327 9.19009 0.00143
C 19.6413 8.42359 -0.017
C 19.59106 7.04882 0.00364
C 20.84496 6.36222 -0.00831
C 20.8129 4.93108 -0.02957
C 19.61233 4.2421 -0.04422
C 19.66214 2.80677 0.00654
C 20.8356 31.86501 0.02188
C 19.59803 32.65943 -0.00316
C 17.15809 0.01116 -0.0331
C 18.40952 0.72678 -0.0258
C 17.15863 32.64283 0.01848
C 18.38931 31.92413 -0.00619
C 18.40372 30.48197 -0.02162
C 17.17982 29.81364 0.00889
C 17.19392 28.40152 -0.00481
C 18.37488 27.68606 0.00979
C 18.16749 17.39102 0.01443
C 16.92192 16.96006 0.03505
C 18.61616 14.77372 -0.02815
C 16.00311 0.7449 -0.03113
C 18.49137 13.49435 -0.04147
C 18.41144 10.63642 0.00213
C 18.46721 9.17921 -0.00066
C 17.22834 8.48939 -0.00289
C 17.15184 7.05814 0.00028
C 18.37917 6.32958 -0.02213
C 18.44659 4.91771 0.03698
C 17.19594 4.31021 -0.00109
C 17.20197 2.86041 -0.00491
C 18.3726 2.14444 0.03338
C 17.12974 11.32987 -0.05302
C 20.88184 2.10302 -0.00703
C 11.09745 21.78719 0.00985
C 9.94452 24.14681 -0.01111
C 3.6375 5.00373 0.0276
C 2.44831 4.29024 0.01305
C 2.37989 2.87998 -0.00077
C 3.66436 2.15463 0.03368
C 3.63936 0.76728 -0.02929
C 2.39206 0.01932 -0.00966
C 4.85802 32.70418 -0.03337
C 6.10049 32.02964 0.01227
C 6.09236 30.60219 0.00873
C 4.80482 29.85023 -0.00049
C 4.84235 28.44784 0.00848
C 6.14596 27.71542 -0.01303
C 6.11952 26.36629 -0.01378
C 4.88503 25.60792 0.02635
C 4.86878 24.15593 0.0127
C 6.12075 23.52565 0.01396
C 6.08437 22.12873 0.01849
C 4.91678 21.32119 -0.01142
C 5.0126 19.87003 -0.00562
C 3.62689 6.42535 0.00988
C 2.40669 7.06084 -0.01343
C 2.46932 8.61956 0.01087
C 3.72573 9.38441 -0.05697
C 3.61469 30.54813 0.02374
C 2.35564 29.86911 0.00402
C 2.44368 28.43182 0.0073
C 3.64111 27.76484 0.0174
C 3.61442 26.28808 0.03828
C 2.46929 25.54403 0.01226
C 2.38236 24.15322 -0.00279
C 3.65342 23.39349 0.01996
C 3.66562 21.99161 -0.03996
C 6.31081 19.16012 -0.00494
C 2.40787 21.3377 0.01465
C 3.79796 19.14802 -0.00518
C 3.81779 17.68701 0.0086
C 2.48283 17.06192 -0.00643
C 2.44999 15.74942 0.017
C 3.66106 14.97785 -0.03113
C 3.64271 13.591 -0.02566
C 2.40199 12.82713 -0.00094
C 2.4613 11.39225 0.02322
C 3.81082 10.79174 -0.00725
C 2.43651 19.89017 -0.00074
C 11.13395 23.31381 -0.01275
C 6.17038 17.84011 0.00054
C 4.91815 15.59416 -0.00095
C 7.27947 21.4729 0.01291
C 7.4398 20.10666 0.00093
C 7.22206 8.45374 0.00057
C 7.28524 7.11023 -0.01634
C 8.578 6.44801 -0.00334
C 8.59009 5.03616 0.02339
C 7.35669 4.26843 0.01641
C 7.37831 2.89287 -0.00719
C 8.54974 2.153 0.01364
C 8.58736 0.70652 -0.01062
C 7.34324 0.0344 -0.00033
C 9.8306 32.64466 0.03589
C 11.08619 31.98466 -0.02759
C 11.12016 30.59934 0.0402
C 9.88021 29.89161 0.00572
C 9.87497 28.47661 0.03592
C 11.1264 27.73121 0.00406
C 11.19369 26.2679 0.00943
C 9.93264 25.61077 0.02841
C 8.6087 22.1598 0.00438
C 8.66042 23.56044 -0.00191
C 7.41837 24.26978 0.00373
C 7.3976 25.64461 0.02147
C 4.90574 13.05838 0.01572
C 5.00679 11.56302 -0.04848
C 6.21619 10.7658 -0.00892
C 6.29706 9.44509 -0.01362
C 4.9651 8.68636 -0.0008
C 4.95961 7.15168 0.0288
C 6.07117 6.37694 0.00393
C 6.12962 5.01763 0.00895
C 4.91563 4.27329 0.00685
C 5.05908 16.98075 0.03007
C 4.87203 2.91054 0.02888
C 6.01116 0.76808 -0.01384
C 4.82982 0.01397 0.03693
C 7.32233 32.67721 0.01745
C 8.57923 32.02083 0.00488
C 8.59917 30.56381 -0.01004
C 7.37947 29.90453 -0.02896
C 7.35937 28.49442 -0.00131
C 8.6561 27.727 -0.01118
C 8.6765 26.3563 -0.014
C 6.12197 2.16554 -0.00482
C 20.81909 0.7603 -0.04076
C 19.64038 34.06877 -0.00652
C 22.04359 32.63509 0.0058
C 30.74229 2.16038 0.00716
C 30.73657 0.72982 0.00307
C 29.47006 0.059 0.00346
C 31.87584 32.68823 0.01713
C 33.13826 32.01961 -0.01694
C 33.17462 30.55127 0.01428
C 32.01191 29.8518 -0.02142
C 31.96614 28.39108 0.0544
C 33.17598 27.71052 0.00026
C 33.22755 26.25428 0.00682
C 32.01645 25.52644 -0.01779
C 31.91369 24.16393 0.03794
C 33.15998 23.43346 0.01927
C 33.10523 22.00289 0.01574
C 31.87627 21.23527 -0.02383
C 31.90252 19.83842 -0.01429
C 33.14259 19.12908 -0.0136
C 33.13643 17.75229 0.00594
C 31.95242 17.08958 -0.02474
C 29.52275 2.8611 0.02108
C 29.43164 4.28077 0.0103
C 30.69773 4.9615 0.07705
C 30.78018 6.40183 0.01908
C 30.73309 27.64648 0.02326
C 30.72734 26.26754 0.00261
C 29.52562 25.59825 0.03265
C 29.47795 24.12294 -0.02049
C 30.64235 23.43393 -0.01854
C 30.59493 22.00916 -0.01415
C 29.40641 21.32446 -0.03039
C 29.50599 19.87118 0.01836
C 30.69892 19.1581 0.03531
C 31.9018 15.61838 0.00369
C 30.71921 17.74688 -0.00669
C 29.43202 15.63281 0.01705
C 30.67643 14.88836 -0.0405
C 30.69263 13.52283 -0.01303
C 29.47661 12.81607 -0.01461
C 29.47199 11.3538 -0.02155
C 30.76807 10.65169 -0.00944
C 30.74834 9.27163 -0.03735
C 29.53585 8.50258 -0.00971
C 29.49573 7.03482 0.01518
C 29.49921 17.06148 0.0101
C 29.54046 28.36421 0.00924
C 33.15764 14.97285 0.00455
C 31.98631 12.82812 -0.01839
C 34.29213 19.87961 0.01951
C 1.16239 19.21122 -0.01678
C 1.26586 17.7788 0.01223
C 34.38218 17.03005 0.00648
C 0.03692 15.66922 0.02114
C 1.2294 14.98164 -0.02957
C 1.25312 13.57928 0.00343
C 0.04893 12.79619 -0.02656
C 0.04735 11.44124 -0.02442
C 1.25547 10.73568 -0.00027
C 1.19068 9.27278 -0.00583
C 0.00342 8.56552 -0.02302
C 34.40309 7.10693 -0.02849
C 1.15863 6.4475 0.02931
C 1.2221 5.02855 0.00628
C 0.04048 4.30971 -0.0345
C 34.38434 2.89469 -0.00931
C 1.21562 2.17867 -0.00939
C 1.13338 0.74751 -0.00468
C 34.29782 21.29156 -0.02213
C 1.17048 21.99764 0.02712
C 1.20706 23.43321 0.00723
C 0.00714 24.08272 0.03076
C 31.99989 11.4041 0.00137
C 33.24094 10.68683 0.00199
C 33.232 9.26736 0.04381
C 32.02969 8.53801 0.02806
C 32.01937 7.10243 0.01504
C 33.198 6.36435 -0.00069
C 33.20824 4.94987 0.04926
C 31.94602 4.24672 -0.03838
C 31.93983 2.87764 0.00349
C 33.25984 13.58886 -0.00644
C 33.13163 2.1211 -0.00323
C 31.93181 0.0323 0.0001
C 34.3182 32.70084 -0.02927
C 1.13569 32.00699 -0.01404
C 1.13897 30.59612 0.01027
C 34.40269 29.86111 0.01831
C 34.39555 28.47671 -0.01037
C 1.21171 27.70265 -0.00439
C 1.23152 26.26509 -0.00598
C 0.02358 25.54726 -0.05239
C 33.11353 0.6841 -0.00841
C 29.4834 29.78474 0.0014
C 30.77338 30.51239 0.01324
C 30.73978 31.95223 0.04266
C 23.27327 0.65473 -0.02845
C 22.00984 0.00598 -0.03213
C 24.51837 32.58343 0.02239
C 25.80845 31.92033 0.01153
C 25.77704 30.47592 0.02734
C 24.59356 29.77003 -0.0055
C 24.61712 28.40253 0.01515
C 25.86133 27.64892 -0.00225
C 25.8365 26.2338 0.00071
C 24.57928 25.49048 -0.01107
C 24.57964 24.03763 -0.01586
C 25.85226 23.38223 -0.01971
C 25.78969 21.97665 -0.02118
C 24.4153 21.54432 0.00733
C 24.36342 20.0169 -0.00178
C 25.59859 19.22416 0.00768
C 25.75603 17.84025 -0.0276
C 24.57925 17.04637 0.03005
C 24.58349 15.59467 -0.04078
C 23.34751 2.03799 0.03374
C 22.10486 2.83167 0.0296
C 22.08032 4.21366 0.03046
C 23.34142 4.85819 -0.00381
C 23.25012 31.90768 -0.00865
C 23.30312 30.44874 0.00675
C 22.08134 29.7913 -0.00311
C 22.12307 28.39432 0.00742
C 23.42628 27.61678 -0.01594
C 23.38434 26.20745 0.0106
C 23.52835 23.00146 -0.01154
C 23.29023 19.14749 -0.01721
C 23.34513 17.69524 -0.02422
C 25.83725 14.87812 0.02117
C 22.1129 16.95753 0.01277
C 23.36598 14.91692 -0.01527
C 23.39366 13.47373 0.01087
C 22.10004 12.72103 0.00199
C 22.14217 11.34022 0.01511
C 23.38455 10.60574 -0.00478
C 23.35333 9.19531 -0.01662
C 22.07522 8.53179 -0.01185
C 22.07086 7.06304 0.01126
C 23.33078 6.34333 0.01852
C 22.09263 15.55387 0.00096
C 25.83483 13.46404 0.02737
C 24.57683 12.72269 -0.00498
C 24.66026 11.28102 0.00135
C 28.27321 19.18964 -0.00942
C 28.23032 17.81277 0.00487
C 27.03521 17.06096 0.00826
C 27.04851 15.67578 -0.00294
C 28.245 14.88775 0.00152
C 28.2864 13.52884 0.01257
C 27.03294 12.76907 0.02316
C 27.10376 11.31167 0.04185
C 28.30287 10.6364 0.00194
C 26.91925 19.85327 -0.02815
C 28.26236 9.18419 -0.00621
C 26.99874 7.09918 0.02198
C 28.2603 6.36921 0.01094
C 28.28241 4.95806 0.00235
C 27.00443 4.22629 0.01495
C 26.99932 2.8472 0.01259
C 28.19864 2.13752 0.01799
C 28.28602 0.71629 0.01699
C 26.94654 34.04479 -0.00416
C 29.4869 32.66108 0.01177
C 27.07025 8.47682 0.02611
C 3.59594 31.96245 0.03267
C 26.98194 21.24992 0.00622
C 28.32161 23.40376 -0.00037
C 25.89762 10.63154 0.03102
C 25.91855 9.23682 0.02555
C 24.61516 8.54109 0.01423
C 24.59552 7.10277 -0.00285
C 25.76178 6.35528 -0.009
C 25.85626 4.91625 -0.01199
C 24.58842 4.23543 -0.00229
C 24.5776 2.78717 -0.00938
C 25.73364 2.03165 -0.0264
C 28.25048 22.04347 -0.0032
C 25.80877 0.61458 -0.01154
C 26.98815 32.59604 -0.01052
C 28.22472 31.91226 -0.01679
C 28.21724 30.48831 0.00367
C 27.07321 29.77261 0.04306
C 27.08592 28.33208 0.00996
C 28.26724 27.61622 0.00195
C 28.28717 26.22022 -0.00802
C 27.07396 25.47999 -0.00218
C 27.06744 24.022 -0.01654
C 24.53174 33.98451 0.00684
C 2.4349 32.72824 -0.01509
