352
Graphene
C 0.01791 0.03003 0.01295
C 13.58191 9.19052 -0.00114
C 12.25088 8.59181 0.00228
C 12.28492 7.13899 0.00798
C 13.52386 6.38258 0.00422
C 13.57356 4.9973 0.0351
C 12.31648 4.25835 -0.03113
C 12.25107 2.79588 0.02098
C 13.5051 2.10662 0.01848
C 13.50311 10.52631 -0.02696
C 13.52876 0.68812 -0.00619
C 14.81108 32.6754 0.00889
C 16.00007 31.93697 -0.00481
C 14.77209 12.74803 0.00979
C 14.79903 11.36087 0.01443
C 15.96215 10.70423 0.03505
C 15.99463 9.20351 -0.02815
C 14.77169 8.46156 -0.04147
C 14.69324 7.08462 -0.05302
C 12.34772 34.02015 -0.02162
C 15.92564 6.36112 0.00213
C 12.29119 11.40291 -0.00368
C 13.50722 30.49413 -0.01957
C 11.02035 30.56721 0.02162
C 9.77779 29.87083 0.0076
C 11.12253 13.49959 0.01241
C 9.86794 12.79083 -0.01454
C 9.85871 11.37968 0.01945
C 11.07518 10.68679 0.01416
C 11.05517 9.26126 0.03542
C 9.87589 8.50933 0.02299
C 12.29477 12.82332 -0.0108
C 9.86864 7.16349 0.00244
C 11.05414 4.95975 0.05265
C 9.81022 4.30447 -0.01952
C 9.84509 2.77321 -0.02813
C 11.07882 2.10443 0.00374
C 11.09666 0.72896 0.00052
C 9.92335 34.07836 -0.03682
C 12.27662 32.61381 0.01965
C 13.52168 31.94548 0.02058
C 11.09309 6.35139 -0.01717
C 11.00989 31.93637 -0.0014
C 15.99442 4.95037 -0.00066
C 14.85584 2.84471 0.00028
C 20.89457 30.56237 -0.017
C 20.95391 13.5456 0.00364
C 19.66352 12.90762 -0.00831
C 19.66279 11.39723 -0.02957
C 20.88693 10.60674 -0.04422
C 20.90982 9.205 0.00654
C 19.67617 8.54829 -0.00703
C 19.69628 7.06877 -0.04076
C 20.88472 31.94159 0.00143
C 20.91078 6.40898 -0.00652
C 19.69338 4.2379 -0.00865
C 19.73907 2.89645 0.00675
C 20.9082 2.09457 -0.00311
C 20.92186 0.71175 0.00742
C 19.69927 34.0488 -0.01594
C 22.16687 32.61696 0.0106
C 23.31936 31.95646 -0.01154
C 23.33315 30.51776 -0.01721
C 20.93504 4.92433 0.0058
C 14.78254 4.22754 -0.00289
C 19.65854 32.69418 0.00667
C 18.40818 0.69469 0.00755
C 15.97886 2.13651 -0.02213
C 15.92518 0.7499 0.03698
C 14.74342 0.01685 -0.00109
C 17.18072 32.64351 -0.00491
C 18.46528 31.89707 0.03338
C 18.48881 30.53285 -0.0258
C 18.39696 13.46179 -0.0331
C 17.22942 12.85387 -0.00316
C 17.25129 0.00979 -0.0054
C 17.20436 11.38077 0.02188
C 18.4561 9.20407 0.02691
C 17.19851 8.49666 -0.01581
C 17.20654 7.09067 0.01452
C 18.49508 6.40166 0.04892
C 18.4309 4.97031 -0.00111
C 17.18347 4.26034 -0.03557
C 17.19952 2.85479 0.03754
C 18.45529 2.11061 0.01739
C 18.41282 10.65852 -0.01979
C 22.08373 29.82753 -0.02422
C 9.85562 32.65165 0.00415
C 8.59949 0.69754 0.01363
C 2.44449 7.03053 -0.00095
C 3.64364 6.37584 0.01572
C 3.67034 4.94883 -0.04848
C 2.41535 4.22895 -0.00892
C 2.47263 2.82826 -0.01362
C 3.72518 2.16702 -0.0008
C 3.66859 0.77122 0.0288
C 2.49289 34.05865 0.00393
C 2.43341 8.50898 0.03007
C 4.90289 32.67921 0.00895
C 6.15928 30.56481 0.02888
C 4.92399 29.7686 -0.00482
C 4.88868 28.40226 -0.01384
C 6.11275 27.70049 0.03693
C 6.12441 26.24667 0.01745
C 4.90209 25.5677 0.00488
C 4.89793 24.20338 -0.01004
C 6.14996 23.37815 -0.02896
C 6.14987 31.99567 0.00685
C 6.16079 22.09696 -0.00131
C 3.70451 9.22606 0.00054
C 2.39971 11.40964 -0.00562
C 3.69146 30.56785 0.0276
C 2.43993 29.81017 0.01305
C 2.42499 28.40137 -0.00077
C 3.64276 27.72668 0.03368
C 3.73466 26.21839 -0.02929
C 2.51884 25.57789 -0.00966
C 2.43297 24.13181 -0.03337
C 3.75359 23.41209 0.01227
C 3.70218 10.62567 -0.00494
C 3.6643 22.00703 0.00873
C 2.43751 19.96833 0.00848
C 3.70022 19.18447 -0.01303
C 3.72483 17.7577 -0.01378
C 2.45391 17.05837 0.02635
C 2.5118 15.61877 0.0127
C 3.66996 14.87356 0.01396
C 3.74199 13.48147 0.01849
C 2.39804 12.74892 -0.01142
C 2.44101 21.37633 -0.00049
C 7.34046 0.03831 -0.02162
C 4.92669 21.29881 -0.01118
C 6.16619 19.2164 0.02147
C 7.38286 28.31589 -0.01111
C 8.65279 27.75671 -0.01275
C 7.40001 25.61274 0.00985
C 7.36521 17.07505 -0.02245
C 7.37305 15.64828 -0.00428
C 8.55312 14.84258 0.03101
C 8.59198 13.46562 -0.01536
C 7.40714 12.78615 -0.02689
C 7.37038 29.79921 0.02841
C 7.40312 11.39459 -0.01046
C 8.63716 9.2749 0.02819
C 7.35614 8.53695 0.00165
C 7.4344 7.10941 -0.02971
C 8.66445 6.39566 0.02894
C 8.62072 5.01722 -0.01789
C 7.3335 4.16969 0.00444
C 7.3517 2.81515 -0.00925
C 8.5648 2.13826 0.01877
C 8.58377 10.59737 -0.00891
C 4.92532 19.87113 -0.014
C 8.58559 30.54578 0.00943
C 7.33774 32.70672 0.03592
C 6.19973 17.72115 0.00373
C 4.90361 17.0851 -0.00191
C 4.92262 15.65063 0.00438
C 6.16101 14.93373 0.01291
C 6.14921 13.48413 0.00093
C 4.93968 12.78746 0.00057
C 4.95499 11.39707 -0.01634
C 6.1682 10.67245 -0.00334
C 8.55866 32.00289 0.00406
C 6.1965 9.23986 0.02339
C 4.93898 7.15923 -0.00719
C 6.1531 6.44392 0.01364
C 6.18925 5.04048 -0.01062
C 4.87678 4.34783 -0.00033
C 4.89294 2.88877 0.03589
C 6.15227 2.13705 -0.02759
C 6.08914 0.71553 0.0402
C 4.91738 0.037 0.00572
C 4.95118 8.5268 0.01641
C 22.20375 28.34745 0.01277
C 23.27642 27.72872 0.00096
C 22.09865 15.6594 -0.01527
C 33.2212 31.95536 -0.01694
C 33.14503 30.52405 0.01428
C 31.93787 29.84295 -0.02142
C 31.98906 28.37113 0.0544
C 33.22859 27.6843 0.00026
C 33.1456 26.32508 0.00682
C 31.93982 25.57573 -0.01779
C 32.02882 24.20195 0.03794
C 31.98061 32.60679 0.01713
C 33.21297 23.44673 0.01927
C 31.94444 21.30432 -0.02383
C 31.98105 19.88716 -0.01429
C 33.18309 19.21262 -0.0136
C 33.10887 17.75914 0.00594
C 31.92742 17.04246 -0.02474
C 31.97527 15.55194 0.00369
C 33.22087 14.9277 0.00455
C 33.17015 13.46823 -0.00644
C 33.21505 22.04225 0.01574
C 31.96448 12.74308 -0.01839
C 29.51112 34.05876 0.00346
C 30.74771 2.14139 0.00716
C 29.57799 21.31011 -0.03039
C 29.5411 19.91456 0.01836
C 30.72617 19.14491 0.03531
C 30.73373 17.74026 -0.00669
C 29.49482 17.03217 0.0101
C 29.46468 15.66026 0.01705
C 30.80473 14.90917 -0.0405
C 30.75478 13.45513 -0.01303
C 30.79642 0.67163 0.00307
C 29.50266 12.81066 -0.01461
C 30.7443 10.66176 -0.00944
C 30.75499 9.245 -0.03735
C 29.49755 8.51286 -0.00971
C 29.51194 7.08561 0.01518
C 30.7347 6.43363 0.01908
C 30.78849 5.02438 0.07705
C 29.51156 4.18698 0.0103
C 29.55515 2.80268 0.02108
C 29.53886 11.38037 -0.02155
C 30.74866 22.06608 -0.01415
C 31.97545 11.30003 0.00137
C 33.14346 9.25108 0.04381
C 1.28017 19.13667 -0.01678
C 1.18822 17.69667 0.01223
C 34.38888 17.04406 0.00648
C 34.39909 15.59136 0.02114
C 1.19188 14.94277 -0.02957
C 1.21952 13.50345 0.00343
C 0.01252 12.71357 -0.02656
C 0.02014 11.34662 -0.02442
C 0.00032 19.91722 0.01951
C 1.27022 10.6528 -0.00027
C 34.4148 8.4602 -0.02302
C 0.00892 7.10195 -0.02849
C 1.25259 6.34243 0.02931
C 1.18916 4.93905 0.00628
C 0.00662 4.21745 -0.0345
C 0.00534 2.83598 -0.00931
C 1.23157 2.14595 -0.00939
C 1.27266 0.77647 -0.00468
C 1.21635 9.22405 -0.00583
C 33.22518 10.69176 0.00199
C 34.39014 21.32309 -0.02213
C 1.22105 23.44977 0.00723
C 31.96811 8.51673 0.02806
C 32.00875 7.15136 0.01504
C 33.2291 6.38834 -0.00069
C 33.18184 4.93026 0.04926
C 31.97001 4.30007 -0.03838
C 31.9823 2.87003 0.00349
C 33.2266 2.17553 -0.00323
C 33.1654 0.62375 -0.00841
C 1.17972 22.00396 0.02712
C 31.96252 34.06346 0.0001
C 1.28146 31.953 -0.01404
C 1.16994 30.49454 0.01027
C 34.37114 29.82812 0.01831
C 34.42635 28.37319 -0.01037
C 1.20024 27.67189 -0.00439
C 1.2348 26.21907 -0.00598
C 34.42163 25.63956 -0.05239
C 34.4324 24.19956 0.03076
C 0.00541 32.65963 -0.02927
C 30.75758 23.43513 -0.01854
C 29.47421 24.0786 -0.02049
C 29.44812 25.55298 0.03265
C 24.61424 25.524 -0.01586
C 24.63844 24.17382 -0.01971
C 25.80351 23.40458 -0.02118
C 25.77554 22.03976 0.00733
C 24.6015 19.88019 -0.00178
C 25.78859 19.24205 0.00768
C 25.77528 17.77948 -0.0276
C 24.57138 17.03943 0.03005
C 25.81095 26.30425 -0.01107
C 24.58341 15.62831 -0.04078
C 25.85734 13.50982 0.02737
C 24.59825 12.77153 -0.00498
C 24.58292 11.3669 0.00135
C 25.80911 10.65617 0.03102
C 25.80022 9.28018 0.02555
C 24.59936 8.46895 0.01423
C 24.59437 7.05787 -0.00285
C 25.78258 6.37062 -0.009
C 25.81577 14.94612 0.02117
C 25.85892 4.96037 -0.01199
C 25.74651 27.66067 0.00071
C 24.55189 29.82246 0.01515
C 23.36604 14.88822 0.01087
C 23.364 13.42503 0.00199
C 22.08555 12.79514 0.01511
C 22.15746 11.32149 -0.00478
C 23.37163 10.64526 -0.01662
C 23.39284 9.23653 -0.01185
C 22.13271 8.48782 0.01126
C 22.1586 7.03261 0.01852
C 24.55346 28.37568 -0.00225
C 23.34079 6.35944 -0.00381
C 22.15059 4.24968 0.0296
C 22.17143 2.80057 0.03374
C 23.35955 2.15198 -0.02845
C 23.29396 0.70427 -0.03213
C 22.07852 0.00798 0.02239
C 24.5999 32.60621 0.01153
C 25.76868 31.93482 0.02734
C 25.84992 30.50588 -0.0055
C 23.3788 4.96273 0.03046
C 24.50608 4.27846 -0.00229
C 24.54647 2.80669 -0.00938
C 25.83557 2.13593 -0.0264
C 28.30367 10.63226 0.00194
C 28.32034 9.1961 -0.00621
C 27.09851 8.48606 0.02611
C 27.08748 7.08712 0.02198
C 28.28799 6.38246 0.01094
C 28.30796 4.90234 0.00235
C 27.01825 4.22615 0.01495
C 27.04156 2.86713 0.01259
C 27.10304 11.29954 0.04185
C 28.36329 2.09184 0.01799
C 27.03345 34.03241 -0.00416
C 29.49709 32.64339 0.01177
C 30.76338 31.93979 0.04266
C 30.7421 30.50524 0.01324
C 29.55023 29.82442 0.0014
C 29.49581 28.38134 0.00924
C 30.76362 27.6878 0.02326
C 30.75847 26.24788 0.00261
C 28.33483 0.70953 0.01699
C 27.0794 12.79984 0.02316
C 28.28971 13.52076 0.01257
C 28.31511 14.84331 0.00152
C 25.82685 0.72705 -0.01154
C 24.6163 0.0148 0.00684
C 27.01749 32.68513 -0.01052
C 28.26667 31.94117 -0.01679
C 28.2914 30.5577 0.00367
C 27.03727 29.85718 0.04306
C 27.0336 28.39223 0.00996
C 28.31202 27.71518 0.00195
C 28.27366 26.34027 -0.00802
C 27.05582 25.54054 -0.00218
C 27.07995 24.201 -0.01654
C 28.31058 23.41309 -0.00037
C 28.34852 21.98596 -0.0032
C 26.97061 21.27325 0.00622
C 27.08369 19.88927 -0.02815
C 28.27177 19.14112 -0.00942
C 28.39985 17.77862 0.00487
C 27.0186 17.07071 0.00826
C 27.04559 15.62225 -0.00294
C 3.68981 31.94789 0.00988
C 2.38949 32.67227 -0.01343
