323
Graphene
C 0.01855 0.02887 0.01295
C 9.87886 25.53962 -0.00289
C 9.8365 24.19234 0.00028
C 11.08596 23.43343 -0.02213
C 11.0829 22.01967 0.03698
C 9.88477 21.29995 -0.00109
C 9.84947 19.87428 -0.00491
C 11.02293 19.1337 0.03338
C 11.04528 26.24165 -0.00066
C 11.04581 17.64848 -0.0258
C 9.81822 15.60855 -0.00316
C 11.11693 14.93564 0.02188
C 11.12161 13.45593 -0.01979
C 9.88146 12.78589 0.02691
C 9.88231 11.34858 -0.01581
C 11.05054 10.71727 0.01452
C 11.07873 9.19494 0.04892
C 9.83171 16.96953 -0.0331
C 9.79658 8.49541 -0.00111
C 11.10774 27.63238 0.00213
C 9.80222 29.82125 -0.04147
C 7.35505 12.80891 -0.00114
C 7.37833 11.33906 0.00228
C 8.57705 10.69374 0.00798
C 8.51228 9.29851 0.00422
C 7.39523 8.53501 0.0351
C 7.39811 7.09504 -0.03113
C 8.62378 6.39121 0.02098
C 9.85342 28.42167 -0.05302
C 8.59943 4.97202 0.01848
C 7.38531 2.84991 -0.02162
C 8.62315 2.16264 0.00889
C 8.59601 0.79032 -0.00481
C 7.34421 34.07863 0.00979
C 9.83337 32.731 0.01443
C 11.07418 31.88896 0.03505
C 11.0727 30.51406 -0.02815
C 7.40593 4.29067 -0.00619
C 9.89835 7.07507 -0.03557
C 11.05833 6.33703 0.03754
C 11.06521 4.98276 0.01739
C 12.31862 7.07869 -0.01721
C 13.42792 6.35829 -0.02422
C 13.56256 4.95349 0.01277
C 12.34062 4.2399 0.00096
C 12.28901 2.8584 -0.01527
C 13.55021 2.12321 0.01087
C 13.49587 0.77145 0.00199
C 12.26932 8.55777 -0.01154
C 12.27266 34.02265 0.01511
C 15.97557 31.92038 -0.01662
C 15.98314 30.57084 -0.01185
C 14.78056 29.76932 0.01126
C 14.68833 28.37505 0.01852
C 14.72363 17.02111 -0.00381
C 14.76841 15.62593 0.03046
C 14.81917 4.30953 0.0296
C 14.76176 32.63484 -0.00478
C 12.31814 11.33561 0.0106
C 12.35061 12.72565 -0.01594
C 13.56446 13.45006 0.00742
C 9.78551 4.2537 0.00755
C 9.83266 2.81839 -0.0054
C 11.08147 2.09261 0.00667
C 11.09151 0.67087 0.00143
C 9.82587 0.03913 -0.017
C 12.26491 32.67104 0.00364
C 13.5105 31.97163 -0.00831
C 13.47826 30.57881 -0.02957
C 12.28389 29.86544 -0.04422
C 12.28312 28.42901 0.00654
C 13.55362 27.6386 -0.00703
C 12.3226 25.55553 -0.04076
C 12.32948 19.90794 -0.00652
C 13.55335 17.76725 0.0058
C 12.33833 17.05088 -0.00865
C 12.3115 15.63675 0.00675
C 13.5386 14.84969 -0.00311
C 8.59138 13.44886 -0.02696
C 14.74542 2.8269 0.03374
C 8.6483 14.929 -0.00368
C 7.34864 17.03737 -0.01957
C 3.66711 9.23367 0.00057
C 2.42448 8.55161 -0.01634
C 2.46506 7.10051 -0.00334
C 3.64931 6.41062 0.02339
C 3.69766 5.00811 0.01641
C 2.51982 4.25911 -0.00719
C 2.44281 2.85193 0.01364
C 3.69529 10.59741 0.00093
C 3.66998 2.14797 -0.01062
C 2.46143 34.06569 0.03589
C 4.88351 32.63413 -0.02759
C 6.17581 31.93738 0.0402
C 6.1801 30.54001 0.00572
C 4.87085 29.89024 0.03592
C 4.92827 28.37816 0.00406
C 6.12237 27.69563 0.00943
C 3.66748 0.72792 -0.00033
C 6.14759 26.318 0.02841
C 2.45921 11.31713 0.01291
C 3.67784 13.52682 -0.00191
C 3.66081 30.57387 0.00393
C 2.43657 29.82733 0.00895
C 2.45369 28.41578 0.00685
C 3.68712 27.72263 0.02888
C 3.70059 26.22571 -0.00482
C 2.46063 25.56833 -0.01384
C 2.47664 24.15455 0.03693
C 2.49335 12.78562 0.00438
C 3.63068 23.47341 0.01745
C 2.44185 21.33661 -0.01004
C 2.44135 19.88803 -0.02896
C 3.6659 19.18379 -0.00131
C 3.67045 17.76467 -0.01118
C 2.48004 16.99534 -0.014
C 2.49922 15.64024 0.02147
C 3.67804 14.91481 0.00373
C 3.7309 22.00369 0.00488
C 4.92042 25.55414 -0.01111
C 4.86353 24.14776 -0.01275
C 6.11938 23.51469 0.00985
C 4.91036 0.00321 0.01241
C 7.40898 32.62521 -0.01454
C 8.59266 31.98052 0.01945
C 8.64153 30.54789 0.01416
C 7.3481 29.78671 0.03542
C 7.44769 28.38146 0.02299
C 8.54958 27.64366 0.00244
C 6.13024 0.75711 0.0076
C 8.58006 26.29327 -0.01717
C 7.35389 24.13141 -0.01952
C 8.63383 23.45086 -0.02813
C 8.61631 21.93024 0.00374
C 7.39562 21.30709 0.00052
C 7.41905 19.92699 -0.03682
C 8.61396 19.19848 0.01965
C 8.59655 17.72623 0.02058
C 7.35346 25.50352 0.05265
C 6.14829 2.1223 0.02162
C 4.96225 2.8538 -0.0014
C 4.91085 4.23992 0.00415
C 6.14452 22.04997 -0.02245
C 4.91661 21.36898 -0.00428
C 4.88479 19.89102 0.03101
C 6.18777 19.15477 -0.01536
C 6.19515 17.75041 -0.02689
C 4.95909 17.09331 -0.01046
C 4.91699 15.52768 -0.00891
C 6.1533 14.88629 0.02819
C 6.11276 13.5094 0.00165
C 4.87165 12.74672 -0.02971
C 4.91553 11.35341 0.02894
C 6.13111 10.68556 -0.01789
C 6.12569 9.25125 0.00444
C 4.93776 8.47078 -0.00925
C 4.90582 7.12462 0.01877
C 6.14813 6.40611 0.01363
C 6.17578 4.97495 -0.02162
C 7.37045 15.61246 -0.0108
C 3.69903 31.9579 0.0288
C 16.01841 2.15735 -0.02845
C 14.74956 0.03888 0.02239
C 33.16267 26.31086 0.00682
C 32.00344 25.5458 -0.01779
C 31.98989 24.18557 0.03794
C 33.21347 23.44618 0.01927
C 33.24338 22.03921 0.01574
C 31.96449 21.376 -0.02383
C 31.96649 19.92926 -0.01429
C 33.22728 27.71478 0.00026
C 33.14845 19.17671 -0.0136
C 31.98068 17.07548 -0.02474
C 32.01304 15.58962 0.00369
C 33.22852 14.87276 0.00455
C 33.20176 13.50428 -0.00644
C 31.92462 12.83217 -0.01839
C 31.96508 11.35623 0.00137
C 33.13275 10.63471 0.00199
C 33.15024 17.79449 0.00594
C 33.18338 9.21399 0.04381
C 32.01106 28.38428 0.0544
C 33.16067 30.57146 0.01428
C 30.72622 17.77606 -0.01303
C 29.5507 17.09236 -0.01461
C 29.55127 15.59069 -0.02155
C 30.74036 14.90627 -0.00944
C 30.7075 13.51075 -0.03735
C 30.74572 10.59964 -0.00971
C 30.74264 9.30402 0.01518
C 31.90415 29.80821 -0.02142
C 30.71691 6.41077 0.01908
C 29.47594 4.19789 0.0103
C 29.52875 2.89438 0.02108
C 30.70289 2.11751 0.00716
C 30.7573 0.73109 0.00307
C 29.51873 34.0287 0.00346
C 31.95474 32.65253 0.01713
C 33.19824 31.97534 -0.01694
C 30.76203 4.9883 0.07705
C 31.98907 8.55119 0.02806
C 31.93635 7.10026 0.01504
C 33.18474 6.39827 -0.00069
C 34.41579 17.02235 0.00648
C 34.37752 15.65851 0.02114
C 1.26498 14.90727 -0.02957
C 1.24987 13.4571 0.00343
C 0.05169 12.73592 -0.02656
C 34.40292 11.38349 -0.02442
C 1.20803 10.6958 -0.00027
C 1.23727 17.74492 0.01223
C 1.21205 9.22398 -0.00583
C 34.41975 7.08536 -0.02849
C 1.20095 6.39705 0.02931
C 1.26539 4.98981 0.00628
C 0.00562 4.17137 -0.0345
C 0.03522 2.79063 -0.00931
C 1.26657 2.15131 -0.00939
C 1.24292 0.74552 -0.00468
C 34.42914 8.47988 -0.02302
C 1.19932 19.1945 -0.01678
C 0.03392 19.84309 0.01951
C 34.39249 21.25722 -0.02213
C 33.17585 4.98993 0.04926
C 31.95317 4.24603 -0.03838
C 31.9418 2.88353 0.00349
C 33.18551 2.12521 -0.00323
C 33.21179 0.64473 -0.00841
C 32.00191 34.06626 0.0001
C 34.43251 32.68943 -0.02927
C 1.28112 31.94757 -0.01404
C 1.22754 30.46466 0.01027
C 34.43171 29.82519 0.01831
C 0.04123 28.39385 -0.01037
C 1.20591 27.66249 -0.00439
C 1.24878 26.24889 -0.00598
C 34.42331 25.59524 -0.05239
C 34.41262 24.1643 0.03076
C 1.24344 23.50657 0.00723
C 1.19177 22.03038 0.02712
C 30.8041 19.22593 -0.0405
C 15.95795 0.72634 -0.03213
C 29.52491 19.87527 0.01705
C 30.75014 21.98799 -0.00669
C 22.17508 29.8471 0.03102
C 22.1471 28.36777 0.02555
C 23.33833 27.64701 0.01423
C 23.3764 26.28578 -0.00285
C 23.37888 23.39787 -0.009
C 23.42329 22.08868 -0.01199
C 23.30583 19.13066 -0.00229
C 23.34411 30.53214 0.00135
C 23.38499 0.71977 -0.00938
C 24.67428 32.67225 -0.01154
C 25.77183 31.91337 0.00684
C 25.77644 30.51023 -0.01052
C 24.60097 29.77432 -0.01679
C 24.56292 28.40531 0.00367
C 25.82578 27.6536 0.04306
C 25.82079 26.32547 0.00996
C 22.12665 0.07327 -0.0264
C 24.59461 25.56409 0.00195
C 23.39876 31.96657 -0.00498
C 19.6253 34.06355 0.02117
C 17.17935 32.67104 0.01153
C 18.42023 31.9432 0.02734
C 18.46537 30.48711 -0.0055
C 17.21518 29.80709 0.01515
C 17.16385 28.45215 -0.00225
C 17.23626 2.87274 0.00071
C 18.3911 2.18529 -0.01107
C 22.1267 32.68364 0.02737
C 18.42319 0.70851 -0.01586
C 19.65723 32.68397 -0.02118
C 20.90298 31.95858 0.00733
C 20.91819 30.50707 -0.00178
C 19.6308 29.78692 0.00768
C 19.68887 28.40286 -0.0276
C 20.85087 27.74167 0.03005
C 20.85337 0.75168 -0.04078
C 17.21565 34.04502 -0.01971
C 24.5909 24.13168 -0.00802
C 25.77977 23.43676 -0.00218
C 25.81947 22.03993 -0.01654
C 28.30928 17.73587 0.01699
C 26.96272 17.00259 -0.00416
C 26.96594 2.80384 0.01177
C 28.3172 2.12523 0.04266
C 28.27 0.66457 0.01324
C 27.02791 0.01188 0.0014
C 29.54594 32.60714 0.00924
C 28.29467 19.15524 0.01799
C 30.78458 31.94039 0.02326
C 29.48305 29.78107 0.03265
C 29.52898 28.31006 -0.02049
C 30.74393 27.67777 -0.01854
C 30.71622 26.27895 -0.01415
C 29.54815 25.57026 -0.03039
C 29.56146 24.10378 0.01836
C 30.73616 23.45011 0.03531
C 30.65782 30.51374 0.00261
C 26.99987 19.86349 0.01259
C 27.04148 21.24241 0.01495
C 28.2557 22.01725 0.00235
C 24.62701 21.27787 -0.00037
C 24.62291 19.87922 -0.0032
C 25.73232 19.16161 0.00622
C 25.80778 17.6578 -0.02815
C 25.88005 2.12331 -0.00942
C 25.80992 0.68746 0.00487
C 24.61472 34.04531 0.00826
C 27.07706 32.62822 -0.00294
C 28.31447 31.92975 0.00152
C 28.27558 30.53355 0.01257
C 27.05989 29.74705 0.02316
C 27.03076 28.36324 0.04185
C 28.27076 27.70432 0.00194
C 28.33275 26.23415 -0.00621
C 27.13276 25.53731 0.02611
C 27.03549 24.10889 0.02198
C 28.2923 23.41144 0.01094
C 29.51662 21.30173 0.0101
C 2.45317 32.66285 -0.0008
