302
Graphene
C 0.00923 0.04484 0.01295
C 13.61934 9.22632 0.04892
C 12.21503 8.59686 -0.00111
C 12.31978 7.14856 -0.03557
C 13.54194 6.37197 0.03754
C 13.57897 5.01257 0.01739
C 12.34134 4.29024 0.00755
C 13.46144 10.55533 0.01452
C 12.24054 2.84562 -0.0054
C 13.46289 0.59816 0.00143
C 12.2667 34.04389 -0.017
C 14.82702 32.70217 0.00364
C 16.00208 31.91383 -0.00831
C 16.01457 30.51698 -0.02957
C 14.80387 29.84552 -0.04422
C 13.49222 2.19007 0.00667
C 13.55309 27.68002 -0.01581
C 12.32805 28.2914 0.02691
C 12.23444 29.79646 -0.01979
C 11.14706 27.588 -0.04147
C 10.88042 26.21238 -0.05302
C 9.84401 25.67859 0.00213
C 11.04349 9.11937 -0.00066
C 9.82191 7.19109 -0.00289
C 10.94253 6.47751 0.00028
C 11.09761 5.02998 -0.02213
C 9.88299 4.27886 0.03698
C 9.88496 2.87137 -0.00109
C 11.08271 2.12468 -0.00491
C 11.05948 0.70974 0.03338
C 9.81787 34.05491 -0.0258
C 12.30484 32.69793 -0.0331
C 13.57316 32.05681 -0.00316
C 13.50305 30.56309 0.02188
C 14.74155 28.43447 0.00654
C 15.99439 27.61083 -0.00703
C 16.04313 10.61873 -0.04076
C 16.03768 9.28841 -0.00652
C 18.48406 6.32583 0.01126
C 18.42919 4.90189 0.01852
C 17.19114 4.25175 -0.00381
C 17.22683 2.78531 0.03046
C 18.37207 2.08094 0.0296
C 18.48739 0.69 0.03374
C 17.29573 34.07074 -0.02845
C 19.66077 32.69344 -0.03213
C 20.91288 31.97386 0.02239
C 20.83757 30.64234 0.01153
C 19.62796 29.85635 0.02734
C 19.63642 28.31614 -0.0055
C 20.87738 27.63191 0.01515
C 21.0144 26.29371 -0.00225
C 19.61444 11.28707 0.00071
C 17.21234 7.1052 -0.01185
C 9.82626 28.43021 -0.02815
C 17.26492 8.47595 -0.01662
C 18.56404 10.75589 0.01511
C 14.79716 8.46713 0.0058
C 14.80685 7.10006 -0.00865
C 15.99576 6.35723 0.00675
C 16.02343 4.9139 -0.00311
C 14.72182 4.22999 0.00742
C 14.73072 2.81348 -0.01594
C 16.01819 2.05472 0.0106
C 16.03614 0.65411 -0.01154
C 14.76275 0.05091 -0.01721
C 17.1961 32.65407 -0.02422
C 18.38179 31.97 0.01277
C 18.35883 30.58285 0.00096
C 17.17902 29.83528 -0.01527
C 17.19327 28.34399 0.01087
C 18.48517 27.6304 0.00199
C 18.43927 9.25557 -0.00478
C 9.86901 29.87164 0.03505
C 11.07263 30.5655 0.01443
C 11.09528 31.98321 0.00979
C 2.45325 8.52303 -0.02245
C 2.45773 7.05513 -0.00428
C 3.6417 6.34605 0.03101
C 3.7049 4.95825 -0.01536
C 2.50218 4.2953 -0.02689
C 2.44407 2.8426 -0.01046
C 3.65377 2.15092 -0.00891
C 3.64378 0.73462 0.02819
C 2.44519 34.07402 0.00165
C 4.85454 32.65334 -0.02971
C 6.15113 31.98452 0.02894
C 6.18764 30.49012 -0.01789
C 4.88733 29.81803 0.00444
C 4.90396 28.3456 -0.00925
C 6.09403 27.6379 0.01877
C 3.70098 9.26718 0.00985
C 6.11153 26.21444 0.01363
C 3.69108 10.61276 -0.01275
C 2.48588 12.84209 0.02841
C 3.66269 30.59395 -0.01634
C 2.48509 29.80128 -0.00334
C 2.43527 28.40624 0.02339
C 3.65538 27.70681 0.01641
C 3.69834 26.3248 -0.00719
C 2.49139 25.54409 0.01364
C 2.4227 24.15191 -0.01062
C 3.62464 23.45927 -0.00033
C 3.6421 22.02258 0.03589
C 2.43302 21.32869 -0.02759
C 2.43702 19.94017 0.0402
C 3.76902 19.11678 0.00572
C 3.6465 17.80453 0.03592
C 2.55109 17.02318 0.00406
C 2.40946 15.61859 0.00943
C 2.43961 11.4899 -0.01111
C 20.89403 10.69061 -0.01107
C 4.90011 25.55846 -0.02162
C 6.08727 23.40558 -0.0014
C 8.55917 26.30966 -0.0108
C 7.41897 25.5087 -0.00368
C 7.47224 24.12833 -0.02696
C 8.57027 23.38768 -0.00114
C 7.49378 21.21381 0.00228
C 7.39291 19.94223 0.00798
C 7.23512 7.10066 0.00422
C 8.54233 6.57518 0.0351
C 8.63037 4.98147 -0.03113
C 7.43781 4.22406 0.02098
C 7.38224 2.8495 0.01848
C 8.66235 2.10446 -0.00619
C 8.59254 0.67196 -0.02162
C 7.41769 34.04835 0.00889
C 9.76606 32.62128 -0.00481
C 8.59291 27.78135 -0.01957
C 4.86725 24.15463 0.00415
C 7.32033 28.39612 0.02058
C 8.63993 30.55699 -0.03682
C 6.19285 21.92281 0.02162
C 4.94664 21.30113 0.0076
C 4.95563 19.96057 0.01241
C 6.14629 9.21644 -0.01454
C 4.93727 8.51467 0.01945
C 4.83787 7.01939 0.01416
C 6.12187 6.36572 0.03542
C 6.19598 4.9546 0.02299
C 4.94958 4.23696 0.00244
C 4.93819 2.86154 -0.01717
C 6.15396 2.18487 0.05265
C 6.12319 0.72117 -0.01952
C 4.95708 34.06837 -0.02813
C 7.42102 32.66851 0.00374
C 8.62152 31.98411 0.00052
C 7.34517 29.71265 0.01965
C 20.88151 9.20628 -0.01586
C 19.62399 8.53048 -0.01971
C 19.63051 7.05185 -0.02118
C 31.99035 25.55465 0.01574
C 31.98395 24.20386 -0.02383
C 33.1242 23.42266 -0.01429
C 33.24382 21.95215 -0.0136
C 33.17189 19.13393 0.00594
C 33.21632 17.87613 -0.02474
C 32.05157 15.62593 0.00369
C 33.13874 14.8873 0.00455
C 33.22223 13.46748 -0.00644
C 32.01782 12.83312 -0.01839
C 31.94482 11.39229 0.00137
C 33.14563 10.68919 0.00199
C 33.25332 9.23218 0.04381
C 31.9863 8.60007 0.02806
C 31.9467 7.16098 0.01504
C 33.25312 26.34165 0.01927
C 33.14357 6.48929 -0.00069
C 33.18977 27.74077 0.03794
C 31.98667 29.83801 0.00682
C 29.42218 11.39949 -0.00971
C 30.72511 10.7052 0.01518
C 30.76914 9.22704 0.01908
C 29.53896 8.50521 0.07705
C 29.46623 7.15062 0.0103
C 30.683 6.44309 0.02108
C 30.75366 4.99553 0.00716
C 29.44743 4.26216 0.00307
C 29.44408 2.87574 0.00346
C 30.73571 2.10603 0.01713
C 30.75945 0.6892 -0.01694
C 29.47498 0.05546 0.01428
C 31.94841 32.6696 -0.02142
C 33.24592 32.00681 0.0544
C 33.23304 30.46919 0.00026
C 31.96467 28.42583 -0.01779
C 29.52541 12.82035 -0.03735
C 33.21662 4.98319 0.04926
C 31.93253 2.84924 0.00349
C 34.3452 15.62257 0.02114
C 1.15805 14.92045 -0.02957
C 1.22645 13.42397 0.00343
C 34.43111 12.82372 -0.02656
C 34.35262 11.36022 -0.02442
C 1.19436 10.69348 -0.00027
C 1.22547 9.22345 -0.00583
C 34.43015 8.52406 -0.02302
C 34.41197 7.13399 -0.02849
C 1.25369 6.39784 0.02931
C 1.25025 5.00828 0.00628
C 34.41423 4.2559 -0.0345
C 34.41479 2.82851 -0.00931
C 1.21877 2.15047 -0.00939
C 1.17152 0.79067 -0.00468
C 0.02805 17.03702 0.00648
C 31.98742 4.24793 -0.03838
C 1.28018 17.7247 0.01223
C 34.39072 19.90648 0.01951
C 33.18539 2.15954 -0.00323
C 33.21934 0.72198 -0.00841
C 31.96186 34.05262 0.0001
C 0.01274 32.67992 -0.02927
C 1.20345 31.97429 -0.01404
C 1.28809 30.58151 0.01027
C 0.03261 29.74582 0.01831
C 0.04175 28.33649 -0.01037
C 1.25976 27.72307 -0.00439
C 1.23403 26.2971 -0.00598
C 0.01488 25.52139 -0.05239
C 34.39201 24.16093 0.03076
C 1.26442 23.38356 0.00723
C 1.18314 21.97723 0.02712
C 34.37818 21.32778 -0.02213
C 1.19101 19.13758 -0.01678
C 3.62058 32.01568 0.00057
C 30.65141 13.43565 -0.00944
C 30.7516 26.17084 -0.01461
C 22.16281 8.50748 -0.01154
C 22.14868 7.13049 0.00684
C 23.42701 6.35248 -0.01052
C 23.34793 4.88973 -0.01679
C 22.1579 4.25116 0.00367
C 22.15124 2.82094 0.04306
C 23.35702 2.10574 0.00996
C 23.37446 0.68643 0.00195
C 22.12357 0.01465 -0.00802
C 24.58121 32.67903 -0.00218
C 25.84754 32.02254 -0.01654
C 25.84277 30.57065 -0.00037
C 24.61776 29.87417 -0.0032
C 24.56185 28.47101 0.00622
C 25.82033 27.66856 -0.02815
C 23.38192 9.21885 -0.0264
C 25.90559 26.34386 -0.00942
C 23.39564 10.6526 -0.00938
C 22.10564 12.67905 -0.01199
C 20.89709 6.42646 0.00733
C 20.90365 5.01601 -0.00178
C 19.7038 4.30132 0.00768
C 19.61363 2.75324 -0.0276
C 20.85669 2.10356 0.03005
C 20.90802 0.72635 -0.04078
C 19.73113 34.05948 0.02117
C 22.08744 32.66349 0.02737
C 23.29302 31.96512 -0.00498
C 23.34907 30.5029 0.00135
C 22.08456 29.81718 0.03102
C 22.11207 28.33385 0.02555
C 23.3558 27.74503 0.01423
C 23.32666 26.30942 -0.00285
C 22.1315 25.66965 -0.009
C 22.14323 11.34371 -0.00229
C 29.37499 25.55982 -0.02155
C 24.50553 11.37636 0.00487
C 25.81656 9.2125 -0.00294
C 27.09561 8.46734 0.00924
C 27.0217 7.076 0.02326
C 28.2538 6.41165 0.00261
C 28.27149 5.00375 0.03265
C 27.04575 4.33611 -0.02049
C 27.02143 2.85834 -0.01854
C 28.23965 2.14613 -0.01415
C 28.27185 0.76781 -0.03039
C 27.09984 0.00667 0.01836
C 29.52092 32.66466 0.03531
C 30.71077 31.91573 -0.00669
C 30.7209 30.51004 0.0101
C 29.48146 29.86202 0.01705
C 29.50182 28.4709 -0.0405
C 30.74076 27.62505 -0.01303
C 28.28946 9.18425 0.0014
C 25.73392 10.69858 0.00826
C 28.23067 10.67243 0.01324
C 28.39313 26.25981 0.01177
C 24.50967 8.47066 0.00152
C 24.55761 7.05455 0.01257
C 25.8469 6.37242 0.02316
C 25.80214 4.91551 0.04185
C 24.58208 4.23877 0.00194
C 24.62324 2.78799 -0.00621
C 25.84174 2.12105 0.02611
C 25.88801 0.72261 0.02198
C 24.58107 0.01082 0.01094
C 27.08001 32.60774 0.00235
C 28.28469 31.91418 0.01495
C 28.23853 30.50382 0.01259
C 27.05933 29.80193 0.01799
C 27.11318 28.38003 0.01699
C 28.28837 27.72492 -0.00416
C 26.9538 11.30552 0.04266
C 2.37162 32.66601 0.00093
