347
Graphene
C 0.10927 0.10836 0.01295
C 9.86642 11.46364 0.0351
C 11.01469 10.62035 -0.03113
C 11.07564 9.45376 0.02098
C 9.87376 8.45655 0.01848
C 9.88899 7.06164 -0.00619
C 10.92471 6.26286 -0.02162
C 11.10702 4.91732 0.00889
C 9.77187 4.30775 -0.00481
C 9.88127 2.82123 0.00979
C 11.03654 2.07244 0.01443
C 11.08704 0.70445 0.03505
C 9.77681 34.07676 -0.02815
C 12.28481 32.65657 -0.04147
C 13.49941 31.91117 -0.05302
C 13.55864 30.56752 0.00213
C 12.28873 29.86608 -0.00066
C 12.27566 28.45209 -0.00289
C 9.78308 12.8323 0.00422
C 11.1835 13.35149 0.00798
C 11.18468 14.79549 0.00228
C 9.92499 15.59831 -0.00114
C 8.49547 0.78982 0.01945
C 7.22344 0.06514 0.01416
C 9.86798 32.70024 0.03542
C 11.14432 31.92884 0.02299
C 11.03454 30.52361 0.00244
C 9.81026 29.82248 -0.01717
C 9.79025 28.47047 0.05265
C 11.01157 27.79366 -0.01952
C 13.5421 27.73801 0.00028
C 11.0575 26.3559 -0.02813
C 9.77287 24.2011 0.00052
C 10.98771 23.45328 -0.03682
C 11.08958 22.05786 0.01965
C 9.76406 21.31455 0.02058
C 9.76559 19.89597 -0.01957
C 11.03221 19.17388 -0.0108
C 11.15089 17.7169 -0.00368
C 9.87147 16.94023 -0.02696
C 9.78203 25.59489 0.00374
C 13.51717 26.31085 -0.02213
C 12.21669 25.60923 0.03698
C 12.24149 24.22271 -0.00109
C 16.00889 23.4328 -0.02957
C 15.95668 22.00971 -0.04422
C 14.68507 21.40596 0.00654
C 14.69255 20.05943 -0.00703
C 15.80911 19.29058 -0.04076
C 14.79728 2.56826 -0.00652
C 15.88984 2.05945 0.0058
C 15.99971 0.67195 -0.00865
C 14.74419 24.19923 -0.00831
C 14.72546 0.00254 0.00675
C 18.44038 31.96647 0.00742
C 18.41522 30.44893 -0.01594
C 17.1964 29.81708 0.0106
C 17.15638 28.33884 -0.01154
C 18.39909 27.70576 -0.01721
C 18.44491 26.25344 -0.02422
C 17.19912 25.52482 0.01277
C 17.1756 24.15553 0.00096
C 17.19203 32.6055 -0.00311
C 8.62529 2.23713 -0.01454
C 14.72833 25.5748 0.00364
C 15.96896 27.63759 0.00143
C 13.43976 23.53543 -0.00491
C 13.43755 22.12835 0.03338
C 12.27798 21.33034 -0.0258
C 12.24144 19.91774 -0.0331
C 13.4639 19.27175 -0.00316
C 13.64007 17.88534 0.02188
C 12.5385 16.99979 -0.01979
C 12.13805 15.72753 0.02691
C 15.95261 26.2974 -0.017
C 12.27994 4.13973 -0.01581
C 13.44637 2.0989 0.04892
C 13.55196 0.68019 -0.00111
C 12.28439 0.00761 -0.03557
C 14.67842 32.63392 0.03754
C 15.95234 31.94266 0.01739
C 15.97432 30.5009 0.00755
C 14.77662 29.72005 -0.0054
C 14.80142 28.32168 0.00667
C 12.20814 2.78931 0.01452
C 18.38528 23.37668 -0.01527
C 7.25623 2.81359 0.01241
C 8.59202 5.00429 0.02162
C 2.43444 7.01819 -0.0008
C 3.70447 6.25163 0.0288
C 3.81474 4.80305 0.00393
C 2.46828 3.96518 0.00895
C 2.68482 34.02613 0.00685
C 4.75188 32.69172 0.02888
C 6.03893 31.97774 -0.00482
C 6.08929 30.62096 -0.01384
C 4.93433 29.82373 0.03693
C 4.90024 28.49215 0.01745
C 6.09625 27.71701 0.00488
C 6.12716 26.32752 -0.01004
C 4.83815 25.5515 -0.02896
C 4.86615 24.17215 -0.00131
C 6.16812 23.43387 -0.01118
C 6.16518 21.99047 -0.014
C 4.91984 21.36792 0.02147
C 2.5507 8.48053 -0.01362
C 3.70557 9.17876 -0.00892
C 3.72238 10.68066 -0.04848
C 2.50056 11.40499 0.01572
C 3.67377 30.49033 -0.00966
C 2.39458 29.80298 -0.03337
C 2.40282 28.36047 0.01227
C 3.67516 27.73089 0.00873
C 3.59452 26.33904 -0.00049
C 2.41993 25.62767 0.00848
C 2.41075 24.13395 -0.01303
C 3.66286 23.4971 -0.01378
C 4.89765 19.92196 0.00373
C 3.66232 22.02639 0.02635
C 2.39703 19.89237 0.01396
C 3.62013 19.1599 0.01849
C 3.56816 17.78721 -0.01142
C 2.31853 17.07463 -0.00562
C 2.34654 15.63821 -0.00494
C 3.56419 14.96576 0.00054
C 3.65083 13.50895 0.03007
C 2.39358 12.7966 -0.00095
C 2.41876 21.30066 0.0127
C 6.07829 19.12896 -0.00191
C 6.09849 17.78652 0.00438
C 4.86105 17.01964 0.01291
C 7.39756 24.20523 -0.00428
C 8.55926 23.50294 0.03101
C 8.55238 22.00942 -0.01536
C 7.41263 21.30052 -0.02689
C 7.41513 19.91731 -0.01046
C 8.55901 19.17758 -0.00891
C 8.62786 17.71468 0.02819
C 7.34747 17.04063 0.00165
C 7.3861 25.606 -0.02245
C 7.34996 15.67619 -0.02971
C 8.56952 13.53069 -0.01789
C 7.34686 12.77475 0.00444
C 7.38291 11.36025 -0.00925
C 8.58845 10.61496 0.01877
C 8.6664 9.17592 0.01363
C 7.4051 8.47579 -0.02162
C 7.39548 7.1126 0.00415
C 8.58037 6.32527 -0.0014
C 8.61529 14.98074 0.02894
C 7.20988 4.24009 0.0076
C 8.5792 26.34538 0.00985
C 7.32555 28.52511 -0.01111
C 4.82515 15.61101 0.00093
C 6.08654 14.98493 0.00057
C 6.12322 13.47746 -0.01634
C 4.84944 12.83762 -0.00334
C 4.93019 11.37232 0.02339
C 6.1993 10.58636 0.01641
C 6.14789 9.17253 -0.00719
C 4.94573 8.52991 0.01364
C 8.57334 27.86025 -0.01275
C 4.93272 7.12127 -0.01062
C 5.93101 4.96973 0.03589
C 6.0684 2.15829 -0.02759
C 5.91869 0.782 0.0402
C 4.52245 0.03025 0.00572
C 7.3533 32.68919 0.03592
C 8.64231 32.03671 0.00406
C 8.62349 30.60562 0.00943
C 7.38318 29.9197 0.02841
C 6.09716 6.36265 -0.00033
C 3.61924 31.89062 -0.02929
C 18.41554 21.85865 0.01087
C 17.11434 19.77587 0.01511
C 33.11866 30.60135 0.01428
C 31.86847 29.83671 -0.02142
C 31.9263 28.34562 0.0544
C 33.07285 27.61802 0.00026
C 33.14099 26.25566 0.00682
C 31.89497 25.57285 -0.01779
C 31.98443 24.1302 0.03794
C 33.16487 23.45059 0.01927
C 33.21588 21.97953 0.01574
C 32.00284 21.36492 -0.02383
C 31.97277 19.89839 -0.01429
C 33.16306 19.22706 -0.0136
C 33.19228 17.7748 0.00594
C 31.97803 17.05215 -0.02474
C 31.79976 15.61559 0.00369
C 33.02808 14.93565 0.00455
C 33.09342 13.52062 -0.00644
C 33.17875 31.97781 -0.01694
C 31.96815 32.67725 0.01713
C 29.47597 0.03161 0.00346
C 30.82631 0.74051 0.00307
C 29.41527 19.8253 0.01836
C 30.68068 19.20786 0.03531
C 30.70944 17.80931 -0.00669
C 29.42672 17.08744 0.0101
C 29.37027 15.71566 0.01705
C 30.53755 14.8224 -0.0405
C 30.52471 13.4348 -0.01303
C 29.28974 12.61824 -0.01461
C 31.81596 12.87757 -0.01839
C 29.48626 11.21181 -0.02155
C 30.86064 9.17644 -0.03735
C 29.60594 8.67181 -0.00971
C 29.52564 7.18009 0.01518
C 30.77095 6.45698 0.01908
C 30.74535 5.03122 0.07705
C 29.50785 4.30905 0.0103
C 29.56414 2.84447 0.02108
C 30.79596 2.15607 0.00716
C 30.80371 10.71805 -0.00944
C 31.98533 11.34734 0.00137
C 33.23688 10.65527 0.00199
C 33.29509 9.22336 0.04381
C 1.15478 19.2513 -0.01678
C 1.15125 17.79227 0.01223
C 34.37105 17.08065 0.00648
C 34.37302 15.62816 0.02114
C 1.06608 14.90535 -0.02957
C 1.16161 13.54959 0.00343
C 34.38633 12.80758 -0.02656
C 34.42588 11.40984 -0.02442
C 34.39594 19.9027 0.01951
C 1.30965 10.63049 -0.00027
C 0.10236 8.47367 -0.02302
C 0.05611 7.07201 -0.02849
C 1.3165 6.342 0.02931
C 1.31587 4.88739 0.00628
C 0.03262 4.35694 -0.0345
C 0.1537 2.88491 -0.00931
C 1.35919 2.28957 -0.00939
C 1.47417 0.73393 -0.00468
C 1.33596 9.20723 -0.00583
C 29.45521 21.27251 -0.03039
C 0.01039 21.30902 -0.02213
C 1.17978 23.46399 0.00723
C 32.07996 8.48882 0.02806
C 32.0216 7.04355 0.01504
C 33.25522 6.34149 -0.00069
C 33.22854 4.94643 0.04926
C 31.98748 4.35857 -0.03838
C 32.03169 2.86451 0.00349
C 33.21463 2.1343 -0.00323
C 33.24316 0.74532 -0.00841
C 1.15505 22.08399 0.02712
C 32.03234 0.00045 0.0001
C 1.19035 31.9161 -0.01404
C 1.20201 30.51005 0.01027
C 34.40785 29.82547 0.01831
C 34.34806 28.36775 -0.01037
C 1.0729 27.66961 -0.00439
C 1.20898 26.31087 -0.00598
C 0.04427 25.57152 -0.05239
C 34.41566 24.18466 0.03076
C 0.00388 32.72351 -0.02927
C 17.13942 21.18917 0.00199
C 30.72374 22.00996 -0.01415
C 29.5724 24.188 -0.02049
C 22.13184 29.79543 0.00733
C 22.08645 28.31504 -0.00178
C 23.33313 27.65403 0.00768
C 23.32609 26.25809 -0.0276
C 22.16652 25.46587 0.03005
C 22.20446 24.08585 -0.04078
C 23.36631 23.4092 0.02117
C 23.53848 22.04006 0.02737
C 22.23279 21.40279 -0.00498
C 22.07693 19.94739 0.00135
C 23.49345 2.14842 0.03102
C 23.26453 0.76725 0.02555
C 22.08815 34.04988 0.01423
C 24.50813 32.76721 -0.00285
C 25.75659 32.00119 -0.009
C 25.78244 30.5695 -0.01199
C 24.62596 29.79926 -0.00229
C 23.33579 30.58225 -0.02118
C 23.29333 31.91681 -0.01971
C 22.05389 32.63152 -0.01586
C 19.59245 0.1337 -0.01107
C 18.37908 19.15004 -0.00478
C 18.39604 0.68483 -0.01662
C 17.1329 33.98342 -0.01185
C 19.61639 32.72601 0.01126
C 20.87006 32.01049 0.01852
C 20.85458 30.55455 -0.00381
C 19.64531 29.82791 0.03046
C 19.65361 28.3794 0.0296
C 24.60153 28.36361 -0.00938
C 20.90527 27.66672 0.03374
C 19.68316 25.58379 -0.03213
C 19.74025 24.09672 0.02239
C 20.947 23.42112 0.01153
C 20.93129 22.02203 0.02734
C 19.70815 21.25391 -0.0055
C 19.59496 19.8484 0.01515
C 21.00687 19.2644 -0.00225
C 20.8474 0.58594 0.00071
C 20.873 26.22133 -0.02845
C 25.85828 27.69709 -0.0264
C 25.79882 26.3398 -0.01154
C 24.65219 25.60534 0.00684
C 28.27591 17.79386 -0.00621
C 28.17797 14.76886 0.02611
C 28.18941 13.64344 0.02198
C 28.32894 6.42402 0.01094
C 28.2826 4.97213 0.00235
C 27.17972 4.15485 0.01495
C 27.10443 2.7892 0.01259
C 28.35026 2.14402 0.01799
C 28.15629 19.17702 0.00194
C 28.28184 0.65995 0.01699
C 29.52772 32.6663 0.01177
C 30.69877 31.97497 0.04266
C 30.71202 30.50162 0.01324
C 29.45463 29.91166 0.0014
C 29.49224 28.47342 0.00924
C 30.67393 27.71912 0.02326
C 30.67705 26.31377 0.00261
C 29.47524 25.57937 0.03265
C 27.04423 34.03982 -0.00416
C 30.72607 23.37345 -0.01854
C 27.01137 19.99968 0.04185
C 28.35556 22.1055 0.01257
C 24.63244 24.16283 -0.01052
C 25.81767 23.44729 -0.01679
C 25.8527 22.06139 0.00367
C 24.71829 21.31871 0.04306
C 24.51409 2.74552 0.00996
C 25.88639 2.06301 0.00195
C 25.75132 0.7274 -0.00802
C 24.45994 0.08171 -0.00218
C 27.07969 21.34606 0.02316
C 27.02783 32.68463 -0.01654
C 28.17092 30.55794 -0.0032
C 27.02208 29.80655 0.00622
C 27.02906 28.44128 -0.02815
C 28.30203 27.68578 -0.00942
C 28.26994 26.30777 0.00487
C 27.04642 25.56484 0.00826
C 27.06647 24.09531 -0.00294
C 28.27185 23.50372 0.00152
C 28.32614 31.99019 -0.00037
C 2.45913 32.65167 0.03368
