373
Graphene
C 34.41793 0.12246 0.01295
C 9.783 8.51329 0.00244
C 9.81597 7.12373 -0.01717
C 10.9709 6.3281 0.05265
C 10.9199 4.91028 -0.01952
C 9.63134 4.29742 -0.02813
C 9.74289 2.84453 0.00374
C 11.04745 2.21281 0.00052
C 11.01143 0.83136 -0.03682
C 9.75855 0.15897 0.01965
C 12.19048 32.65171 0.02058
C 13.38945 31.90988 -0.01957
C 13.42135 30.47168 -0.0108
C 12.15573 29.85864 -0.00368
C 12.23989 28.3393 -0.02696
C 13.5249 27.67891 -0.00114
C 13.47957 26.30842 0.00228
C 12.23064 25.66257 0.00798
C 12.27281 24.21682 0.00422
C 13.52115 23.38847 0.0351
C 11.0676 9.18775 0.02299
C 13.50465 21.9426 -0.03113
C 11.06337 10.59777 0.03542
C 9.89681 12.82362 0.01945
C 9.71988 32.76199 -0.02689
C 10.90268 32.00145 -0.01046
C 10.96828 30.5553 -0.00891
C 9.75614 29.8699 0.02819
C 9.7402 28.45882 0.00165
C 10.97295 27.76133 -0.02971
C 10.97463 26.30915 0.02894
C 9.81308 25.57565 -0.01789
C 9.80818 24.1383 0.00444
C 11.07788 23.40698 -0.00925
C 11.10825 21.96174 0.01877
C 9.84374 21.38943 0.01363
C 9.87828 19.93339 -0.02162
C 11.0423 19.14808 0.00415
C 11.0479 17.75428 -0.0014
C 9.89887 17.0637 0.02162
C 9.9828 15.5481 0.0076
C 11.1779 14.95138 0.01241
C 11.22988 13.52563 -0.01454
C 9.84091 11.41758 0.01416
C 12.2972 21.19467 0.02098
C 12.29167 19.77119 0.01848
C 13.53189 19.08183 -0.00619
C 15.94398 26.08043 -0.01581
C 14.72656 25.41359 0.01452
C 14.73396 24.10244 0.04892
C 16.01003 23.31473 -0.00111
C 16.00984 21.83738 -0.03557
C 14.78426 21.28748 0.03754
C 14.73455 19.80243 0.01739
C 16.00861 19.08271 0.00755
C 16.04535 17.62408 -0.0054
C 14.80542 16.81788 0.00667
C 14.84838 15.51114 0.00143
C 16.22507 14.71539 -0.017
C 15.9615 13.27922 0.00364
C 14.85519 12.73455 -0.00831
C 14.66358 7.01889 -0.02957
C 15.80734 6.35382 -0.04422
C 15.90174 4.9831 0.00654
C 14.59401 4.19188 -0.00703
C 14.67938 2.7658 -0.04076
C 15.93255 27.70105 0.02691
C 14.77396 28.40897 -0.01979
C 14.70222 29.76749 0.02188
C 15.86238 30.43271 -0.00316
C 13.59262 17.59131 -0.02162
C 12.30868 17.01723 0.00889
C 12.40611 15.59418 -0.00481
C 13.63276 14.80007 0.00979
C 13.62158 13.3869 0.01443
C 12.36897 12.69521 0.03505
C 12.30733 11.28958 -0.02815
C 13.49473 10.60632 -0.04147
C 13.43927 9.22737 -0.05302
C 7.30273 0.03739 -0.01536
C 12.24156 8.44095 0.00213
C 13.38579 6.40418 -0.00289
C 13.42492 4.93219 0.00028
C 12.19693 4.22053 -0.02213
C 12.28065 2.87628 0.03698
C 13.48139 2.07447 -0.00109
C 13.43245 0.74187 -0.00491
C 12.16859 0.01559 0.03338
C 14.6909 32.69624 -0.0258
C 15.83764 31.885 -0.0331
C 12.16442 7.05252 -0.00066
C 8.53109 0.77269 0.03101
C 8.51644 2.14025 -0.00428
C 7.31322 2.9121 -0.02245
C 3.68163 5.04466 0.03368
C 2.51774 4.3412 -0.02929
C 2.39519 2.93957 -0.00966
C 3.5997 2.18068 -0.03337
C 3.55115 0.73047 0.01227
C 2.32454 0.12101 0.00873
C 4.82558 32.7745 -0.00049
C 6.04775 32.00587 0.00848
C 6.02827 30.58069 -0.01303
C 4.79692 29.91727 -0.01378
C 4.85787 28.48939 0.02635
C 6.05317 27.79261 0.0127
C 6.05583 26.35883 0.01396
C 4.8548 25.56196 0.01849
C 4.96907 24.13293 -0.01142
C 6.16854 23.46699 -0.00562
C 6.18133 22.02008 -0.00494
C 4.88768 21.34865 0.00054
C 4.9319 19.98664 0.03007
C 3.71086 6.46276 -0.00077
C 2.53139 7.12367 0.01305
C 2.36968 8.57927 0.0276
C 3.60872 9.32144 0.00988
C 3.61383 30.6288 0.0174
C 2.37436 29.88534 0.03828
C 2.46046 28.49221 0.01226
C 3.67337 27.84147 -0.00279
C 3.75421 26.27703 0.01996
C 2.39606 25.61437 -0.03996
C 2.4005 24.17719 0.01465
C 3.69188 23.45087 -0.00074
C 3.64557 22.04158 -0.00518
C 6.21302 19.27075 -0.00095
C 2.40324 21.36374 0.0086
C 3.75352 19.3273 0.017
C 3.69075 17.82259 -0.03113
C 2.44479 17.15206 -0.02566
C 2.44832 15.74546 -0.00094
C 3.62572 14.93287 0.02322
C 3.72164 13.56561 -0.00725
C 2.37454 12.8273 -0.05697
C 2.444 11.427 0.01087
C 3.66843 10.7062 -0.01343
C 2.43488 19.91542 -0.00643
C 15.96125 2.14419 -0.00652
C 6.19148 17.8668 0.01572
C 4.93222 15.67807 -0.00892
C 8.60649 23.51664 -0.01634
C 8.60803 22.09366 -0.00334
C 7.39598 21.32285 0.02339
C 7.39281 19.95393 0.01641
C 8.62969 19.18501 -0.00719
C 8.59459 17.71778 0.01364
C 7.43442 17.0237 -0.01062
C 7.47189 15.72514 -0.00033
C 8.73704 14.97886 0.03589
C 8.66841 13.52344 -0.02759
C 7.4527 12.91371 0.0402
C 7.39656 11.45806 0.00572
C 8.63379 10.70503 0.03592
C 8.60174 9.29383 0.00406
C 7.35338 8.57647 0.00943
C 7.38185 7.15524 0.02841
C 8.6439 6.38606 -0.01111
C 8.48335 5.03406 -0.01275
C 7.25439 4.36824 0.00985
C 7.38195 24.14949 0.00057
C 7.34353 25.55232 0.00093
C 8.59051 26.18555 0.01291
C 8.61535 27.65259 0.00438
C 6.15028 14.94547 -0.01362
C 6.20051 13.49943 -0.0008
C 4.96818 12.82735 0.0288
C 4.87829 11.44388 0.00393
C 6.15779 10.72687 0.00895
C 6.16831 9.33495 0.00685
C 4.89528 8.57254 0.02888
C 4.94583 7.21146 -0.00482
C 6.1034 6.37938 -0.01384
C 4.88803 17.15966 -0.04848
C 6.01511 5.03956 0.03693
C 4.86559 2.88394 0.00488
C 6.05155 2.19019 -0.01004
C 6.08391 0.79103 -0.02896
C 4.84375 0.0708 -0.00131
C 7.36429 32.7148 -0.01118
C 8.49362 32.02875 -0.014
C 8.48964 30.63487 0.02147
C 7.28136 29.87729 0.00373
C 7.32667 28.43906 -0.00191
C 4.8005 4.27266 0.01745
C 3.58098 32.10524 0.0073
C 15.89246 0.6909 0.0058
C 17.11602 32.61387 0.00675
C 30.6815 2.17713 0.00716
C 30.62553 0.72254 0.00307
C 29.39689 34.05074 0.00346
C 31.89462 32.76699 0.01713
C 33.0808 32.0659 -0.01694
C 33.11249 30.54154 0.01428
C 31.85445 29.84755 -0.02142
C 31.96606 28.45646 0.0544
C 33.11835 27.6831 0.00026
C 33.14553 26.29782 0.00682
C 31.95199 25.53228 -0.01779
C 31.99345 24.1751 0.03794
C 33.19201 23.48432 0.01927
C 33.20093 22.06185 0.01574
C 31.98329 21.3553 -0.02383
C 31.94349 19.89279 -0.01429
C 33.26898 19.12382 -0.0136
C 33.15765 17.77371 0.00594
C 31.84188 17.15653 -0.02474
C 29.5159 2.89534 0.02108
C 31.89226 15.63423 0.00369
C 29.40422 4.28566 0.0103
C 30.72273 6.46744 0.01908
C 29.48274 29.83573 0.00261
C 29.47384 28.41481 0.03265
C 30.69058 27.72159 -0.02049
C 30.67281 26.27501 -0.01854
C 29.44237 25.62273 -0.01415
C 29.50878 24.1374 -0.03039
C 30.78049 23.47027 0.01836
C 30.76191 22.03379 0.03531
C 29.5558 21.36887 -0.00669
C 30.7217 19.24318 0.0101
C 30.63741 17.81399 0.01705
C 30.67247 15.02997 -0.0405
C 30.53938 13.615 -0.01303
C 29.56633 12.75507 -0.01461
C 29.37952 11.4107 -0.02155
C 30.71765 10.66041 -0.00944
C 30.69363 9.32969 -0.03735
C 29.49829 8.49198 -0.00971
C 29.53233 7.07724 0.01518
C 30.66608 5.01714 0.07705
C 33.10761 14.96534 0.00455
C 33.20191 13.57159 -0.00644
C 31.91074 12.87389 -0.01839
C 0.01739 19.86709 0.01951
C 1.24334 19.21426 -0.01678
C 1.16328 17.8116 0.01223
C 0.02982 17.03413 0.00648
C 34.34582 15.65353 0.02114
C 1.20093 14.9882 -0.02957
C 1.14796 13.53894 0.00343
C 34.3626 12.77555 -0.02656
C 34.35906 11.47388 -0.02442
C 1.17451 10.78704 -0.00027
C 1.2056 9.34808 -0.00583
C 34.37641 8.60525 -0.02302
C 0.05059 7.22426 -0.02849
C 1.27354 6.47248 0.02931
C 1.25577 5.07692 0.00628
C 34.41673 4.3312 -0.0345
C 34.38737 2.95539 -0.00931
C 1.20862 2.23824 -0.00939
C 1.16856 0.8013 -0.00468
C 34.38611 21.31092 -0.02213
C 1.19107 22.03441 0.02712
C 1.16372 23.48145 0.00723
C 34.3265 24.19801 0.03076
C 31.92737 11.45293 0.00137
C 33.11772 10.76011 0.00199
C 33.10023 9.30533 0.04381
C 31.95141 8.54958 0.02806
C 31.94176 7.21296 0.01504
C 33.24304 6.54766 -0.00069
C 33.16214 5.0666 0.04926
C 31.94442 4.35447 -0.03838
C 31.94226 2.93826 0.00349
C 30.67272 30.5805 0.02326
C 33.14039 2.25134 -0.00323
C 31.94592 0.08497 0.0001
C 34.318 32.73711 -0.02927
C 1.15461 31.98526 -0.01404
C 1.19709 30.56594 0.01027
C 34.35477 29.81802 0.01831
C 34.35568 28.4324 -0.01037
C 1.16917 27.71064 -0.00439
C 1.18167 26.33099 -0.00598
C 34.40229 25.64285 -0.05239
C 33.20983 0.82349 -0.00841
C 30.64203 31.94693 0.00924
C 29.43471 32.6326 0.0014
C 27.02901 0.03998 0.01324
C 19.57004 28.35769 0.02239
C 20.8371 27.58537 0.01153
C 20.77066 26.1205 0.02734
C 19.58154 25.46585 -0.0055
C 19.75142 24.08428 0.01515
C 20.94553 23.43781 -0.00225
C 20.88743 6.35339 0.00071
C 20.92253 4.93985 -0.01107
C 19.67172 4.27434 -0.01586
C 19.69811 2.89508 -0.01971
C 20.84664 2.11237 -0.02118
C 20.74584 0.70669 0.00733
C 19.58086 34.03556 -0.00178
C 22.00332 32.61097 0.00768
C 23.26506 31.88166 -0.0276
C 23.31535 30.43458 0.03005
C 22.08769 29.69002 -0.04078
C 21.93796 28.36098 0.02117
C 23.30122 27.62834 0.02737
C 19.62635 29.71366 -0.03213
C 20.94865 30.41917 -0.02845
C 20.85098 31.88057 0.03374
C 19.66218 32.58778 0.0296
C 18.30119 31.86624 -0.00311
C 18.3136 30.45685 0.00742
C 17.18541 29.70645 -0.01594
C 17.19364 28.3406 0.0106
C 18.3623 27.59897 -0.01154
C 18.33202 26.17503 -0.01721
C 17.11134 25.47167 -0.02422
C 17.18017 24.04381 0.01277
C 18.48996 23.35475 0.00096
C 23.30232 26.22928 -0.00498
C 18.48373 22.05276 -0.01527
C 17.31904 19.814 0.00199
C 17.27939 16.92345 0.01511
C 17.29875 15.67011 -0.00478
C 18.41933 4.94552 -0.01662
C 17.22496 4.29444 -0.01185
C 17.23995 2.81541 0.01126
C 18.41043 2.07244 0.01852
C 18.3252 0.69064 -0.00381
C 17.03792 34.01419 0.03046
C 17.38873 21.19751 0.01087
C 14.65573 0.01152 -0.00865
C 22.05281 25.43385 0.00135
C 23.34682 4.98864 0.02555
C 28.23272 30.50213 0.00826
C 26.96237 29.73854 -0.00294
C 26.96048 28.34912 0.00152
C 28.26697 27.69676 0.01257
C 28.27265 26.28778 0.02316
C 27.11436 25.53995 0.04185
C 27.10397 24.12279 0.00194
C 28.23931 23.30986 -0.00621
C 28.30688 21.93184 0.02611
C 28.17733 10.64107 0.02198
C 28.2647 9.21212 0.01094
C 27.00093 8.54118 0.00235
C 26.88623 7.10273 0.01495
C 28.20181 6.43578 0.01259
C 28.19567 5.04114 0.01799
C 26.98962 4.28545 0.01699
C 27.05216 2.82442 -0.00416
C 28.20841 2.09981 0.01177
C 28.1915 0.71767 0.04266
C 28.08937 31.94209 0.00487
C 26.95187 32.68335 -0.00942
C 24.59093 34.04054 -0.02815
C 25.78728 0.6851 0.00622
C 22.29263 4.20707 0.01423
C 22.18126 2.76973 -0.00285
C 23.37141 2.05787 -0.009
C 23.33952 0.58401 -0.01199
C 21.95977 34.01462 -0.00229
C 24.54129 32.68078 -0.00938
C 25.69106 31.89072 -0.0264
C 25.69241 30.41993 -0.01154
C 24.48846 29.7367 0.00684
C 22.09247 24.01788 0.03102
C 24.55365 28.28889 -0.01052
C 25.80959 26.21635 0.00367
C 24.5489 25.55496 0.04306
C 24.62084 24.2168 0.00996
C 25.65138 23.51258 0.00195
C 25.74932 6.3342 -0.00802
C 25.74625 4.89333 -0.00218
C 24.52232 4.20393 -0.01654
C 24.49156 2.83487 -0.00037
C 25.80164 2.14106 -0.0032
C 25.80123 27.61334 -0.01679
C 2.34394 32.75942 0.00402
