389
Graphene
C 34.36269 34.03887 0.01295
C 14.74333 8.59589 -0.02162
C 14.74241 7.10696 0.00415
C 15.89508 6.42844 -0.0014
C 15.96365 5.05666 0.02162
C 14.75357 4.34813 0.0076
C 14.7685 2.91382 0.01241
C 15.95055 2.12246 -0.01454
C 15.90598 0.59133 0.01945
C 14.71191 34.05607 0.01416
C 15.97901 9.30008 0.01363
C 17.20471 32.63877 0.03542
C 18.49612 30.5152 0.00244
C 17.2865 29.78666 -0.01717
C 17.12524 28.41678 0.05265
C 18.4966 27.64517 -0.01952
C 18.43678 26.23299 -0.02813
C 17.17175 25.46663 0.00374
C 17.21224 24.01987 0.00052
C 18.38107 23.29878 -0.03682
C 18.44021 21.88626 0.01965
C 18.46971 31.91265 0.02299
C 17.16341 21.30214 0.02058
C 15.90317 10.6884 0.01877
C 14.81664 12.9146 0.00444
C 12.29028 2.88253 0.00572
C 13.56189 2.18287 0.03592
C 13.52058 0.72851 0.00406
C 12.39012 34.07002 0.00943
C 14.70504 32.55622 0.02841
C 16.02418 31.99813 -0.01111
C 16.06227 30.50099 -0.01275
C 14.79255 30.06747 0.00985
C 16.01993 27.52471 -0.02245
C 14.72749 11.49221 -0.00925
C 16.12054 26.33636 -0.00428
C 16.00023 22.06514 -0.01536
C 14.73404 21.34458 -0.02689
C 14.78009 19.89301 -0.01046
C 15.99867 19.14919 -0.00891
C 15.99701 17.6825 0.02819
C 14.78042 17.01768 0.00165
C 14.77825 15.59466 -0.02971
C 16.02038 14.95052 0.02894
C 16.03407 13.48533 -0.01789
C 15.93732 23.36141 0.03101
C 17.1534 19.87348 -0.01957
C 18.44477 19.19938 -0.0108
C 18.47938 17.85236 -0.00368
C 19.69337 24.11182 -0.00109
C 20.95532 23.45689 -0.00491
C 20.95686 21.98017 0.03338
C 19.67399 21.31537 -0.0258
C 19.67237 19.92678 -0.0331
C 20.94343 19.21592 -0.00316
C 20.95468 17.85623 0.02188
C 19.65962 17.10937 -0.01979
C 19.70091 15.6679 0.02691
C 19.66368 25.4738 0.03698
C 20.8973 14.95035 -0.01581
C 19.66104 12.79156 0.04892
C 19.63872 11.29698 -0.00111
C 20.87836 10.57573 -0.03557
C 20.94274 9.12372 0.03754
C 19.68502 8.52441 0.01739
C 19.6087 7.07111 0.00755
C 20.8029 6.35111 -0.0054
C 20.81921 4.94204 0.00667
C 19.57289 4.29922 0.00143
C 20.90134 13.48773 0.01452
C 20.88643 26.22905 -0.02213
C 20.91551 27.66492 0.00028
C 19.73665 28.3482 -0.00289
C 17.24765 17.12216 -0.02696
C 17.26445 15.67287 -0.00114
C 18.45349 14.90028 0.00228
C 18.49978 13.47197 0.00798
C 17.29909 12.72079 0.00422
C 17.16972 11.33543 0.0351
C 18.39288 10.62866 -0.03113
C 18.47253 9.22015 0.02098
C 17.24503 8.58817 0.01848
C 17.13802 7.15063 -0.00619
C 18.36903 6.40109 -0.02162
C 18.31353 5.0192 0.00889
C 17.20822 4.23062 -0.00481
C 17.17622 2.79005 0.00979
C 18.36031 2.1113 0.01443
C 18.41386 0.70817 0.03505
C 17.18454 0.01795 -0.02815
C 19.68907 32.6799 -0.04147
C 20.92277 31.90337 -0.05302
C 20.92015 30.50504 0.00213
C 19.70672 29.7582 -0.00066
C 12.28479 4.33844 0.0402
C 13.58457 5.02 -0.02759
C 13.47551 6.4858 0.03589
C 12.2699 7.16403 -0.00033
C 6.12755 14.93663 0.0086
C 6.13641 13.47592 -0.00643
C 4.88428 12.79713 0.017
C 4.85589 11.35143 -0.03113
C 6.10445 10.65555 -0.02566
C 6.17137 9.26513 -0.00094
C 4.92321 8.62559 0.02322
C 4.96759 7.15878 -0.00725
C 6.17042 6.41953 -0.05697
C 4.89915 15.60002 -0.00518
C 6.20826 4.94359 0.01087
C 4.84089 2.8797 0.00988
C 6.09183 2.12296 0.0276
C 6.13614 0.64188 0.01305
C 4.925 34.07243 -0.00077
C 7.3229 19.80904 0.03368
C 8.54706 19.30233 -0.02929
C 8.67282 17.71695 -0.00966
C 7.38456 17.07808 -0.03337
C 7.37516 15.6699 0.01227
C 4.91753 4.31804 -0.01343
C 4.89813 17.06493 -0.00074
C 6.14822 17.80907 0.01465
C 6.07628 19.43377 -0.03996
C 2.48382 19.9103 -0.04999
C 3.67889 19.19172 0.04505
C 3.71008 17.72925 0.03284
C 2.45377 16.98264 -0.04307
C 2.47157 15.54486 0.03189
C 3.68384 14.86817 0.00031
C 3.71059 13.47153 -0.003
C 2.34039 12.78332 0.01402
C 2.33621 11.41151 0.02379
C 3.57287 10.70535 0.00907
C 3.62581 9.25615 0.00643
C 2.44799 8.55145 -0.01509
C 2.45824 7.07569 0.03267
C 3.73225 6.4037 0.02374
C 3.72085 4.99058 0.00402
C 2.4722 4.24643 0.0073
C 2.44494 2.82003 0.0174
C 3.6715 2.14681 0.03828
C 3.70768 0.71726 0.01226
C 2.54299 0.00122 -0.00279
C 4.79245 19.93929 0.01996
C 8.5578 14.91739 0.00873
C 19.57668 2.90811 -0.017
C 8.56874 13.56975 -0.00049
C 7.25309 11.35861 -0.01303
C 11.03939 4.98218 0.00488
C 9.84042 4.2912 -0.01004
C 9.74244 2.72935 -0.02896
C 11.05697 2.08096 -0.00131
C 11.07774 0.57079 -0.01118
C 9.80768 0.00222 -0.014
C 13.43761 32.06743 0.02147
C 13.50692 21.94738 0.00373
C 12.33921 19.84279 -0.00191
C 10.99211 6.51655 0.01745
C 13.59825 19.21536 0.00438
C 12.35048 17.11079 0.00093
C 12.25069 15.67821 0.00057
C 13.45109 14.95505 -0.01634
C 13.44766 13.56095 -0.00334
C 12.29398 12.83267 0.02339
C 12.23977 11.38482 0.01641
C 13.46859 10.75741 -0.00719
C 13.58605 9.27031 0.01364
C 12.31173 8.55398 -0.01062
C 13.63642 17.76533 0.01291
C 9.77318 7.2211 0.03693
C 9.83844 8.67438 -0.01384
C 11.05664 9.32042 -0.00482
C 8.54793 10.64792 -0.01378
C 8.54086 9.25921 0.02635
C 7.344 8.5407 0.0127
C 7.35058 7.14292 0.01396
C 8.59164 6.43448 0.01849
C 8.59706 4.99288 -0.01142
C 7.39434 4.30151 -0.00562
C 7.29403 2.91532 -0.00494
C 8.45334 2.10041 0.00054
C 8.58138 0.5713 0.03007
C 7.31858 0.05718 -0.00095
C 9.77565 19.95841 0.01572
C 11.06133 19.4041 -0.04848
C 11.11877 17.84596 -0.00892
C 9.97784 17.10067 -0.01362
C 9.84827 15.61258 -0.0008
C 11.05778 14.92671 0.0288
C 11.04838 13.49936 0.00393
C 9.83193 12.79386 0.00895
C 9.75497 11.39636 0.00685
C 10.97669 10.76172 0.02888
C 7.40699 12.83958 0.00848
C 2.53791 21.23618 -0.03291
C 20.81624 2.19599 0.00364
C 19.65053 0.01865 -0.02957
C 30.70668 4.99018 0.07705
C 29.48787 4.29924 0.0103
C 29.49944 2.84244 0.02108
C 30.7229 2.17245 0.00716
C 30.746 0.71508 0.00307
C 29.55996 0.01271 0.00346
C 31.92029 32.65304 0.01713
C 33.12935 31.9714 -0.01694
C 33.11552 30.51066 0.01428
C 30.74173 6.39446 0.01908
C 31.90934 29.78774 -0.02142
C 33.25169 27.64235 0.00026
C 33.25499 26.20664 0.00682
C 31.95252 25.57852 -0.01779
C 31.96141 24.13227 0.03794
C 33.2014 23.42065 0.01927
C 33.26847 22.03535 0.01574
C 32.0522 21.26122 -0.02383
C 32.0123 19.83534 -0.01429
C 33.2502 19.20654 -0.0136
C 31.97135 28.33648 0.0544
C 33.208 17.71511 0.00594
C 29.50457 7.13214 0.01518
C 30.71233 9.24997 -0.03735
C 30.73463 30.46343 0.01324
C 29.48154 29.75089 0.0014
C 29.52093 28.35435 0.00924
C 30.73853 27.64467 0.02326
C 30.72236 26.26548 0.00261
C 29.48698 25.52206 0.03265
C 29.45233 24.14944 -0.02049
C 30.74201 23.44288 -0.01854
C 30.81476 22.00087 -0.01415
C 29.4864 8.54819 -0.00971
C 29.58652 21.31625 -0.03039
C 30.81743 19.20855 0.03531
C 30.74047 17.71857 -0.00669
C 29.55193 16.99036 0.0101
C 29.51512 15.57369 0.01705
C 30.70858 14.92381 -0.0405
C 30.73201 13.51689 -0.01303
C 29.51659 12.82612 -0.01461
C 29.46006 11.37865 -0.02155
C 30.70482 10.72434 -0.00944
C 29.58593 19.88487 0.01836
C 31.99659 17.01914 -0.02474
C 31.95402 15.66019 0.00369
C 33.21096 15.00507 0.00455
C 0.1224 21.32751 -0.02213
C 0.04626 19.89926 0.01951
C 1.26528 19.16911 -0.01678
C 1.26975 17.72172 0.01223
C 0.02837 17.10084 0.00648
C 0.0024 15.6377 0.02114
C 1.16809 14.88301 -0.02957
C 1.07343 13.44021 0.00343
C 34.27846 12.75711 -0.02656
C 1.5049 22.15277 0.02712
C 34.31472 11.35241 -0.02442
C 1.15811 9.21639 -0.00583
C 34.36001 8.51355 -0.02302
C 0.0046 7.05335 -0.02849
C 1.25133 6.45945 0.02931
C 1.24678 4.96155 0.00628
C 34.42169 4.29957 -0.0345
C 34.40939 2.89407 -0.00931
C 1.13328 2.06769 -0.00939
C 1.18883 0.69104 -0.00468
C 1.12238 10.63367 -0.00027
C 1.24808 23.44174 0.00723
C 0.03155 24.09985 0.03076
C 0.035 25.47111 -0.05239
C 33.15934 13.54286 -0.00644
C 31.94451 12.84933 -0.01839
C 31.90472 11.43668 0.00137
C 33.08499 10.6555 0.00199
C 33.17108 9.24886 0.04381
C 31.94523 8.51572 0.02806
C 32.0156 7.10607 0.01504
C 33.19421 6.34539 -0.00069
C 33.17524 4.96988 0.04926
C 31.93688 4.25858 -0.03838
C 31.96741 2.8542 0.00349
C 33.20554 2.14492 -0.00323
C 33.16603 0.77372 -0.00841
C 31.95959 0.00056 0.0001
C 34.41307 32.6683 -0.02927
C 1.36006 31.89849 -0.01404
C 1.13668 30.54654 0.01027
C 34.42479 29.88554 0.01831
C 0.09089 28.35613 -0.01037
C 1.15463 27.55509 -0.00439
C 1.1234 26.32059 -0.00598
C 30.71282 31.90848 0.04266
C 29.45187 32.65319 0.01177
C 27.06986 34.06729 -0.00416
C 28.30078 0.71339 0.01699
C 23.34868 6.28847 0.01852
C 23.36758 4.90384 -0.00381
C 22.07175 4.23231 0.03046
C 22.07257 2.81281 0.0296
C 23.33437 2.15092 0.03374
C 23.37194 0.75043 -0.02845
C 22.15334 0.02448 -0.03213
C 24.57299 32.63675 0.02239
C 25.71061 31.95287 0.01153
C 22.06023 6.97819 0.01126
C 25.76698 30.53049 0.02734
C 24.62838 28.37406 0.01515
C 25.85298 27.64456 -0.00225
C 25.78651 26.18167 0.00071
C 24.55465 25.51976 -0.01107
C 24.61369 24.06769 -0.01586
C 25.82551 23.324 -0.01971
C 25.95913 21.92914 -0.02118
C 24.72649 21.22782 0.00733
C 24.62302 19.80438 -0.00178
C 24.56087 29.77141 -0.0055
C 22.15292 8.38079 -0.01185
C 23.34308 9.23687 -0.01662
C 23.32389 10.67647 -0.00478
C 22.16335 32.60854 -0.04422
C 23.33326 31.85614 0.00654
C 23.34934 30.48984 -0.00703
C 22.07966 29.79321 -0.04076
C 22.1484 28.34757 -0.00652
C 23.43384 27.67534 0.0058
C 23.29895 26.23982 -0.00865
C 22.11366 25.54539 0.00675
C 22.18088 24.10463 -0.00311
C 23.39954 23.41851 0.00742
C 23.46463 22.0214 -0.01594
C 22.20577 21.3721 0.0106
C 22.16778 19.90285 -0.01154
C 23.36332 19.20031 -0.01721
C 23.39427 17.75153 -0.02422
C 22.13702 17.09905 0.01277
C 22.13463 15.66767 0.00096
C 23.35163 14.99887 -0.01527
C 23.35342 13.55865 0.01087
C 22.12932 12.81593 0.00199
C 22.06919 11.39632 0.01511
C 25.84611 19.0758 0.00768
C 20.86179 0.74306 -0.00831
C 25.90379 17.73013 -0.0276
C 24.57751 15.69615 -0.04078
C 28.34346 21.95944 -0.0032
C 27.16939 21.23717 0.00622
C 27.14021 19.86627 -0.02815
C 28.33964 19.20071 -0.00942
C 28.46926 17.82626 0.00487
C 27.07544 17.03949 0.00826
C 27.0856 15.63668 -0.00294
C 28.22103 14.90128 0.00152
C 28.21246 13.4682 0.01257
C 28.26957 23.41424 -0.00037
C 27.06151 12.75384 0.02316
C 28.24286 10.68691 0.00194
C 28.25054 9.23282 -0.00621
C 26.99591 8.44556 0.02611
C 27.03147 7.06091 0.02198
C 28.21958 6.41681 0.01094
C 28.24932 4.97218 0.00235
C 27.05252 4.27669 0.01495
C 27.00594 2.79282 0.01259
C 28.26106 2.16087 0.01799
C 26.94564 11.33817 0.04185
C 26.98428 24.08154 -0.01654
C 26.95339 25.55626 -0.00218
C 28.18543 26.2072 -0.00802
C 25.8191 15.01762 0.02117
C 25.8458 13.58058 0.02737
C 24.55722 12.79547 -0.00498
C 24.57349 11.38389 0.00135
C 25.7752 10.60672 0.03102
C 25.81954 9.16565 0.02555
C 24.52369 8.48872 0.01423
C 24.50765 7.09352 -0.00285
C 25.71631 6.41808 -0.009
C 25.80382 4.98712 -0.01199
C 24.65806 4.21922 -0.00229
C 24.5718 2.82623 -0.00938
C 25.79061 2.13997 -0.0264
C 25.83626 0.65764 -0.01154
C 24.62062 34.06752 0.00684
C 26.97938 32.65026 -0.01052
C 28.20552 31.87976 -0.01679
C 28.26547 30.42552 0.00367
C 26.98512 29.79188 0.04306
C 27.07665 28.37288 0.00996
C 28.25613 27.64023 0.00195
C 24.61919 17.06173 0.03005
C 2.4785 32.68526 0.02769
