283
Graphene
C 34.32095 0.03425 0.01295
C 16.06551 0.78294 -0.01154
C 16.02348 2.27842 0.0106
C 14.69016 2.94974 -0.01594
C 14.68968 4.46586 0.00742
C 15.96906 5.17094 -0.00311
C 16.2524 6.56861 0.00675
C 13.97367 23.92391 -0.00865
C 14.71662 25.28673 0.0058
C 15.69051 26.15458 -0.00652
C 15.92449 27.4769 -0.04076
C 14.72622 28.41945 -0.00703
C 14.74174 29.7944 0.00654
C 15.98891 30.5137 -0.04422
C 15.9797 31.92258 -0.02957
C 14.73925 32.74769 -0.00831
C 12.26942 0.10692 0.00364
C 13.48126 0.77564 -0.017
C 9.74238 0.0436 0.02188
C 12.30727 32.66796 -0.01979
C 13.56031 31.93359 0.02691
C 13.48628 30.55478 -0.01581
C 12.33989 29.85983 0.01452
C 12.28372 28.46714 0.04892
C 14.72213 0.06164 -0.01721
C 13.53353 27.66028 -0.00111
C 12.30829 25.66201 0.03754
C 12.49664 24.27672 0.01739
C 13.44636 5.06044 0.00755
C 12.33639 4.34728 -0.0054
C 12.16501 2.97592 0.00667
C 13.46657 2.25478 0.00143
C 13.59333 26.34724 -0.03557
C 17.21395 32.57194 -0.02422
C 18.42834 31.90675 0.01277
C 18.45674 30.41374 0.00096
C 19.7046 4.31535 -0.0055
C 19.70655 2.93014 0.01515
C 20.90192 2.18672 -0.00225
C 20.87436 0.6904 0.00071
C 19.63365 0.0177 -0.01107
C 22.1659 32.56758 -0.01586
C 20.86008 5.18436 0.02734
C 23.34513 31.88709 -0.01971
C 22.19514 29.58577 0.00733
C 22.14557 7.18835 -0.00178
C 23.36138 6.41788 0.00768
C 23.29237 5.0899 -0.0276
C 22.03778 4.41929 0.03005
C 22.10451 2.85265 -0.04078
C 23.33014 30.36939 -0.02118
C 10.97858 0.91589 -0.00316
C 20.83106 6.74555 0.01153
C 19.60605 29.74959 -0.03213
C 17.16464 29.78801 -0.01527
C 17.24121 28.27318 0.01087
C 18.68192 8.12336 0.00199
C 17.2634 7.17368 0.01511
C 18.47946 6.46256 -0.00478
C 18.42479 5.00057 -0.01662
C 19.66861 7.27484 0.02239
C 17.15495 4.30751 -0.01185
C 18.43835 2.18433 0.01852
C 18.44732 0.74309 -0.00381
C 17.27246 34.05169 0.03046
C 19.62558 32.58512 0.0296
C 20.89286 31.85564 0.03374
C 20.89287 30.2993 -0.02845
C 17.18613 2.91565 0.01126
C 23.25703 2.11021 0.02117
C 10.90124 2.28813 -0.0331
C 11.24743 23.3868 0.03338
C 5.03804 24.13897 -0.01952
C 4.96606 25.54553 0.05265
C 6.18325 26.27355 -0.01717
C 6.16211 27.70677 0.00244
C 4.93676 28.43139 0.02299
C 4.87351 29.85783 0.03542
C 6.03939 30.64767 0.01416
C 6.08527 32.0391 0.01945
C 4.87687 32.72354 -0.01454
C 2.40243 34.06749 0.01241
C 3.58921 0.78523 0.0076
C 3.56439 2.22383 0.02162
C 2.3442 2.86409 -0.0014
C 2.25269 4.21849 0.00415
C 3.4681 5.14398 -0.02162
C 2.59035 6.45448 0.01363
C 2.22012 15.66525 0.01877
C 3.58124 30.61881 -0.02245
C 2.34957 29.90704 -0.00428
C 2.45561 28.42414 0.03101
C 3.71593 27.68749 -0.01536
C 3.7152 26.24847 -0.02689
C 2.49147 25.60235 -0.01046
C 6.27798 23.38344 -0.02813
C 2.52675 24.199 -0.00891
C 3.68362 22.00816 0.00165
C 2.44725 21.24521 -0.02971
C 2.37003 19.82282 0.02894
C 3.67312 19.12483 -0.01789
C 3.65367 17.83681 0.00444
C 2.5709 17.00978 -0.00925
C 3.72355 23.42108 0.02819
C 6.29089 21.89364 0.00374
C 4.98723 21.321 0.00052
C 4.85393 19.94227 -0.03682
C 7.36699 19.85232 0.00979
C 7.21954 2.92383 0.01443
C 8.4109 2.35228 0.03505
C 8.48862 0.80658 -0.02815
C 7.33106 0.13903 -0.04147
C 9.82177 32.70409 -0.05302
C 7.64593 21.18082 -0.00481
C 11.0542 32.01247 0.00213
C 9.87227 29.95664 -0.00289
C 9.84994 28.55655 0.00028
C 11.04961 27.83237 -0.02213
C 11.08826 26.34078 0.03698
C 9.85414 25.69857 -0.00109
C 9.83405 24.30912 -0.00491
C 11.03958 30.62948 -0.00066
C 9.69439 2.8692 -0.0258
C 8.83637 22.00834 0.00889
C 7.5747 24.15015 -0.00619
C 6.15507 19.34723 0.01965
C 4.55089 4.47217 0.02058
C 4.73019 3.11289 -0.01957
C 5.86585 2.39871 -0.0108
C 5.99387 1.00335 -0.00368
C 4.83018 0.09978 -0.02696
C 8.86282 23.43004 -0.02162
C 7.35779 32.78649 -0.00114
C 8.53754 30.63169 0.00798
C 7.34389 29.88563 0.00422
C 7.31595 28.44303 0.0351
C 8.55609 27.82325 -0.03113
C 8.60705 26.35893 0.02098
C 7.43827 25.56435 0.01848
C 8.56074 32.09757 0.00228
C 3.64785 32.00721 0.00985
C 23.29638 0.69647 0.02737
C 24.56067 32.71892 0.00135
C 33.14311 5.04688 0.04926
C 33.1829 6.47414 -0.00069
C 31.94093 7.14704 0.01504
C 31.96439 8.61971 0.02806
C 33.17847 9.30222 0.04381
C 33.05859 10.67901 0.00199
C 31.85925 11.44647 0.00137
C 31.9643 12.96174 -0.01839
C 33.16335 13.52128 -0.00644
C 33.06335 14.92365 0.00455
C 31.81193 15.71703 0.00369
C 31.81195 17.10651 -0.02474
C 33.07857 17.72843 0.00594
C 33.148 19.18181 -0.0136
C 31.87137 19.93462 -0.01429
C 31.95149 21.36651 -0.02383
C 33.17525 21.98551 0.01574
C 29.37871 2.93224 0.02108
C 30.65021 2.25279 0.00716
C 30.66198 0.83619 0.00307
C 29.43707 0.12392 0.00346
C 31.91247 32.72259 0.01713
C 33.04402 31.97018 -0.01694
C 31.84515 4.29578 -0.03838
C 33.12231 30.52699 0.01428
C 31.86497 28.42712 0.0544
C 33.21024 27.75605 0.00026
C 33.1965 26.2839 0.00682
C 31.78074 25.47954 -0.01779
C 31.98764 24.10298 0.03794
C 33.25181 23.42426 0.01927
C 31.9241 29.82452 -0.02142
C 31.84674 2.82761 0.00349
C 33.04148 2.08728 -0.00323
C 33.08797 0.70365 -0.00841
C 1.16719 14.83088 -0.02957
C 1.28271 13.44226 0.00343
C 0.04354 12.94265 -0.02656
C 34.42368 11.44946 -0.02442
C 1.06941 10.72332 -0.00027
C 1.15444 9.36516 -0.00583
C 34.271 15.63281 0.02114
C 0.01393 8.53294 -0.02302
C 1.2732 6.31323 0.02931
C 1.08261 4.91081 0.00628
C 34.36477 4.27612 -0.0345
C 34.31271 2.80223 -0.00931
C 1.10836 2.0926 -0.00939
C 1.14643 0.71073 -0.00468
C 0.11156 7.12547 -0.02849
C 29.46974 4.38326 0.0103
C 34.2906 17.01491 0.00648
C 1.16663 19.12923 -0.01678
C 31.84129 34.06156 0.0001
C 34.28037 32.72576 -0.02927
C 1.07817 31.99559 -0.01404
C 1.10688 30.59318 0.01027
C 34.35791 29.89807 0.01831
C 34.35184 28.43693 -0.01037
C 1.20953 17.72977 0.01223
C 1.18991 27.71109 -0.00439
C 34.38785 25.58378 -0.05239
C 34.41522 24.20314 0.03076
C 1.25676 23.48371 0.00723
C 1.17779 22.0017 0.02712
C 34.35036 21.25165 -0.02213
C 34.35638 19.88044 0.01951
C 1.20633 26.29326 -0.00598
C 22.09226 34.04078 -0.00498
C 30.62044 5.04874 0.07705
C 29.40153 7.19236 0.01518
C 26.98425 12.74569 0.02316
C 28.17346 13.44961 0.01257
C 28.17105 14.9174 0.00152
C 26.85874 15.58614 -0.00294
C 26.7139 16.92712 0.00826
C 27.89304 17.84139 0.00487
C 28.22123 19.22128 -0.00942
C 28.15492 26.32495 -0.02815
C 28.15911 27.70834 0.00622
C 27.06967 28.52023 -0.0032
C 27.05976 29.90007 -0.00037
C 28.25084 30.6601 -0.01654
C 28.24723 32.07883 -0.00218
C 27.03461 32.72596 -0.00802
C 24.47682 0.01598 0.00195
C 25.69947 0.72201 0.00996
C 25.75302 2.13694 0.04306
C 25.82618 32.07604 0.03102
C 25.86069 30.63488 0.02555
C 24.65441 29.95158 0.01423
C 25.018 15.9302 -0.00285
C 25.48845 14.64234 -0.009
C 25.67406 13.35938 -0.01199
C 26.93308 11.36629 0.04185
C 25.78748 10.75088 -0.00229
C 24.40461 8.60025 -0.0264
C 24.48432 7.17037 -0.01154
C 25.73932 6.43184 0.00684
C 25.72864 5.00861 -0.01052
C 24.53741 4.27072 -0.01679
C 24.5442 2.90703 0.00367
C 25.46841 9.44053 -0.00938
C 28.19107 10.70248 0.00194
C 28.15701 9.29298 -0.00621
C 26.87462 8.68438 0.02611
C 30.68415 22.07022 -0.01415
C 29.35647 21.4685 -0.03039
C 29.25384 20.14008 0.01836
C 30.53582 19.27105 0.03531
C 30.56007 17.86576 -0.00669
C 29.16977 17.07811 0.0101
C 30.6723 23.47451 -0.01854
C 29.3219 15.71979 0.01705
C 30.69363 13.72399 -0.01303
C 29.51739 12.8643 -0.01461
C 29.42542 11.4666 -0.02155
C 30.64501 10.8018 -0.00944
C 30.6927 9.20409 -0.03735
C 29.46184 8.60084 -0.00971
C 30.59226 15.0735 -0.0405
C 30.61606 6.42676 0.01908
C 29.48729 24.08869 -0.02049
C 30.55406 26.19289 0.00261
C 26.93664 7.2003 0.02198
C 28.16682 6.44706 0.01094
C 28.18142 5.03203 0.00235
C 26.95614 4.35416 0.01495
C 26.91366 2.92488 0.01259
C 28.1359 2.21631 0.01799
C 29.20938 25.51552 0.03265
C 28.18196 0.767 0.01699
C 29.44381 32.75782 0.01177
C 30.61967 32.00472 0.04266
C 30.72738 30.53367 0.01324
C 29.44233 29.91289 0.0014
C 29.43496 28.44665 0.00924
C 30.63992 27.62129 0.02326
C 26.93592 0.04696 -0.00416
C 2.35033 32.68122 -0.01275
