408
Graphene
C 34.39477 34.07948 0.01295
C 13.40787 23.49883 -0.01536
C 13.54635 22.01011 -0.02689
C 12.27369 21.26145 -0.01046
C 12.2486 19.88689 -0.00891
C 13.49479 19.09591 0.02819
C 13.52422 17.679 0.00165
C 12.26492 17.11247 -0.02971
C 12.22025 15.67749 0.02894
C 13.37658 14.88022 -0.01789
C 12.15985 2.87233 0.00444
C 13.43389 2.27456 -0.00925
C 13.53964 0.74985 0.01877
C 12.28967 0.07772 0.01363
C 14.73558 32.7801 -0.02162
C 15.98754 31.96009 0.00415
C 15.97332 30.58378 -0.0014
C 14.64145 29.91606 0.02162
C 14.76625 28.46967 0.0076
C 15.93851 27.82458 0.01241
C 15.97767 26.3853 -0.01454
C 14.74186 25.56737 0.01945
C 12.23335 24.21437 0.03101
C 12.25912 25.58277 -0.00428
C 13.54897 26.28361 -0.02245
C 13.45163 27.69027 0.00985
C 9.77667 24.27038 0.00438
C 10.96821 23.51247 0.01291
C 11.07994 22.09735 0.00093
C 9.90566 21.32651 0.00057
C 9.84532 19.90992 -0.01634
C 11.02345 19.17912 -0.00334
C 11.05719 17.7399 0.02339
C 9.86249 17.06843 0.01641
C 9.76881 15.65663 -0.00719
C 10.9816 14.96945 0.01364
C 14.68535 24.16226 0.01416
C 10.83617 13.68777 -0.01062
C 10.04259 4.18509 0.03589
C 9.80039 2.90119 -0.02759
C 10.99512 2.109 0.0402
C 10.99841 0.72979 0.00572
C 9.80684 0.02124 0.03592
C 12.32077 32.70524 0.00406
C 13.51402 32.0359 0.00943
C 13.43247 30.59719 0.02841
C 12.20407 29.81045 -0.01111
C 12.26531 28.29081 -0.01275
C 9.7839 12.83106 -0.00033
C 9.83057 25.66261 -0.00191
C 15.88915 23.43118 0.03542
C 14.7392 21.28289 0.00244
C 17.32076 15.40471 0.01443
C 18.68383 14.64731 0.03505
C 17.45617 2.94717 -0.02815
C 18.53493 2.08966 -0.04147
C 18.47068 0.5846 -0.05302
C 17.25181 0.02963 0.00213
C 19.64808 32.60528 -0.00066
C 20.91374 31.89208 -0.00289
C 20.93724 30.50791 0.00028
C 19.76698 29.80615 -0.02213
C 19.57107 28.41732 0.03698
C 20.80817 27.72348 -0.00109
C 20.83655 26.3015 -0.00491
C 19.62825 25.53838 0.03338
C 19.65511 24.14339 -0.0258
C 20.91886 23.394 -0.0331
C 20.9035 21.91696 -0.00316
C 19.61822 21.21746 0.02188
C 19.6063 19.85132 -0.01979
C 20.85888 19.20724 0.02691
C 20.85648 17.76408 -0.01581
C 17.15601 16.94308 0.00979
C 18.39209 17.60756 -0.00481
C 18.32189 19.15498 0.00889
C 17.13 19.88556 -0.02162
C 14.76257 19.84747 -0.01717
C 15.92696 19.02643 0.05265
C 15.94146 17.59431 -0.01952
C 14.71747 16.94944 -0.02813
C 14.71124 15.44492 0.00374
C 16.02167 15.02584 0.00052
C 14.73122 2.87497 -0.03682
C 15.98169 2.38532 0.01965
C 16.02149 0.82368 0.02058
C 14.74611 0.06421 -0.01957
C 15.91523 22.02531 0.02299
C 17.223 32.65597 -0.0108
C 18.48228 30.53359 -0.02696
C 17.25596 29.77768 -0.00114
C 17.17893 28.38804 0.00228
C 18.37679 27.67389 0.00798
C 18.3797 26.30221 0.00422
C 17.11502 25.60378 0.0351
C 17.14021 24.11953 -0.03113
C 18.36869 23.46033 0.02098
C 18.47518 21.99467 0.01848
C 17.22283 21.32909 -0.00619
C 18.37853 31.85331 -0.00368
C 19.62812 16.9449 0.01452
C 11.02027 26.3304 0.00373
C 9.74548 28.50028 -0.014
C 2.48148 2.8433 0.01402
C 3.65269 2.18773 0.02379
C 3.609 0.7138 0.00907
C 2.37367 0.07929 0.00643
C 4.843 32.67546 -0.01509
C 6.05584 31.97341 0.03267
C 6.04522 30.55524 0.02374
C 4.79852 29.83762 0.00402
C 4.76992 28.37592 0.0073
C 6.0689 27.71835 0.0174
C 6.05945 26.3189 0.03828
C 4.85794 25.5673 0.01226
C 4.80706 24.2215 -0.00279
C 6.03474 23.46724 0.01996
C 6.11893 22.10535 -0.03996
C 4.87333 21.36696 0.01465
C 4.897 19.91109 -0.00074
C 6.16301 19.216 -0.00518
C 6.07744 17.80524 0.0086
C 4.85231 17.15197 -0.00643
C 4.81627 15.73787 0.017
C 2.47111 4.21391 -0.003
C 3.64612 5.05624 0.00031
C 3.77222 6.53952 0.03189
C 2.47973 7.17035 -0.04307
C 3.6291 30.648 0.00558
C 2.42606 29.75333 -0.0059
C 2.39938 28.37392 -0.01386
C 3.61037 27.62596 -0.02805
C 3.57719 26.19327 0.00081
C 2.37885 25.60073 0.00245
C 2.35706 24.21761 0.02728
C 3.58673 23.49949 -0.00039
C 3.6301 22.05048 0.0064
C 2.4064 21.2382 0.00211
C 6.06745 15.0707 -0.03113
C 2.40053 19.88422 -0.00449
C 3.56584 17.83395 0.02784
C 2.3681 17.07258 -0.01977
C 2.39234 15.60611 -0.00561
C 3.65713 14.86519 0.00208
C 3.68501 13.43069 0.01707
C 2.3152 12.81131 0.02769
C 2.3728 11.38941 -0.03291
C 3.67376 10.71295 -0.04999
C 3.76177 9.33756 0.04505
C 2.44326 8.59074 0.03284
C 3.67979 19.23901 -0.01979
C 11.00947 27.79938 0.02147
C 6.0101 13.64653 -0.02566
C 4.94661 11.4572 0.02322
C 7.38098 17.15923 0.03007
C 7.27909 15.77801 -0.00095
C 8.56867 14.95528 0.01572
C 8.62834 13.55555 -0.04848
C 7.26739 12.92004 -0.00892
C 7.34752 11.46593 -0.01362
C 8.55803 10.76687 -0.0008
C 8.48624 9.39845 0.0288
C 7.41241 8.59322 0.00393
C 7.46266 7.13532 0.00895
C 8.68687 6.52643 0.00685
C 8.76945 5.09551 0.02888
C 7.50798 4.28949 -0.00482
C 7.50943 2.91142 -0.01384
C 8.63283 2.09171 0.03693
C 8.56204 0.71677 0.01745
C 7.34793 0.06244 0.00488
C 9.79006 32.6614 -0.01004
C 11.0499 31.91193 -0.02896
C 10.93102 30.52717 -0.00131
C 9.66754 29.89039 -0.01118
C 8.68996 17.79881 0.00054
C 8.64269 19.21076 -0.00494
C 7.33716 19.90501 -0.00562
C 7.39289 21.34192 -0.01142
C 6.14387 10.69117 -0.00725
C 6.18026 9.3043 -0.05697
C 4.9745 8.59212 0.01087
C 4.94736 7.22143 -0.01343
C 6.17483 6.46994 0.00988
C 6.23207 4.98595 0.0276
C 4.92192 4.38959 0.01305
C 4.83562 2.92365 -0.00077
C 6.17393 2.31551 0.03368
C 6.10826 0.88337 -0.02929
C 4.95002 12.82878 -0.00094
C 4.921 0.12787 -0.00966
C 8.49293 32.03066 0.01227
C 8.50779 30.69873 0.00873
C 7.30894 29.89268 -0.00049
C 7.26365 28.54061 0.00848
C 8.44989 27.76939 -0.01303
C 8.56799 26.32768 -0.01378
C 7.33775 25.61101 0.02635
C 7.30475 24.2016 0.0127
C 8.54931 23.56602 0.01396
C 8.63515 22.02083 0.01849
C 7.31365 32.74004 -0.03337
C 19.70745 15.50086 0.04892
C 20.92712 14.91471 -0.00111
C 20.7185 13.53571 -0.03557
C 29.47004 8.53341 -0.00971
C 29.51345 7.06778 0.01518
C 30.70204 6.32778 0.01908
C 30.73863 4.92065 0.07705
C 29.57315 4.1472 0.0103
C 29.56419 2.77701 0.02108
C 30.748 2.05289 0.00716
C 30.75476 0.6975 0.00307
C 29.59563 34.07191 0.00346
C 31.93571 32.646 0.01713
C 33.13791 31.94059 -0.01694
C 33.04299 30.52311 0.01428
C 31.91293 29.7471 -0.02142
C 32.01662 28.3654 0.0544
C 33.13156 27.6377 0.00026
C 33.17239 26.23666 0.00682
C 31.89405 25.56826 -0.01779
C 31.91136 24.14718 0.03794
C 33.11167 23.40664 0.01927
C 33.09159 22.02401 0.01574
C 31.87741 21.27894 -0.02383
C 30.73784 9.22769 -0.03735
C 30.70401 10.63993 -0.00944
C 29.56287 11.32791 -0.02155
C 29.44776 12.71118 -0.01461
C 28.29378 2.11945 0.01799
C 28.35546 0.7639 0.01699
C 27.13843 34.00713 -0.00416
C 29.46971 32.72918 0.01177
C 30.74991 31.94961 0.04266
C 30.69785 30.49625 0.01324
C 29.52539 29.78748 0.0014
C 29.42454 28.40094 0.00924
C 30.70251 27.70883 0.02326
C 30.67665 26.23688 0.00261
C 31.84785 19.83345 -0.01429
C 29.45848 25.47096 0.03265
C 30.7096 23.39946 -0.01854
C 30.69456 22.04401 -0.01415
C 29.41818 21.32424 -0.03039
C 29.42674 19.92925 0.01836
C 30.69766 19.15996 0.03531
C 30.69204 17.68067 -0.00669
C 29.49184 17.01867 0.0101
C 29.47273 15.58455 0.01705
C 30.72051 14.97834 -0.0405
C 30.73578 13.47944 -0.01303
C 29.46041 24.09025 -0.02049
C 27.02432 2.79774 0.01259
C 33.22237 19.24426 -0.0136
C 31.96606 17.03223 -0.02474
C 1.2301 21.99917 0.02712
C 34.40825 21.3179 -0.02213
C 34.41698 19.93673 0.01951
C 1.18514 19.13437 -0.01678
C 1.09289 17.76704 0.01223
C 34.34308 17.01731 0.00648
C 34.34733 15.57882 0.02114
C 1.18974 14.97068 -0.02957
C 1.19427 13.56435 0.00343
C 34.40398 12.84833 -0.02656
C 34.3676 11.38783 -0.02442
C 1.18472 10.64171 -0.00027
C 1.21737 9.2291 -0.00583
C 0.00961 8.43336 -0.02302
C 34.40059 6.97305 -0.02849
C 1.2597 6.36064 0.02931
C 1.24489 4.96536 0.00628
C 0.01637 4.24421 -0.0345
C 34.39445 2.85318 -0.00931
C 1.17659 2.16454 -0.00939
C 1.19561 0.80435 -0.00468
C 1.24588 23.45788 0.00723
C 34.37872 24.13172 0.03076
C 34.33414 25.48398 -0.05239
C 1.155 26.20922 -0.00598
C 31.94778 15.66279 0.00369
C 33.1972 14.8817 0.00455
C 33.18149 13.47927 -0.00644
C 31.94445 12.7688 -0.01839
C 31.9071 11.41515 0.00137
C 33.16483 10.61828 0.00199
C 33.20671 9.17393 0.04381
C 31.93457 8.56161 0.02806
C 31.94037 7.0658 0.01504
C 33.13496 6.38467 -0.00069
C 33.14783 17.76966 0.00594
C 33.1913 4.95006 0.04926
C 31.96089 2.82689 0.00349
C 33.19001 2.15144 -0.00323
C 33.20272 0.73419 -0.00841
C 32.01058 0.03104 0.0001
C 34.35891 32.61706 -0.02927
C 1.10773 31.93412 -0.01404
C 1.23593 30.46444 0.01027
C 34.4156 29.86462 0.01831
C 34.35508 28.41204 -0.01037
C 1.07128 27.71738 -0.00439
C 31.98353 4.27811 -0.03838
C 26.97961 4.2292 0.01495
C 28.25483 4.86262 0.00235
C 28.33325 6.29852 0.01094
C 22.14294 15.65428 0.00096
C 23.37696 14.92751 -0.01527
C 23.32619 13.46933 0.01087
C 21.98424 12.82258 0.00199
C 22.14886 11.4113 0.01511
C 23.3226 10.71639 -0.00478
C 23.35748 9.27652 -0.01662
C 22.14883 8.55108 -0.01185
C 22.11825 7.10003 0.01126
C 23.3509 6.34211 0.01852
C 23.29839 5.01329 -0.00381
C 22.08227 4.23448 0.03046
C 22.18775 2.85339 0.0296
C 23.38312 2.14785 0.03374
C 23.35546 0.70445 -0.02845
C 22.09713 34.01261 -0.03213
C 24.59085 32.55574 0.02239
C 25.889 31.91885 0.01153
C 25.79304 30.45143 0.02734
C 24.51654 29.74479 -0.0055
C 24.5487 28.33228 0.01515
C 22.14035 17.07848 0.01277
C 23.37802 17.70678 -0.02422
C 23.2655 19.15961 -0.01721
C 22.1272 19.84807 -0.01154
C 19.36527 13.09729 0.03754
C 21.02024 10.63946 0.01739
C 20.98376 9.29693 0.00755
C 20.8867 6.3789 -0.0054
C 20.67044 5.07366 0.00667
C 19.62727 4.15261 0.00143
C 19.73544 2.7593 -0.017
C 20.98541 2.03356 0.00364
C 20.91896 0.68244 -0.00831
C 19.69649 33.98014 -0.02957
C 25.76708 27.65581 -0.00225
C 22.10356 32.55431 -0.04422
C 23.42741 30.5336 -0.00703
C 22.13115 29.76957 -0.04076
C 22.14426 28.39479 -0.00652
C 23.26337 27.60278 0.0058
C 23.3187 26.22626 -0.00865
C 22.04108 25.50633 0.00675
C 22.09128 24.11602 -0.00311
C 23.38675 23.42611 0.00742
C 23.3334 22.06967 -0.01594
C 22.12121 21.35313 0.0106
C 23.41873 31.88668 0.00654
C 25.79892 26.29839 0.00071
C 24.63374 25.56911 -0.01107
C 24.53116 24.10566 -0.01586
C 27.09318 29.7559 0.04306
C 26.98664 28.36754 0.00996
C 28.2502 27.61367 0.00195
C 28.22648 26.24482 -0.00802
C 27.03473 25.61417 -0.00218
C 26.97929 24.17392 -0.01654
C 28.17106 23.51025 -0.00037
C 28.13255 21.99119 -0.0032
C 26.95198 21.33834 0.00622
C 26.95765 19.95149 -0.02815
C 28.24334 30.48319 0.00367
C 28.18602 19.17784 -0.00942
C 27.03584 17.01589 0.00826
C 27.03704 15.5914 -0.00294
C 28.25176 14.8902 0.00152
C 28.20352 13.42531 0.01257
C 26.97907 12.7186 0.02316
C 26.96245 11.28163 0.04185
C 28.26223 10.66241 0.00194
C 28.23064 9.21751 -0.00621
C 27.0398 8.44467 0.02611
C 27.0897 6.9587 0.02198
C 28.26155 17.72318 0.00487
C 3.57426 32.01421 -0.02375
C 28.35882 31.9669 -0.01679
C 24.59312 34.03335 0.00684
C 25.77515 23.41153 -0.01971
C 25.75767 21.95369 -0.02118
C 24.51804 21.25068 0.00733
C 24.49204 19.78631 -0.00178
C 25.7072 19.18905 0.00768
C 25.81956 17.74049 -0.0276
C 24.55772 17.07275 0.03005
C 24.5937 15.67716 -0.04078
C 25.78851 14.88911 0.02117
C 25.81327 13.50075 0.02737
C 27.10028 32.66282 -0.01052
C 24.53815 12.76443 -0.00498
C 25.77267 10.58893 0.03102
C 25.80053 9.16296 0.02555
C 24.54861 8.50939 0.01423
C 24.59293 7.07673 -0.00285
C 25.85588 6.39732 -0.009
C 25.80132 5.00351 -0.01199
C 24.49631 4.24862 -0.00229
C 24.58503 2.86389 -0.00938
C 25.82353 2.06834 -0.0264
C 25.85597 0.64666 -0.01154
C 24.55238 11.34779 0.00135
C 2.31202 32.66885 0.00828
