434
Graphene
C 0.0234 33.98609 0.01295
C 13.41243 9.29773 -0.00719
C 12.25199 8.5536 0.01364
C 12.25681 7.11175 -0.01062
C 13.52059 6.36936 -0.00033
C 13.48322 4.90963 0.03589
C 12.21859 4.27493 -0.02759
C 12.24426 2.85793 0.0402
C 13.54608 2.22863 0.00572
C 13.57166 0.73989 0.03592
C 12.31068 0.07104 0.00406
C 14.79042 32.71468 0.00943
C 16.00999 31.95624 0.02841
C 16.0066 30.51698 -0.01111
C 14.74579 29.74369 -0.01275
C 14.707 28.36815 0.00985
C 16.01149 27.71666 -0.02245
C 16.00848 26.26559 -0.00428
C 14.68709 25.55301 0.03101
C 14.65412 24.21947 -0.01536
C 15.93433 23.44319 -0.02689
C 15.90778 21.95411 -0.01046
C 14.67274 21.27929 -0.00891
C 14.66909 19.85398 0.02819
C 13.50106 10.65974 0.01641
C 15.90525 19.16928 0.00165
C 12.27078 11.39595 0.02339
C 13.45943 13.59419 -0.01634
C 9.76606 4.30026 -0.0008
C 9.84371 2.91352 0.0288
C 11.02434 2.10912 0.00393
C 11.00453 0.74348 0.00895
C 9.73347 0.03755 0.00685
C 12.2954 32.766 0.02888
C 13.52322 31.96507 -0.00482
C 13.55994 30.46864 -0.01384
C 12.27529 29.83415 0.03693
C 12.25654 28.46414 0.01745
C 13.43199 27.72065 0.00488
C 13.41812 26.26817 -0.01004
C 12.18152 25.54928 -0.02896
C 12.17254 24.13506 -0.00131
C 13.40345 23.44029 -0.01118
C 13.47275 21.99377 -0.014
C 12.23314 21.28398 0.02147
C 12.30266 19.85052 0.00373
C 13.4532 19.14828 -0.00191
C 13.46617 17.77948 0.00438
C 12.2408 17.23881 0.01291
C 12.23228 15.77906 0.00093
C 13.45309 15.05509 0.00057
C 12.23471 12.84599 -0.00334
C 11.04132 4.96549 -0.01362
C 15.96409 17.76429 -0.02971
C 14.74085 15.59232 -0.01789
C 17.20238 19.84905 -0.00368
C 18.47403 19.18219 -0.02696
C 18.44614 17.75254 -0.00114
C 17.18789 17.0031 0.00228
C 17.15985 15.61812 0.00798
C 18.45797 14.91047 0.00422
C 18.44123 13.49446 0.0351
C 17.21436 12.80332 -0.03113
C 17.17074 11.36356 0.02098
C 18.35584 10.66839 0.01848
C 18.29984 9.24908 -0.00619
C 17.18327 8.47829 -0.02162
C 17.1617 7.08848 0.00889
C 18.46611 6.40731 -0.00481
C 18.42277 5.0083 0.00979
C 17.12528 4.23446 0.01443
C 17.09028 2.82746 0.03505
C 18.3298 2.18537 -0.02815
C 18.45298 0.71956 -0.04147
C 17.26829 34.05864 -0.05302
C 19.68413 32.64228 0.00213
C 20.89118 31.96073 -0.00066
C 20.91812 30.54137 -0.00289
C 17.16655 21.28708 -0.0108
C 14.76561 17.02402 0.02894
C 18.41591 22.02003 -0.01957
C 17.11348 24.09943 0.01965
C 15.92921 14.94216 0.00444
C 15.98658 13.51969 -0.00925
C 14.72487 12.84956 0.01877
C 14.67622 11.42268 0.01363
C 15.94382 10.65062 -0.02162
C 15.97487 9.20631 0.00415
C 14.69473 8.50264 -0.0014
C 14.67701 7.09831 0.02162
C 15.94559 6.4364 0.0076
C 15.88684 5.00857 0.01241
C 14.73371 4.26587 -0.01454
C 14.79182 2.86578 0.01945
C 15.95917 2.03705 0.01416
C 16.0354 0.68358 0.03542
C 14.72552 0.05062 0.02299
C 17.25689 32.60147 0.00244
C 18.47669 31.85602 -0.01717
C 18.41327 30.46205 0.05265
C 17.2094 29.79435 -0.01952
C 17.26265 28.35017 -0.02813
C 18.48763 27.6894 0.00374
C 18.41225 26.28694 0.00052
C 17.17642 25.45614 -0.03682
C 18.34638 23.46998 0.02058
C 11.00762 6.45548 -0.00892
C 9.81822 7.18597 -0.04848
C 9.81035 8.5455 0.01572
C 3.67449 2.09913 -0.0059
C 3.62183 0.7224 -0.01386
C 2.43645 34.04243 -0.02805
C 4.89905 32.62971 0.00081
C 6.09298 32.02007 0.00245
C 6.08669 30.5691 0.02728
C 5.00754 29.76712 -0.00039
C 5.00044 28.33123 0.0064
C 6.22498 27.72019 0.00211
C 6.3827 26.27091 -0.00449
C 5.00518 25.46637 -0.01979
C 4.88042 19.94057 0.02784
C 6.02566 19.26542 -0.01977
C 6.05349 17.79297 -0.00561
C 4.81597 17.12427 0.00208
C 4.88407 15.7199 0.01707
C 6.04628 15.00772 0.02769
C 6.06314 13.576 -0.03291
C 4.78884 12.80059 -0.04999
C 4.89674 11.38487 0.04505
C 6.08734 10.7137 0.03284
C 6.12085 9.25989 -0.04307
C 4.84983 8.57903 0.03189
C 2.49773 2.88909 0.00558
C 4.89245 7.19007 0.00031
C 2.45948 4.25801 -0.02375
C 3.73317 6.36408 0.00088
C 3.69642 30.50613 -0.00198
C 2.52313 29.73094 -0.00012
C 2.54494 28.34044 -0.04306
C 3.79266 27.62184 -0.03672
C 3.81485 26.17466 0.01913
C 2.5305 25.56158 0.00267
C 2.56052 24.07554 0.00787
C 3.83905 23.46278 0.02426
C 3.77415 21.97421 0.01218
C 2.45812 21.34137 -0.01471
C 2.42392 19.92521 -0.02827
C 3.63472 19.31425 0.01078
C 3.61488 17.81485 -0.00112
C 2.41846 17.06296 0.03345
C 2.37465 15.64778 0.00748
C 3.60106 14.95561 0.00662
C 3.60927 13.47717 -0.0154
C 2.30239 12.79973 -0.01299
C 2.39831 11.33041 -0.00407
C 3.67694 10.66022 0.01138
C 3.63301 9.24858 0.03278
C 2.46635 8.5463 -0.00177
C 2.48469 7.06546 0.04421
C 3.67054 4.99915 0.00828
C 6.12073 6.51707 -0.003
C 6.15813 5.13846 0.01402
C 4.8571 4.3194 0.02379
C 8.5368 0.71682 0.0276
C 7.24433 0.0961 0.01305
C 9.82234 32.67012 -0.00077
C 11.10282 31.95869 0.03368
C 11.0769 30.62389 -0.02929
C 9.85233 29.86688 -0.00966
C 9.86398 28.44806 -0.03337
C 11.01803 27.73079 0.01227
C 10.92921 26.27251 0.00873
C 9.68704 25.69121 -0.00049
C 10.90304 23.35659 0.00848
C 10.8065 21.99017 -0.01303
C 9.80588 20.08361 -0.01378
C 10.9931 19.27495 0.02635
C 10.93094 17.83623 0.0127
C 9.69899 17.26787 0.01396
C 9.72446 15.80975 0.01849
C 11.00497 15.06535 -0.01142
C 11.00549 13.62733 -0.00562
C 9.74374 12.90004 -0.00494
C 9.80182 11.46104 0.00054
C 11.06707 10.63029 0.03007
C 10.99173 9.24412 -0.00095
C 8.65648 2.16066 0.00988
C 7.41185 2.92586 -0.01343
C 7.3697 4.36365 0.01087
C 8.58551 5.03546 -0.05697
C 4.89842 2.85123 0.00907
C 6.11167 2.24427 0.00643
C 6.10283 0.83499 -0.01509
C 4.84518 0.00831 0.03267
C 7.29399 32.79797 0.02374
C 8.48963 32.02327 0.00402
C 8.60608 30.57336 0.0073
C 7.35031 29.9008 0.0174
C 7.43868 28.55239 0.03828
C 8.59127 27.79577 0.01226
C 8.55147 26.30152 -0.00279
C 19.67136 29.83169 0.00028
C 8.57404 19.42208 0.01996
C 7.2514 17.1162 0.01465
C 7.3135 15.7727 -0.00074
C 8.55657 15.06531 -0.00518
C 8.49687 13.58529 0.0086
C 7.32042 12.80142 -0.00643
C 7.33075 11.39112 0.017
C 8.5371 10.74146 -0.03113
C 8.60384 9.34321 -0.02566
C 7.44554 8.49256 -0.00094
C 7.41504 7.13216 0.02322
C 8.57418 6.46922 -0.00725
C 8.53771 17.93746 -0.03996
C 19.63839 28.41767 -0.02213
C 20.87436 27.68114 0.03698
C 20.83385 26.30994 -0.00109
C 30.63408 14.86142 -0.0405
C 30.63859 13.40301 -0.01303
C 29.43932 12.6692 -0.01461
C 29.47397 11.30316 -0.02155
C 30.69448 10.62147 -0.00944
C 30.71263 9.10898 -0.03735
C 29.51673 8.46401 -0.00971
C 29.44812 6.97793 0.01518
C 30.69083 6.25133 0.01908
C 30.68872 4.78535 0.07705
C 29.46924 4.17198 0.0103
C 29.49144 2.76866 0.02108
C 30.77085 2.11879 0.00716
C 30.6894 0.69111 0.00307
C 29.46964 34.04089 0.00346
C 32.07841 32.70659 0.01713
C 33.24533 31.96381 -0.01694
C 33.20655 30.54506 0.01428
C 32.00858 29.83164 -0.02142
C 31.99747 28.43464 0.0544
C 33.22129 27.63377 0.00026
C 33.24612 26.27538 0.00682
C 31.95265 25.5995 -0.01779
C 29.44261 15.55993 0.01705
C 31.99255 24.15747 0.03794
C 29.48397 16.97696 0.0101
C 30.71583 19.18026 0.03531
C 28.27669 9.1347 -0.00621
C 27.03552 8.43171 0.02611
C 27.02913 6.97645 0.02198
C 28.23313 6.28859 0.01094
C 28.23328 4.84956 0.00235
C 26.99015 4.2062 0.01495
C 26.98221 2.78007 0.01259
C 28.26263 2.13775 0.01799
C 28.29279 0.71802 0.01699
C 27.00252 34.04905 -0.00416
C 29.52795 32.62764 0.01177
C 30.7628 31.97367 0.04266
C 30.77615 30.47757 0.01324
C 29.50343 29.81258 0.0014
C 29.47404 28.39978 0.00924
C 30.68477 27.78788 0.02326
C 30.70708 26.32865 0.00261
C 29.46338 25.54741 0.03265
C 29.43859 24.19828 -0.02049
C 30.71622 23.50139 -0.01854
C 30.78831 22.07731 -0.01415
C 29.502 21.383 -0.03039
C 29.54594 19.97146 0.01836
C 30.67989 17.76164 -0.00669
C 33.23073 23.4795 0.01927
C 33.14331 22.04662 0.01574
C 31.9054 21.29049 -0.02383
C 0.10711 24.19345 0.03076
C 1.26444 23.46024 0.00723
C 1.24017 22.05774 0.02712
C 34.4105 21.39631 -0.02213
C 34.41003 19.94944 0.01951
C 1.17489 19.16219 -0.01678
C 1.16368 17.75043 0.01223
C 34.33715 17.05106 0.00648
C 34.30268 15.51241 0.02114
C 1.11627 14.88581 -0.02957
C 1.07414 13.47872 0.00343
C 34.35985 12.77293 -0.02656
C 34.29944 11.28796 -0.02442
C 1.13096 10.59117 -0.00027
C 1.15759 9.18795 -0.00583
C 34.38515 8.46867 -0.02302
C 34.36581 7.08389 -0.02849
C 1.17114 6.34245 0.02931
C 1.17741 4.93807 0.00628
C 34.42789 4.24295 -0.0345
C 34.37594 2.78477 -0.00931
C 1.24323 2.10501 -0.00939
C 1.18978 0.6913 -0.00468
C 0.07695 25.55321 -0.05239
C 1.37169 26.29058 -0.00598
C 1.2975 27.72826 -0.00439
C 0.03326 28.35142 -0.01037
C 31.93772 19.85519 -0.01429
C 33.18711 19.23465 -0.0136
C 33.20457 17.80665 0.00594
C 31.91227 17.06294 -0.02474
C 31.85158 15.68121 0.00369
C 33.04919 14.8663 0.00455
C 33.14119 13.49795 -0.00644
C 31.98178 12.67827 -0.01839
C 31.90798 11.32631 0.00137
C 33.10331 10.54028 0.00199
C 33.17163 9.09433 0.04381
C 28.29639 10.61189 0.00194
C 31.89604 8.42968 0.02806
C 33.20334 6.3006 -0.00069
C 33.207 4.91656 0.04926
C 31.97333 4.21536 -0.03838
C 32.03516 2.7885 0.00349
C 33.18568 2.05663 -0.00323
C 33.18085 0.66364 -0.00841
C 31.9306 34.03148 0.0001
C 0.05127 32.6135 -0.02927
C 1.26335 31.84731 -0.01404
C 1.25257 30.43222 0.01027
C 0.02257 29.77522 0.01831
C 32.0094 6.96381 0.01504
C 3.6779 31.93039 0.00535
C 27.01308 11.33611 0.04185
C 28.21198 13.46731 0.01257
C 23.33388 30.3905 -0.00652
C 22.1076 29.78362 0.0058
C 22.12679 28.35524 -0.00865
C 23.38906 27.64298 0.00675
C 23.35648 26.15203 -0.00311
C 22.07083 25.5857 0.00742
C 22.05639 24.14382 -0.01594
C 23.03115 23.07088 0.0106
C 22.20193 21.75373 -0.01154
C 22.28616 20.24408 -0.01721
C 23.60963 19.5094 -0.02422
C 23.44865 17.99338 0.01277
C 22.17773 17.22077 0.00096
C 22.15054 15.6594 -0.01527
C 23.31372 14.92096 0.01087
C 23.30497 13.50174 0.00199
C 22.09511 12.77798 0.01511
C 22.13386 11.39455 -0.00478
C 23.37365 10.68567 -0.01662
C 23.34341 9.25759 -0.01185
C 22.00002 8.46837 0.01126
C 22.10665 7.09974 0.01852
C 23.27777 6.42834 -0.00381
C 23.2764 31.83484 -0.04076
C 23.37118 5.00557 0.03046
C 22.09883 32.66921 -0.00703
C 20.85933 0.70527 -0.04422
C 19.60092 25.60602 -0.00491
C 19.49667 24.20496 0.03338
C 20.75261 23.54061 -0.0258
C 20.83464 22.20135 -0.0331
C 19.72555 21.28976 -0.00316
C 19.7368 19.91969 0.02188
C 20.99971 19.34876 -0.01979
C 20.91328 17.87544 0.02691
C 19.65458 17.09769 -0.01581
C 19.63984 15.71142 0.01452
C 20.87948 15.0356 0.04892
C 20.86949 13.52599 -0.00111
C 19.6711 12.75416 -0.03557
C 19.61656 11.31325 0.03754
C 20.84504 10.66549 0.01739
C 20.93299 9.2859 0.00755
C 19.55302 8.57978 -0.0054
C 19.61925 7.12675 0.00667
C 20.82554 6.44518 0.00143
C 20.89137 5.00175 -0.017
C 19.66614 4.25505 0.00364
C 19.54027 2.84246 -0.00831
C 20.77003 2.1481 -0.02957
C 19.68647 34.03614 0.00654
C 22.07782 4.32143 0.0296
C 22.03453 2.89855 0.03374
C 23.23638 2.17574 -0.02845
C 24.56441 4.25296 -0.00229
C 24.51619 2.8427 -0.00938
C 25.78499 2.16212 -0.0264
C 25.76353 0.73151 -0.01154
C 24.57009 0.01092 0.00684
C 27.02293 32.68708 -0.01052
C 28.26952 31.97936 -0.01679
C 28.31007 30.56902 0.00367
C 26.9895 29.78991 0.04306
C 27.00701 28.33605 0.00996
C 28.26381 27.70439 0.00195
C 28.24896 26.22024 -0.00802
C 26.97326 25.37105 -0.00218
C 26.88868 23.93934 -0.01654
C 28.19283 23.46847 -0.00037
C 28.24468 22.04621 -0.0032
C 27.04172 21.21092 0.00622
C 27.12567 19.7618 -0.02815
C 28.32112 19.13639 -0.00942
C 28.27789 17.7233 0.00487
C 27.0683 17.07101 0.00826
C 27.03761 15.66344 -0.00294
C 28.23013 14.90787 0.00152
C 25.75415 4.925 -0.01199
C 25.78363 6.34375 -0.009
C 24.5607 7.10071 -0.00285
C 24.47785 8.50977 0.01423
C 23.37702 0.71824 -0.03213
C 22.06478 34.01959 0.02239
C 24.53123 32.64581 0.01153
C 25.83532 31.99543 0.02734
C 25.75939 30.55981 -0.0055
C 24.57435 29.77153 0.01515
C 24.64644 28.39226 -0.00225
C 25.79933 27.55462 0.00071
C 25.71768 26.10409 -0.01107
C 24.43984 25.33974 -0.01586
C 24.37272 23.83586 -0.01971
C 27.05327 12.78577 0.02316
C 25.60194 23.1308 -0.02118
C 24.89993 20.26891 -0.00178
C 25.84737 19.20719 0.00768
C 25.79099 17.7478 -0.0276
C 24.58241 17.09958 0.03005
C 24.56192 15.69117 -0.04078
C 25.80599 14.96806 0.02117
C 25.79747 13.55996 0.02737
C 24.57604 12.81418 -0.00498
C 24.62708 11.39773 0.00135
C 25.80707 10.63099 0.03102
C 25.8118 9.16495 0.02555
C 25.72502 21.55623 0.00733
C 2.47088 32.62288 0.01984
