401
Graphene
C 0.02949 34.07685 0.01295
C 13.46871 6.4187 0.00165
C 13.54513 5.07974 -0.02971
C 12.34847 4.33932 0.02894
C 12.35564 2.81494 -0.01789
C 13.58883 2.17422 0.00444
C 13.56503 0.75935 -0.00925
C 12.26612 0.03554 0.01877
C 14.75552 32.65596 0.01363
C 15.98304 31.92766 -0.02162
C 16.01299 30.49338 0.00415
C 14.73899 29.84525 -0.0014
C 14.73322 28.32436 0.02162
C 16.00706 27.58709 0.0076
C 16.00963 26.13624 0.01241
C 14.75195 25.45174 -0.01454
C 14.78153 23.93121 0.01945
C 16.12212 23.26048 0.01416
C 15.94777 10.56884 0.03542
C 15.85415 9.15978 0.02299
C 14.63669 8.46293 0.00244
C 14.67819 7.06537 -0.01717
C 12.25693 7.13251 0.02819
C 15.93806 6.48141 0.05265
C 12.29354 8.64451 -0.00891
C 13.45838 23.66632 -0.02689
C 9.78813 11.33957 0.02339
C 10.95646 10.6769 0.01641
C 11.03783 9.34756 -0.00719
C 9.8471 8.65966 0.01364
C 9.7831 7.24462 -0.01062
C 11.05892 6.49612 -0.00033
C 11.13377 5.05684 0.03589
C 9.85586 4.36952 -0.02759
C 9.80007 2.944 0.0402
C 11.08778 2.24098 0.00572
C 11.07182 0.77745 0.03592
C 9.89949 0.0668 0.00406
C 12.2707 32.65384 0.00943
C 13.52894 31.94456 0.02841
C 13.4826 30.5495 -0.01111
C 12.2108 29.83754 -0.01275
C 12.24068 28.46433 0.00985
C 13.4709 27.58126 -0.02245
C 13.53428 26.08858 -0.00428
C 12.14654 25.50828 0.03101
C 12.16766 23.98906 -0.01536
C 13.53623 9.35932 -0.01046
C 10.37882 21.95255 -0.00334
C 16.02007 5.00066 -0.01952
C 14.782 2.84766 0.00374
C 17.19395 0.02728 -0.05302
C 19.67418 32.65274 0.00213
C 20.86996 31.94098 -0.00066
C 20.94499 30.5162 -0.00289
C 19.6857 29.81686 0.00028
C 19.64806 28.41316 -0.02213
C 20.89731 27.70141 0.03698
C 20.87063 26.31464 -0.00109
C 19.74283 25.55215 -0.00491
C 19.72307 24.11528 0.03338
C 20.80892 23.31586 -0.0258
C 20.77479 21.90313 -0.0331
C 19.5316 21.12336 -0.00316
C 19.66967 19.7683 0.02188
C 20.771 19.03577 -0.01979
C 20.94383 17.4882 0.02691
C 20.92338 15.10194 -0.01581
C 20.74368 13.70786 0.01452
C 19.62549 12.89046 0.04892
C 19.65492 11.45423 -0.00111
C 20.89003 10.68262 -0.03557
C 18.39958 0.68297 -0.04147
C 14.77275 4.26801 -0.02813
C 18.42645 2.10616 -0.02815
C 17.24045 4.25135 0.01443
C 16.04673 2.1604 0.00052
C 16.01302 0.75429 -0.03682
C 14.82069 0.02977 0.01965
C 17.19378 32.70301 0.02058
C 18.44684 31.94837 -0.01957
C 18.46126 30.50638 -0.0108
C 17.19227 29.8274 -0.00368
C 17.20753 28.37316 -0.02696
C 18.44269 27.59031 -0.00114
C 18.47194 26.15239 0.00228
C 17.23356 25.55811 0.00798
C 17.27087 24.11009 0.00422
C 18.46544 23.4269 0.0351
C 18.29173 22.07034 -0.03113
C 17.14854 11.30079 0.02098
C 18.4109 10.64447 0.01848
C 18.31701 9.18968 -0.00619
C 17.12497 8.54261 -0.02162
C 17.19724 7.18339 0.00889
C 18.4125 6.37929 -0.00481
C 18.45831 4.92398 0.00979
C 17.24655 2.90846 0.03505
C 10.77034 23.24524 -0.01634
C 9.81062 24.26543 0.00057
C 9.77161 25.61123 0.00093
C 2.41472 4.3447 0.02374
C 2.41331 2.91659 0.00402
C 3.60807 2.11822 0.0073
C 3.64718 0.72524 0.0174
C 2.42777 0.03861 0.03828
C 4.83068 32.77053 0.01226
C 6.09157 31.98062 -0.00279
C 6.12304 30.59339 0.01996
C 4.82568 29.81748 -0.03996
C 4.83824 28.41669 0.01465
C 6.12566 27.75889 -0.00074
C 6.14888 26.37046 -0.00518
C 4.90426 25.52872 0.0086
C 4.89237 24.12815 -0.00643
C 6.18908 23.40231 0.017
C 6.20361 22.03915 -0.03113
C 4.92787 21.30224 -0.02566
C 4.91162 19.86264 -0.00094
C 6.16987 19.18108 0.02322
C 6.08752 17.81059 -0.00725
C 4.93578 17.1131 -0.05697
C 3.67833 5.04394 0.03267
C 4.74574 15.60997 0.01087
C 3.68916 6.46531 -0.01509
C 2.40165 8.51463 0.00907
C 3.63163 30.58397 -0.00039
C 2.40232 29.84864 0.0064
C 2.46203 28.39288 0.00211
C 3.63034 27.63401 -0.00449
C 3.66813 26.21186 -0.01979
C 2.43182 25.49779 0.02784
C 2.49493 24.07649 -0.01977
C 3.70799 23.40372 -0.00561
C 3.69783 21.94567 0.00208
C 2.4597 21.2254 0.01707
C 2.46828 19.79589 0.02769
C 3.66607 19.09212 -0.03291
C 3.70528 17.7243 -0.04999
C 2.45742 17.07115 0.04505
C 2.32757 15.67344 0.03284
C 3.51835 14.87144 -0.04307
C 3.61996 13.46713 0.03189
C 2.40551 12.79899 0.00031
C 2.37793 11.37243 -0.003
C 3.62127 10.64101 0.01402
C 3.64396 9.25144 0.02379
C 2.38605 7.13895 0.00643
C 5.98776 14.92033 -0.01343
C 6.10245 13.38691 0.00988
C 4.82929 12.74141 0.0276
C 7.25336 15.57351 -0.0008
C 7.3134 12.82553 0.0288
C 7.2887 11.41832 0.00393
C 8.54267 10.75677 0.00895
C 8.60078 9.31487 0.00685
C 7.39314 8.61419 0.02888
C 7.36523 7.22093 -0.00482
C 8.63291 6.55119 -0.01384
C 8.61784 5.03915 0.03693
C 7.39951 4.3879 0.01745
C 7.36738 2.92085 0.00488
C 8.6043 2.27529 -0.01004
C 8.62511 0.78127 -0.02896
C 7.38625 0.10411 -0.00131
C 9.81863 32.74524 -0.01118
C 11.07193 31.93603 -0.014
C 11.02637 30.55171 0.02147
C 9.80566 29.80709 0.00373
C 9.78259 28.39888 -0.00191
C 11.01833 27.7662 0.00438
C 11.04711 26.34907 0.01291
C 7.29812 16.88975 -0.01362
C 7.42164 19.84427 -0.00892
C 7.54935 21.31702 -0.04848
C 8.81988 22.12552 0.01572
C 4.83809 11.34335 0.01305
C 6.11619 10.6594 -0.00077
C 6.16329 9.29803 0.03368
C 4.85085 8.69307 -0.02929
C 4.87116 7.21661 -0.00966
C 6.14616 6.48001 -0.03337
C 6.12979 5.0747 0.01227
C 4.88128 4.32999 0.00873
C 4.82899 2.93336 -0.00049
C 6.06014 2.27808 0.00848
C 20.87834 9.27107 0.03754
C 6.06885 0.86915 -0.01303
C 7.29628 32.77667 0.02635
C 8.55724 32.00778 0.0127
C 8.63402 30.62298 0.01396
C 7.39639 29.94043 0.01849
C 7.26011 28.53051 -0.01142
C 8.48079 27.77687 -0.00562
C 8.49523 26.36741 -0.00494
C 7.29857 25.67413 0.00054
C 7.33003 24.21108 0.03007
C 8.51002 23.56933 -0.00095
C 4.91148 0.09305 -0.01378
C 3.63336 32.00908 0.02728
C 19.65502 8.52505 0.01739
C 20.948 6.39757 -0.0054
C 29.48387 7.07408 0.01518
C 30.66349 6.32644 0.01908
C 30.65916 4.95067 0.07705
C 29.45577 4.31036 0.0103
C 29.507 2.83301 0.02108
C 30.71493 2.18659 0.00716
C 30.74613 0.777 0.00307
C 29.53361 34.0651 0.00346
C 32.05416 32.68948 0.01713
C 33.22876 31.86843 -0.01694
C 33.19907 30.45715 0.01428
C 32.0097 29.78913 -0.02142
C 31.90828 28.38489 0.0544
C 33.15778 27.65773 0.00026
C 33.15163 26.23035 0.00682
C 31.9051 25.5149 -0.01779
C 31.93251 24.01448 0.03794
C 33.19038 23.34884 0.01927
C 33.14631 21.95388 0.01574
C 31.88475 21.30325 -0.02383
C 31.91088 19.8977 -0.01429
C 29.4985 8.52222 -0.00971
C 33.13864 19.21499 -0.0136
C 30.71935 9.15544 -0.03735
C 29.46175 11.36022 -0.02155
C 27.05167 34.04959 -0.00416
C 29.58596 32.59637 0.01177
C 30.78762 31.98454 0.04266
C 30.85574 30.51421 0.01324
C 29.53928 29.81804 0.0014
C 29.52051 28.42554 0.00924
C 30.70008 27.68703 0.02326
C 30.70709 26.20395 0.00261
C 29.54944 25.47652 0.03265
C 29.51489 24.14126 -0.02049
C 30.63781 23.37608 -0.01854
C 30.67285 21.9835 -0.01415
C 29.39153 21.24261 -0.03039
C 29.46639 19.8674 0.01836
C 30.67669 19.16774 0.03531
C 30.63081 17.73591 -0.00669
C 29.4459 17.00281 0.0101
C 29.43897 15.63987 0.01705
C 30.6495 14.90533 -0.0405
C 30.67623 13.52491 -0.01303
C 29.46003 12.75563 -0.01461
C 30.70393 10.63529 -0.00944
C 28.31731 0.66543 0.01699
C 33.13435 17.79624 0.00594
C 31.88918 15.65811 0.00369
C 1.19777 21.84796 0.02712
C 34.40752 21.2549 -0.02213
C 34.40389 19.88452 0.01951
C 1.16011 19.16447 -0.01678
C 1.17599 17.78022 0.01223
C 34.3121 17.05235 0.00648
C 34.36352 15.59073 0.02114
C 1.13414 14.88305 -0.02957
C 1.18305 13.43146 0.00343
C 34.40289 12.769 -0.02656
C 34.4008 11.34975 -0.02442
C 1.15036 10.68642 -0.00027
C 1.14308 9.34314 -0.00583
C 34.39056 8.63139 -0.02302
C 34.37963 7.16192 -0.02849
C 1.1501 6.43755 0.02931
C 1.13021 4.99992 0.00628
C 34.37527 4.33719 -0.0345
C 34.42769 2.87864 -0.00931
C 1.24477 2.13518 -0.00939
C 1.19865 0.73598 -0.00468
C 1.23091 23.36357 0.00723
C 31.87103 17.03136 -0.02474
C 0.05728 24.09114 0.03076
C 1.17914 26.21779 -0.00598
C 33.13377 14.92441 0.00455
C 33.13655 13.54605 -0.00644
C 31.93534 12.81084 -0.01839
C 31.98031 11.35208 0.00137
C 33.19037 10.66557 0.00199
C 33.17696 9.29702 0.04381
C 31.95062 8.57468 0.02806
C 31.90943 7.09428 0.01504
C 33.06624 6.45118 -0.00069
C 33.15619 5.03943 0.04926
C 31.96744 4.34624 -0.03838
C 31.92949 2.86395 0.00349
C 33.14878 2.17513 -0.00323
C 33.25788 0.72875 -0.00841
C 32.02673 0.00771 0.0001
C 0.02238 32.71648 -0.02927
C 1.22242 31.98385 -0.01404
C 1.19053 30.59999 0.01027
C 0.02635 29.8123 0.01831
C 34.42919 28.34095 -0.01037
C 1.2285 27.68861 -0.00439
C 34.39928 25.52494 -0.05239
C 28.32535 2.10562 0.01799
C 27.08769 2.80418 0.01259
C 27.07068 4.23256 0.01495
C 21.94359 12.88103 0.00199
C 21.94451 11.48571 0.01511
C 23.29724 10.717 -0.00478
C 23.35374 9.27978 -0.01662
C 22.09987 8.55935 -0.01185
C 22.18141 7.13199 0.01126
C 23.42754 6.35428 0.01852
C 23.34652 4.96476 -0.00381
C 22.08259 4.31307 0.03046
C 22.17215 2.87389 0.0296
C 23.38819 2.08319 0.03374
C 23.36396 0.61952 -0.02845
C 22.17497 34.05809 -0.03213
C 24.70322 32.53014 0.02239
C 25.94184 31.95402 0.01153
C 25.87955 30.54455 0.02734
C 24.58539 29.81183 -0.0055
C 24.60754 28.41751 0.01515
C 25.82562 27.71694 -0.00225
C 25.845 26.26624 0.00071
C 24.55194 25.55556 -0.01107
C 23.28291 13.49391 0.01087
C 24.46726 24.12109 -0.01586
C 23.44488 14.82333 -0.01527
C 22.17621 16.95871 0.01277
C 20.89046 5.00453 0.00667
C 19.64971 4.23423 0.00143
C 19.66405 2.80031 -0.017
C 20.95593 2.1267 0.00364
C 20.90207 0.73808 -0.00831
C 19.65514 0.00767 -0.02957
C 22.17548 32.63619 -0.04422
C 23.42199 31.88167 0.00654
C 23.36858 30.56157 -0.00703
C 22.10441 29.80991 -0.04076
C 22.12341 28.35888 -0.00652
C 23.40756 27.70963 0.0058
C 23.33893 26.26145 -0.00865
C 22.05421 25.52374 0.00675
C 22.05926 24.11008 -0.00311
C 23.27915 23.41133 0.00742
C 23.23679 22.00872 -0.01594
C 21.97636 21.16697 0.0106
C 22.07205 19.78099 -0.01154
C 23.31424 19.1693 -0.01721
C 23.42649 17.75501 -0.02422
C 22.21907 15.52891 0.00096
C 25.72914 23.41032 -0.01971
C 25.76877 22.04907 -0.02118
C 24.54216 21.25516 0.00733
C 28.328 26.21711 -0.00802
C 27.04104 25.5653 -0.00218
C 26.99282 24.14481 -0.01654
C 28.25959 23.47892 -0.00037
C 28.22076 22.01298 -0.0032
C 27.02332 21.38152 0.00622
C 27.02576 19.90625 -0.02815
C 28.19353 19.12835 -0.00942
C 28.20584 17.71875 0.00487
C 27.03114 17.05542 0.00826
C 27.01703 15.61016 -0.00294
C 28.1956 14.91758 0.00152
C 28.21459 13.47354 0.01257
C 27.03564 12.79974 0.02316
C 27.0102 11.3449 0.04185
C 28.26674 10.63149 0.00194
C 28.24823 9.20559 -0.00621
C 26.95526 8.51058 0.02611
C 26.99815 7.05861 0.02198
C 28.25073 6.43822 0.01094
C 28.23455 5.04139 0.00235
C 28.30286 27.66279 0.00195
C 27.0924 28.37517 0.00996
C 27.03419 29.80622 0.04306
C 28.28386 30.55553 0.00367
C 24.49574 19.86822 -0.00178
C 25.82834 19.14308 0.00768
C 25.78983 17.66275 -0.0276
C 24.57115 17.02883 0.03005
C 24.61867 15.5938 -0.04078
C 25.80444 14.86239 0.02117
C 25.7344 13.48487 0.02737
C 24.44684 12.74014 -0.00498
C 24.53307 11.3132 0.00135
C 25.79698 10.64218 0.03102
C 19.70124 7.10621 0.00755
C 25.77811 9.24438 0.02555
C 24.56245 7.11076 -0.00285
C 25.81753 6.34116 -0.009
C 25.82151 4.97321 -0.01199
C 24.61677 4.26668 -0.00229
C 24.56961 2.78868 -0.00938
C 25.90808 2.13385 -0.0264
C 25.8315 0.71329 -0.01154
C 24.6334 34.07033 0.00684
C 27.16652 32.70232 -0.01052
C 28.30236 31.96984 -0.01679
C 24.52449 8.49936 0.01423
C 2.44594 32.72118 0.00245
