312
Graphene
C 0.01898 0.02599 0.01295
C 12.34753 15.56648 -0.0331
C 13.44532 14.99383 -0.00316
C 13.53075 13.52857 0.02188
C 12.3392 12.76925 -0.01979
C 12.35287 11.41684 0.02691
C 13.54793 10.6706 -0.01581
C 13.48383 9.1982 0.01452
C 12.26702 8.49126 0.04892
C 12.2853 7.00265 -0.00111
C 13.51862 6.35603 -0.03557
C 13.59477 4.9908 0.03754
C 12.33977 4.21733 0.01739
C 12.33197 2.81702 0.00755
C 13.56983 2.09924 -0.0054
C 13.49618 0.7774 0.00667
C 12.32258 29.79657 -0.0258
C 13.50929 30.44967 0.03338
C 13.47482 31.88959 -0.00491
C 12.34388 32.55726 -0.00109
C 9.78479 15.59617 -0.00619
C 11.03296 14.98279 -0.02162
C 11.06674 13.45537 0.00889
C 9.79363 12.83351 -0.00481
C 9.76069 11.41432 0.00979
C 11.09853 10.70326 0.01443
C 11.0856 9.23892 0.03505
C 12.32567 34.07862 0.00143
C 9.85193 8.52719 -0.02815
C 11.05533 6.41513 -0.05302
C 11.07911 4.95368 0.00213
C 9.86042 4.27659 -0.00066
C 9.85058 2.91213 -0.00289
C 11.07302 2.14022 0.00028
C 11.0698 0.76123 -0.02213
C 9.85457 34.0286 0.03698
C 9.85856 7.10375 -0.04147
C 9.86904 29.83556 0.01848
C 14.82209 32.64682 -0.017
C 15.97971 30.48142 -0.00831
C 14.75418 0.01733 0.00199
C 17.22171 32.6241 0.01511
C 18.38474 31.92767 -0.00478
C 18.44939 30.52054 -0.01662
C 17.28329 29.8122 -0.01185
C 17.23814 28.40458 0.01126
C 18.46908 27.68907 0.01852
C 18.41761 26.3282 -0.00381
C 17.19419 25.56946 0.03046
C 17.20898 24.09017 0.0296
C 17.20073 12.72491 0.03374
C 17.22781 11.39701 -0.02845
C 18.45521 10.63161 -0.03213
C 18.42474 9.2669 0.02239
C 17.22314 8.53736 0.01153
C 16.00673 0.67208 0.01087
C 16.02227 2.19278 -0.01527
C 14.7456 2.78868 0.00096
C 14.77504 4.24446 0.01277
C 14.76869 29.81829 -0.02957
C 14.79241 28.38435 -0.04422
C 15.92542 27.70341 0.00654
C 15.95161 26.21726 -0.00703
C 14.80148 16.97776 -0.04076
C 14.81732 15.60806 -0.00652
C 15.97641 14.94035 0.0058
C 15.96069 31.96399 0.00364
C 15.97395 13.50261 -0.00865
C 14.7005 11.40551 -0.00311
C 15.97341 10.67667 0.00742
C 15.99348 9.21349 -0.01594
C 14.79396 8.47578 0.0106
C 14.75893 7.1006 -0.01154
C 15.97492 6.40951 -0.01721
C 15.9654 5.00239 -0.02422
C 14.79539 12.8013 0.00675
C 17.18927 7.0913 0.02734
C 11.07574 30.44947 0.02098
C 9.81945 32.61364 0.0351
C 3.68876 9.23239 0.0402
C 2.48858 8.54727 0.00572
C 2.40907 7.11552 0.03592
C 3.64601 6.40949 0.00406
C 3.64495 4.98234 0.00943
C 2.44358 4.2555 0.02841
C 2.40814 2.84593 -0.01111
C 3.68894 2.17964 -0.01275
C 3.72577 0.70932 0.00985
C 2.44251 34.07464 -0.02245
C 4.89503 32.62505 -0.00428
C 6.1064 31.93391 0.03101
C 6.15336 30.48978 -0.01536
C 4.87285 29.79754 -0.02689
C 4.95688 28.41036 -0.01046
C 3.7268 10.655 -0.02759
C 2.41981 11.41003 0.03589
C 2.47657 12.75745 -0.00033
C 3.67297 13.52954 -0.01062
C 3.67385 30.5614 -0.00131
C 2.48331 29.84266 -0.01118
C 2.45245 28.34369 -0.014
C 3.68509 27.70271 0.02147
C 3.64479 26.30788 0.00373
C 2.44441 25.58193 -0.00191
C 2.49099 24.15614 0.00438
C 6.22441 17.7652 -0.00891
C 3.68372 23.34084 0.01291
C 2.47964 21.33125 0.00057
C 2.49106 19.91142 -0.01634
C 3.71213 19.19298 -0.00334
C 3.64971 17.84117 0.02339
C 2.48071 17.07975 0.01641
C 2.46624 15.61253 -0.00719
C 3.66341 14.92389 0.01364
C 3.65881 22.09424 0.00093
C 11.09383 31.87487 -0.03113
C 4.988 17.07342 0.02819
C 6.12608 14.91244 -0.02971
C 8.67659 14.8689 -0.01952
C 8.60067 13.46924 -0.02813
C 7.31938 12.753 0.00374
C 7.33904 11.43163 0.00052
C 8.61625 10.66341 -0.03682
C 8.64488 9.21358 0.01965
C 7.36951 8.52135 0.02058
C 7.41476 7.08829 -0.01957
C 8.58532 6.35857 -0.0108
C 8.65419 4.95253 -0.00368
C 7.30485 4.20496 -0.02696
C 7.35296 2.89117 -0.00114
C 8.57558 2.18425 0.00228
C 8.58887 0.72153 0.00798
C 7.38874 0.05248 0.00422
C 7.39745 15.53816 0.05265
C 7.38319 17.06235 -0.01717
C 7.40816 29.86645 0.00244
C 8.64328 30.5396 0.02299
C 6.12831 13.48283 0.02894
C 4.87415 12.7482 -0.01789
C 4.89863 11.33915 0.00444
C 6.17316 10.6537 -0.00925
C 6.16023 9.19893 0.01877
C 4.93226 8.54458 0.01363
C 4.9245 7.14174 -0.02162
C 4.89078 15.63985 0.00165
C 6.18037 6.38705 0.00415
C 4.97862 4.26554 0.02162
C 4.94741 2.871 0.0076
C 6.10933 2.02496 0.01241
C 6.12807 0.67733 -0.01454
C 4.87396 0.01669 0.01945
C 7.31519 32.6317 0.01416
C 8.59586 31.95273 0.03542
C 6.14619 4.99736 -0.0014
C 18.42077 6.38984 -0.0055
C 18.46157 4.91319 0.01515
C 17.19502 4.2994 -0.00225
C 33.22072 26.28915 0.01927
C 33.24841 23.39172 0.01574
C 33.22482 22.04105 -0.02383
C 31.95632 19.861 -0.01429
C 33.23566 19.21912 -0.0136
C 33.1818 17.75984 0.00594
C 31.95408 17.0826 -0.02474
C 32.02868 15.59233 0.00369
C 33.22854 14.92696 0.00455
C 33.21897 13.50141 -0.00644
C 31.99792 12.82519 -0.01839
C 31.92362 11.41942 0.00137
C 33.16176 10.68214 0.00199
C 33.19704 9.25076 0.04381
C 31.91933 8.5192 0.02806
C 33.20225 27.72496 0.03794
C 31.99515 28.38311 -0.01779
C 31.95863 29.789 0.00682
C 33.1801 30.5771 0.00026
C 30.72617 13.52618 -0.00944
C 29.53381 12.80792 -0.03735
C 29.45111 11.36201 -0.00971
C 30.70276 10.68556 0.01518
C 30.74909 9.21845 0.01908
C 29.53591 8.50998 0.07705
C 29.4541 7.13859 0.0103
C 31.93346 7.13142 0.01504
C 30.77758 6.45125 0.02108
C 29.53195 4.19916 0.00307
C 29.50439 2.84019 0.00346
C 30.68413 2.11559 0.01713
C 30.76027 0.70946 -0.01694
C 29.50611 0.02765 0.01428
C 31.90927 32.65169 -0.02142
C 33.17101 31.95466 0.0544
C 30.72251 4.91003 0.00716
C 30.77569 14.95484 -0.02155
C 33.14464 6.39103 -0.00069
C 31.98313 4.29333 -0.03838
C 34.42996 15.58228 0.02114
C 1.2254 14.90957 -0.02957
C 1.22741 13.51825 0.00343
C 0.03947 12.76631 -0.02656
C 34.43295 11.407 -0.02442
C 1.20048 10.65992 -0.00027
C 1.21891 9.23537 -0.00583
C 34.40818 8.52737 -0.02302
C 34.37038 7.14872 -0.02849
C 1.24716 6.37247 0.02931
C 1.23024 4.91697 0.00628
C 0.04608 4.20758 -0.0345
C 0.00028 2.84498 -0.00931
C 1.23813 2.15684 -0.00939
C 1.26157 0.7184 -0.00468
C 34.41675 17.0104 0.00648
C 1.21792 17.72863 0.01223
C 1.22042 19.20833 -0.01678
C 0.04938 19.92628 0.01951
C 31.9792 2.78919 0.00349
C 33.22821 2.08687 -0.00323
C 33.21878 0.70538 -0.00841
C 31.96802 0.03237 0.0001
C 0.00086 32.61875 -0.02927
C 1.18288 31.96774 -0.01404
C 1.27628 30.48164 0.01027
C 33.17179 4.93273 0.04926
C 34.39588 29.84024 0.01831
C 1.20067 27.65002 -0.00439
C 1.20113 26.30005 -0.00598
C 34.41201 25.58623 -0.05239
C 34.43174 24.10579 0.03076
C 1.26064 23.43059 0.00723
C 1.21934 22.06325 0.02712
C 0.04391 21.28843 -0.02213
C 0.00472 28.35456 -0.01037
C 29.49294 15.6482 -0.01461
C 29.57755 17.01279 -0.01303
C 30.71665 17.75765 -0.0405
C 20.92076 0.66719 -0.01199
C 19.65614 0.01913 -0.00229
C 22.13293 32.68706 -0.00938
C 23.3777 32.01278 -0.0264
C 23.38103 30.56167 -0.01154
C 22.18347 29.85724 0.00684
C 22.07292 28.40257 -0.01052
C 22.16943 11.3479 -0.01679
C 23.35379 10.67155 0.00367
C 23.42591 9.27671 0.04306
C 22.15857 8.5271 0.00996
C 22.09543 7.0607 0.00195
C 23.35024 6.41784 -0.00802
C 23.38614 4.99932 -0.00218
C 22.17597 2.9014 -0.01654
C 20.87033 2.07877 -0.009
C 19.62446 2.79271 -0.00285
C 20.89506 6.40692 0.01423
C 19.73065 7.07932 0.02555
C 17.13816 2.83558 0.00071
C 18.39825 2.14083 -0.01107
C 18.43198 0.67174 -0.01586
C 17.19137 34.07903 -0.01971
C 19.64403 32.60821 -0.02118
C 20.89132 32.01153 0.00733
C 20.90251 30.55656 -0.00178
C 23.3633 2.13445 -0.00037
C 19.65936 29.81763 0.00768
C 20.87658 27.66947 0.03005
C 20.76217 26.25318 -0.04078
C 19.69656 25.62219 0.02117
C 19.72124 11.31642 0.02737
C 20.94724 10.69469 -0.00498
C 20.8744 9.27634 0.00135
C 19.68681 8.54373 0.03102
C 19.6531 28.46796 -0.0276
C 23.35337 0.7275 -0.0032
C 22.11194 34.07783 0.00622
C 24.60065 32.681 -0.02815
C 27.08033 11.35378 0.04266
C 28.29753 10.64727 0.01324
C 28.26692 9.19144 0.0014
C 27.04304 8.4921 0.00924
C 27.04523 7.09482 0.02326
C 28.25367 6.43858 0.00261
C 28.2824 4.8972 0.03265
C 27.03109 12.73932 0.01177
C 27.00684 4.20972 -0.02049
C 28.28212 2.16478 -0.01415
C 28.34364 0.7301 -0.03039
C 27.00063 34.0113 0.01836
C 29.48417 32.65493 0.03531
C 30.76416 31.9273 -0.00669
C 30.71318 30.4894 0.0101
C 30.76485 19.20929 0.01705
C 27.08294 2.80249 -0.01854
C 3.6852 31.97173 -0.02896
C 28.29635 13.50853 -0.00416
C 28.27287 30.51269 0.01799
C 25.83973 31.87351 -0.00942
C 25.79066 30.49853 0.00487
C 24.56396 11.33523 0.00826
C 25.81906 10.66529 -0.00294
C 25.86527 9.19586 0.00152
C 24.59616 8.56071 0.01257
C 24.52565 7.08607 0.02316
C 28.22264 14.87822 0.01699
C 25.83055 6.31623 0.04185
C 24.54795 4.28682 -0.00621
C 24.64792 2.835 0.02611
C 25.84945 2.1217 0.02198
C 25.75403 0.70893 0.01094
C 24.54558 34.02541 0.00235
C 27.05731 32.64094 0.01495
C 28.28849 31.92842 0.01259
C 25.86123 4.92438 0.00194
C 2.4644 32.63478 -0.01004
