308
Graphene
C 0.01446 0.01941 0.01295
C 12.32626 4.24147 0.02188
C 12.29816 2.86858 -0.01979
C 13.5359 2.18319 0.02691
C 13.5507 0.70129 -0.01581
C 12.32438 0.03057 0.01452
C 14.77656 32.65177 0.04892
C 15.9804 31.93838 -0.00111
C 15.95523 30.503 -0.03557
C 14.75522 29.76024 0.03754
C 14.77183 28.36873 0.01739
C 15.99855 27.69922 0.00755
C 16.02126 26.24016 -0.0054
C 14.77133 25.54473 0.00667
C 14.79839 24.12182 0.00143
C 15.97007 23.46759 -0.017
C 13.50929 4.98302 -0.00316
C 16.00121 22.00801 0.00364
C 13.48027 6.34964 -0.0331
C 12.29999 8.47569 0.03338
C 11.01545 0.71067 -0.00481
C 9.80157 0.00971 0.00979
C 12.31705 32.65554 0.01443
C 13.49744 31.95406 0.03505
C 13.47629 30.55675 -0.02815
C 13.56585 22.05441 -0.04147
C 12.29831 19.91005 -0.05302
C 13.5295 19.17181 0.00213
C 13.52774 17.74191 -0.00066
C 12.28889 17.05172 -0.00289
C 12.35256 15.61579 0.00028
C 13.56339 14.90531 -0.02213
C 13.52673 13.56517 0.03698
C 12.28611 12.72944 -0.00109
C 12.27733 11.36731 -0.00491
C 12.32774 7.06818 -0.0258
C 14.78394 21.30366 -0.00831
C 14.77576 19.90652 -0.02957
C 16.02663 19.1776 -0.04422
C 18.44698 19.14549 -0.00478
C 17.19286 2.85565 -0.01662
C 18.44357 2.10408 -0.01185
C 18.44037 0.67239 0.01126
C 17.21224 34.04837 0.01852
C 19.72958 32.64407 -0.00381
C 20.90669 31.94592 0.03046
C 20.93179 30.53802 0.0296
C 19.64636 29.84886 0.03374
C 19.66813 28.4001 -0.02845
C 20.89303 27.64467 -0.03213
C 20.91374 26.29973 0.02239
C 19.70697 25.58557 0.01153
C 19.63756 24.09911 0.02734
C 20.87689 23.42812 -0.0055
C 17.19449 19.88258 0.01511
C 17.23575 21.27092 0.00199
C 18.48783 22.01896 0.01087
C 18.43229 23.41489 -0.01527
C 15.98113 17.77682 0.00654
C 14.7537 17.00962 -0.00703
C 14.79803 4.22497 -0.04076
C 14.76597 2.85933 -0.00652
C 15.98367 2.11301 0.0058
C 15.99327 0.67525 -0.00865
C 14.7875 34.06381 0.00675
C 11.05039 2.16592 0.00889
C 17.18425 32.65592 -0.00311
C 18.44889 30.49385 -0.01594
C 17.19325 29.8259 0.0106
C 17.20023 28.43703 -0.01154
C 18.42272 27.69976 -0.01721
C 18.43839 26.24884 -0.02422
C 17.22728 25.53726 0.01277
C 17.19184 24.12508 0.00096
C 18.45853 31.96349 0.00742
C 20.92521 22.03268 0.01515
C 9.83103 2.86553 -0.02162
C 11.07909 4.92557 0.01848
C 2.43621 34.07395 0.00406
C 4.88935 32.6385 0.00943
C 6.16218 17.7834 0.02841
C 4.89782 17.03374 -0.01111
C 4.9054 15.66559 -0.01275
C 6.12877 14.92552 0.00985
C 6.14442 13.49385 -0.02245
C 4.87026 12.79886 -0.00428
C 4.9175 11.37843 0.03101
C 6.15509 10.62271 -0.01536
C 6.12872 9.21999 -0.02689
C 4.94032 8.51118 -0.01046
C 4.93659 7.08352 -0.00891
C 6.17542 6.3694 0.02819
C 6.13007 4.97231 0.00165
C 3.67554 0.72548 0.03592
C 4.95008 4.28704 -0.02971
C 3.65969 2.15615 0.00572
C 2.46972 4.22325 -0.02759
C 2.46342 19.88574 0.00373
C 3.66688 19.20949 -0.00191
C 3.73103 17.77691 0.00438
C 2.44433 17.01998 0.01291
C 2.46876 15.63335 0.00093
C 3.67743 14.92091 0.00057
C 3.67264 13.51169 -0.01634
C 2.48061 12.79847 -0.00334
C 2.46524 11.41178 0.02339
C 3.71123 10.6417 0.01641
C 3.72786 9.26012 -0.00719
C 2.46438 8.55128 0.01364
C 2.48156 7.14915 -0.01062
C 3.64666 6.43332 -0.00033
C 3.68608 4.98505 0.03589
C 2.46059 2.83656 0.0402
C 4.8988 2.83066 0.02894
C 6.1177 2.1687 -0.01789
C 6.16039 0.67605 0.00444
C 9.85654 32.65695 0.00052
C 11.07353 31.97244 -0.03682
C 11.13526 19.1651 0.01965
C 11.07828 17.71567 0.02058
C 9.78768 17.03305 -0.01957
C 9.82416 15.67685 -0.0108
C 11.08405 14.91419 -0.00368
C 11.09154 13.44846 -0.02696
C 9.82958 12.78608 -0.00114
C 9.86612 11.37223 0.00228
C 11.0479 10.62209 0.00798
C 11.05893 9.24501 0.00422
C 9.79656 8.46956 0.0351
C 9.81837 7.11631 -0.03113
C 11.03996 6.40134 0.02098
C 7.37558 34.06836 0.00374
C 8.61385 0.72236 -0.02813
C 8.59261 2.06043 -0.01952
C 7.41712 2.83142 0.05265
C 4.92471 0.02409 -0.00925
C 7.37678 32.68263 0.01877
C 8.61948 17.74428 0.01363
C 7.35813 16.99461 -0.02162
C 7.34218 15.61209 0.00415
C 8.64283 14.92115 -0.0014
C 8.62292 13.48092 0.02162
C 9.84875 4.28421 -0.00619
C 7.38609 12.79146 0.0076
C 8.59568 10.62696 -0.01454
C 8.62919 9.23297 0.01945
C 7.39913 8.54834 0.01416
C 7.38374 7.12684 0.03542
C 8.62676 6.32645 0.02299
C 8.61281 4.94944 0.00244
C 7.36337 4.27122 -0.01717
C 7.34254 11.32217 0.01241
C 19.66959 21.30022 -0.00225
C 19.63169 19.92429 0.00071
C 19.67638 2.82498 -0.01107
C 33.24298 27.64314 0.01927
C 33.2086 26.27165 0.01574
C 31.99956 25.58131 -0.02383
C 31.99415 24.15935 -0.01429
C 33.20161 23.42875 -0.0136
C 33.18804 22.01959 0.00594
C 31.9962 21.33032 -0.02474
C 31.99327 19.85308 0.00369
C 33.19792 19.1697 0.00455
C 33.25337 17.72656 -0.00644
C 31.96309 17.07371 -0.01839
C 31.96241 15.61403 0.00137
C 33.20388 14.92678 0.00199
C 33.15548 13.54118 0.04381
C 31.97211 12.78917 0.02806
C 31.99153 28.42149 0.03794
C 31.91458 11.37637 0.01504
C 31.97528 29.82902 -0.01779
C 33.21845 31.95841 0.00026
C 30.74996 14.93796 -0.03735
C 30.71298 13.50634 -0.00971
C 29.51246 12.80027 0.01518
C 30.76453 10.67891 0.01908
C 30.71131 9.23945 0.07705
C 29.46776 8.52614 0.0103
C 29.51652 7.10423 0.02108
C 30.75948 6.36003 0.00716
C 30.72288 4.98202 0.00307
C 29.5006 4.24707 0.00346
C 29.51655 2.86494 0.01713
C 30.76044 2.10043 -0.01694
C 30.74671 0.71625 0.01428
C 29.4957 34.06011 -0.02142
C 32.00259 32.65478 0.0544
C 33.17438 30.55333 0.00682
C 33.14897 10.65517 -0.00069
C 33.17492 9.23573 0.04926
C 31.96232 8.48879 -0.03838
C 34.42529 15.63841 0.02114
C 1.19714 14.90483 -0.02957
C 1.23886 13.52452 0.00343
C 0.00198 12.733 -0.02656
C 34.4084 11.37052 -0.02442
C 1.21518 10.69867 -0.00027
C 1.25557 9.22336 -0.00583
C 0.00269 8.5505 -0.02302
C 34.41797 7.09191 -0.02849
C 1.2075 6.37034 0.02931
C 1.21015 4.94985 0.00628
C 34.40377 4.25783 -0.0345
C 0.03619 2.83006 -0.00931
C 1.26425 2.11794 -0.00939
C 1.28588 0.69192 -0.00468
C 0.00058 17.02282 0.00648
C 1.22036 17.75356 0.01223
C 1.25644 19.19216 -0.01678
C 34.41958 19.88476 0.01951
C 31.97522 7.12033 0.00349
C 33.1846 6.3927 -0.00323
C 33.22434 4.97068 -0.00841
C 31.98024 4.22147 0.0001
C 31.98701 2.8136 -0.02927
C 33.21514 2.15408 -0.01404
C 33.20316 0.72382 0.01027
C 29.53274 15.56888 -0.00944
C 31.93293 0.00076 0.01831
C 1.25782 31.88733 -0.00439
C 1.21909 30.50758 -0.00598
C 34.41744 29.86028 -0.05239
C 34.39856 28.39482 0.03076
C 34.40741 25.57928 0.00723
C 34.39871 24.1808 0.02712
C 34.42525 21.26378 -0.02213
C 0.02553 32.67845 -0.01037
C 29.53044 17.0561 -0.02155
C 30.76646 17.75383 -0.01461
C 30.7471 19.13089 -0.01303
C 24.6296 32.68283 -0.00938
C 25.8344 31.94565 -0.0264
C 25.83517 30.53973 -0.01154
C 24.58914 29.8094 0.00684
C 24.58281 28.36965 -0.01052
C 25.85249 27.68402 -0.01679
C 25.82714 26.32292 0.00367
C 24.6086 25.57999 0.04306
C 24.60544 24.17274 0.00996
C 25.80571 23.44679 0.00195
C 25.83527 22.02599 -0.00802
C 24.59991 21.3234 -0.00218
C 24.61784 19.90437 -0.01654
C 25.84786 19.1503 -0.00037
C 24.59431 2.82249 -0.0032
C 22.1038 0.03915 -0.00229
C 23.38542 0.69352 -0.01199
C 23.3958 2.17032 -0.009
C 23.33842 19.11534 -0.00285
C 20.88015 2.11393 -0.01586
C 20.89759 0.72883 -0.01971
C 19.69772 34.07067 -0.02118
C 22.07818 32.65359 0.00733
C 23.33413 31.92558 -0.00178
C 23.33006 30.50666 0.00768
C 22.11713 29.84689 -0.0276
C 25.80833 2.0943 0.00622
C 22.12782 28.44865 0.03005
C 23.35362 26.30524 0.02117
C 22.1541 25.57339 0.02737
C 22.17093 24.16553 -0.00498
C 23.34209 23.43398 0.00135
C 23.33729 22.00688 0.03102
C 22.11549 21.28346 0.02555
C 22.17271 19.85693 0.01423
C 23.33647 27.66705 -0.04078
C 3.66948 31.98825 0.02147
C 25.83062 0.69864 -0.02815
C 27.03884 32.67862 0.00487
C 28.27319 0.70631 0.0014
C 27.03829 34.05977 0.00924
C 29.53726 32.65724 0.02326
C 30.73186 31.94002 0.00261
C 30.74652 30.50853 0.03265
C 29.49873 29.75082 -0.02049
C 29.50741 28.40222 -0.01854
C 30.72868 27.7229 -0.01415
C 30.77213 26.33201 -0.03039
C 29.52742 25.50838 0.01836
C 29.50767 24.11154 0.03531
C 30.7267 23.40419 -0.00669
C 30.72999 22.02089 0.0101
C 29.53975 21.29136 0.01705
C 29.51151 19.85648 -0.0405
C 28.2614 2.12833 0.01324
C 27.08884 2.82336 0.04266
C 27.01281 4.22501 0.01177
C 28.26433 4.97427 -0.00416
C 28.28673 31.92376 0.00826
C 28.28042 30.53998 -0.00294
C 27.07453 29.81757 0.00152
C 27.05675 28.40086 0.01257
C 28.27884 27.63744 0.02316
C 28.2861 26.24145 0.04185
C 27.0396 25.5522 0.00194
C 24.60623 34.0722 -0.00942
C 27.0794 24.13783 -0.00621
C 28.27492 22.02875 0.02198
C 27.03395 21.29065 0.01094
C 27.02442 19.86757 0.00235
C 28.27347 19.12806 0.01495
C 28.26478 17.76958 0.01259
C 27.08594 17.02263 0.01799
C 28.29617 6.37282 0.01699
C 28.24471 23.45097 0.02611
C 2.40514 32.62759 -0.014
