446
Graphene
C 34.40917 34.01339 0.01295
C 13.46937 17.81674 0.00438
C 12.24992 17.10113 0.01291
C 12.26622 15.68234 0.00093
C 13.45327 14.93296 0.00057
C 13.55065 13.46811 -0.01634
C 12.37206 12.78996 -0.00334
C 12.36072 11.40702 0.02339
C 13.52352 10.60053 0.01641
C 13.48455 9.22495 -0.00719
C 12.20282 8.44811 0.01364
C 12.29817 7.02558 -0.01062
C 13.57258 6.4024 -0.00033
C 13.553 5.04243 0.03589
C 12.34347 4.3024 -0.02759
C 12.35214 2.75057 0.0402
C 13.4936 2.01372 0.00572
C 13.46216 0.60974 0.03592
C 12.27011 33.9819 0.00406
C 14.71111 32.64313 0.00943
C 15.98419 31.94399 0.02841
C 16.00187 30.46319 -0.01111
C 14.75391 29.859 -0.01275
C 14.73995 28.34321 0.00985
C 13.53216 19.19769 -0.00191
C 12.2357 19.95752 0.00373
C 12.29469 21.38018 0.02147
C 13.52292 22.09766 -0.014
C 11.13335 13.55652 -0.00562
C 9.9363 12.84418 -0.00494
C 9.80583 11.48331 0.00054
C 11.01223 10.72587 0.03007
C 11.0295 9.23926 -0.00095
C 9.79688 8.63772 0.01572
C 9.87236 7.15982 -0.04848
C 11.05521 6.45389 -0.00892
C 11.12161 5.03429 -0.01362
C 9.90444 4.31097 -0.0008
C 9.82952 2.89116 0.0288
C 15.97716 27.71092 -0.02245
C 11.07491 2.104 0.00393
C 9.77537 0.02504 0.00685
C 12.23847 32.54317 0.02888
C 13.4827 31.96162 -0.00482
C 13.50554 30.52559 -0.01384
C 12.31714 29.9099 0.03693
C 12.21556 28.49067 0.01745
C 13.44376 27.68653 0.00488
C 13.46739 26.30229 -0.01004
C 12.29195 25.6089 -0.02896
C 12.26072 24.15854 -0.00131
C 13.55418 23.45045 -0.01118
C 11.02081 0.70214 0.00895
C 15.9525 26.23391 -0.00428
C 14.71575 25.59617 0.03101
C 14.73894 24.22566 -0.01536
C 18.41359 27.674 0.00374
C 18.40381 26.30704 0.00052
C 17.18445 25.54192 -0.03682
C 17.1994 24.12331 0.01965
C 18.38983 23.37594 0.02058
C 18.4051 21.91041 -0.01957
C 17.13306 21.20121 -0.0108
C 17.17162 19.80705 -0.00368
C 18.4235 19.1681 -0.02696
C 18.38333 17.73563 -0.00114
C 17.17375 17.02769 0.00228
C 17.20198 28.42146 -0.02813
C 17.23201 15.58411 0.00798
C 18.44484 13.52397 0.0351
C 17.27848 12.77979 -0.03113
C 17.23553 11.41356 0.02098
C 18.42884 10.62013 0.01848
C 18.46306 9.22555 -0.00619
C 17.24609 8.49123 -0.02162
C 17.2444 7.10647 0.00889
C 18.48544 6.35513 -0.00481
C 18.4547 4.9864 0.00979
C 17.23297 4.2726 0.01443
C 17.25347 2.80897 0.03505
C 18.37482 14.94366 0.00422
C 11.07177 14.9777 -0.01142
C 17.22154 29.82258 -0.01952
C 18.40785 32.00531 -0.01717
C 15.9862 23.4268 -0.02689
C 15.97743 21.98494 -0.01046
C 14.71583 21.28937 -0.00891
C 14.70992 19.88132 0.02819
C 15.95701 19.11284 0.00165
C 15.90997 17.72713 -0.02971
C 14.68202 17.00922 0.02894
C 14.72196 15.62168 -0.01789
C 16.01866 14.87011 0.00444
C 16.02917 13.46445 -0.00925
C 14.76891 12.71504 0.01877
C 18.3994 30.57562 0.05265
C 14.72046 11.32189 0.01363
C 16.00686 9.23305 0.00415
C 14.76774 8.49775 -0.0014
C 14.8247 7.08223 0.02162
C 16.05049 6.43463 0.0076
C 15.9893 4.95918 0.01241
C 14.77956 4.20363 -0.01454
C 14.72672 2.80661 0.01945
C 15.97239 2.12395 0.01416
C 15.95336 0.64815 0.03542
C 14.75013 34.03662 0.02299
C 17.16968 32.6752 0.00244
C 15.99828 10.66425 -0.02162
C 9.81725 15.65859 0.01849
C 9.90501 17.01212 0.01396
C 11.03128 17.86835 0.0127
C 3.67904 0.66781 -0.0154
C 2.43131 34.01222 -0.01299
C 4.93064 32.65248 -0.00407
C 6.08058 32.02198 0.01138
C 6.18715 30.52104 0.03278
C 4.98278 29.82398 -0.00177
C 4.91904 28.46853 0.04421
C 6.14555 27.69644 0.00088
C 6.14271 26.29838 0.00828
C 4.84438 25.59855 -0.02375
C 4.88264 24.19146 0.00558
C 3.64709 2.06318 0.00662
C 6.11566 23.52614 -0.0059
C 4.91532 21.2431 -0.02805
C 4.96639 19.85991 0.00081
C 6.15401 19.17383 0.00245
C 6.19144 17.79015 0.02728
C 4.86133 17.04927 -0.00039
C 4.9147 15.6386 0.0064
C 6.15318 14.94889 0.00211
C 6.12534 13.56121 -0.00449
C 4.99128 12.82546 -0.01979
C 4.92584 11.38483 0.02784
C 6.11809 10.6812 -0.01977
C 6.12785 22.04208 -0.01386
C 6.11071 9.30847 -0.00561
C 2.42568 2.76601 0.00748
C 3.60438 4.95758 -0.00112
C 3.69587 30.52804 0.02438
C 2.44368 29.84336 -0.02419
C 2.41441 28.42199 -0.03951
C 3.67179 27.77789 -0.00141
C 3.68077 26.37606 -0.00374
C 2.41523 25.59162 -0.0213
C 2.46161 24.11578 0.01116
C 3.71458 23.32058 -0.0005
C 3.74342 21.9989 -0.00018
C 2.45128 21.27037 0.01073
C 2.36828 19.84277 0.01984
C 2.42107 4.20239 0.03345
C 3.61125 19.21573 0.00535
C 2.43514 17.0376 -0.00012
C 2.48776 15.60762 -0.04306
C 3.66072 14.96707 -0.03672
C 3.74945 13.49108 0.01913
C 2.4952 12.69927 0.00267
C 2.47663 11.32535 0.00787
C 3.7272 10.67471 0.02426
C 3.66622 9.28102 0.01218
C 2.41493 8.50369 -0.01471
C 2.48554 7.1348 -0.02827
C 3.72243 6.35949 0.01078
C 3.59437 17.77547 -0.00198
C 18.50964 2.13401 -0.02815
C 4.89738 8.56912 0.00208
C 6.1023 6.41942 0.02769
C 8.59328 9.31428 0.017
C 7.34477 8.61218 -0.03113
C 7.32553 7.1938 -0.02566
C 8.6751 6.51823 -0.00094
C 8.64566 4.99565 0.02322
C 7.38965 4.33033 -0.00725
C 7.42497 2.92138 -0.05697
C 8.68728 2.16649 0.01087
C 8.63895 0.71472 -0.01343
C 7.35907 0.0797 0.00988
C 9.79592 32.64179 0.0276
C 8.57455 10.74121 -0.00643
C 10.97588 31.87287 0.01305
C 9.79248 29.87284 0.03368
C 9.78173 28.40793 -0.02929
C 11.01499 27.8053 -0.00966
C 11.02604 26.27785 -0.03337
C 9.81129 25.62717 0.01227
C 9.78349 24.15875 0.00873
C 11.02258 23.42016 -0.00049
C 11.022 22.01452 0.00848
C 9.79851 21.28763 -0.01303
C 9.77808 19.94258 -0.01378
C 11.01858 19.28611 0.02635
C 11.03184 30.53306 -0.00077
C 4.89914 7.09545 0.01707
C 7.4058 11.47431 0.0086
C 8.65071 13.51435 -0.00074
C 6.11785 5.03157 -0.03291
C 4.85675 4.28696 -0.04999
C 4.92376 2.82928 0.04505
C 6.14863 2.18135 0.03284
C 6.14651 0.74303 -0.04307
C 4.95643 0.01575 0.03189
C 7.31808 32.72928 0.00031
C 8.5584 31.994 -0.003
C 8.60285 30.529 0.01402
C 7.37002 29.79396 0.02379
C 7.39182 28.41446 0.00907
C 7.34894 12.89515 -0.00518
C 8.60209 27.66016 0.00643
C 7.34518 25.57034 0.03267
C 7.32626 24.21812 0.02374
C 8.56182 23.47879 0.00402
C 8.55894 22.07761 0.0073
C 7.34775 21.35025 0.0174
C 7.31114 19.8987 0.03828
C 8.54939 19.17861 0.01226
C 8.50032 17.77342 -0.00279
C 7.34268 17.00819 0.01996
C 7.33502 15.59842 -0.03996
C 8.58999 14.98691 0.01465
C 8.61993 26.28115 -0.01509
C 18.45251 0.76521 -0.04147
C 17.21758 0.10619 -0.05302
C 19.6847 32.6107 0.00213
C 29.49019 17.0287 0.0101
C 29.45431 15.5679 0.01705
C 30.6807 14.87066 -0.0405
C 30.73731 13.47312 -0.01303
C 29.48868 12.74991 -0.01461
C 29.56247 11.25883 -0.02155
C 30.7615 10.57632 -0.00944
C 30.73499 9.23958 -0.03735
C 29.42995 8.46638 -0.00971
C 29.42106 7.10673 0.01518
C 30.76165 6.39162 0.01908
C 30.73699 17.65019 -0.00669
C 30.75162 4.98151 0.07705
C 29.49452 2.89441 0.02108
C 30.73022 2.1897 0.00716
C 30.7802 0.84706 0.00307
C 29.52583 0.05758 0.00346
C 32.01522 32.70848 0.01713
C 33.22329 32.00059 -0.01694
C 33.20711 30.59028 0.01428
C 31.94852 29.81808 -0.02142
C 31.90329 28.43053 0.0544
C 33.12664 27.65508 0.00026
C 33.20925 26.18638 0.00682
C 29.49662 4.25767 0.0103
C 31.93233 25.59344 -0.01779
C 30.73559 19.14161 0.03531
C 29.51349 21.29952 -0.03039
C 27.078 12.77046 0.02316
C 27.02286 11.37812 0.04185
C 28.30413 10.63894 0.00194
C 28.2064 9.14627 -0.00621
C 26.83409 8.49927 0.02611
C 26.88746 7.04693 0.02198
C 28.19154 6.46405 0.01094
C 28.32441 4.99004 0.00235
C 27.07749 4.24856 0.01495
C 27.07004 2.86999 0.01259
C 28.27545 2.13392 0.01799
C 29.54269 19.87584 0.01836
C 28.25997 0.67746 0.01699
C 29.51834 32.73636 0.01177
C 30.77634 32.0022 0.04266
C 30.71426 30.56321 0.01324
C 29.49709 29.87202 0.0014
C 29.43321 28.45863 0.00924
C 30.69114 27.7838 0.02326
C 30.73792 26.41526 0.00261
C 29.52356 25.68354 0.03265
C 29.52217 24.18172 -0.02049
C 30.73664 23.44845 -0.01854
C 30.71206 21.9762 -0.01415
C 26.98087 34.06666 -0.00416
C 28.33099 13.50859 0.01257
C 31.93249 24.22763 0.03794
C 33.18263 21.97375 0.01574
C 0.01589 25.549 -0.05239
C 0.01918 24.12606 0.03076
C 1.30614 23.40763 0.00723
C 1.22255 21.97446 0.02712
C 34.37747 21.29668 -0.02213
C 34.38276 19.89093 0.01951
C 1.16633 19.13031 -0.01678
C 1.20145 17.68719 0.01223
C 0.07655 16.95548 0.00648
C 0.01625 15.51633 0.02114
C 1.23536 14.90429 -0.02957
C 1.21171 26.25206 -0.00598
C 1.23068 13.49579 0.00343
C 0.13947 11.32511 -0.02442
C 1.30093 10.60823 -0.00027
C 1.23564 9.16917 -0.00583
C 0.06841 8.44476 -0.02302
C 0.03952 7.04047 -0.02849
C 1.23195 6.38877 0.02931
C 1.18345 4.90791 0.00628
C 0.00108 4.24634 -0.0345
C 0.01625 2.87078 -0.00931
C 1.16387 2.11593 -0.00939
C 1.2133 0.6329 -0.00468
C 0.02219 12.72218 -0.02656
C 33.16801 23.49358 0.01927
C 1.24771 27.64146 -0.00439
C 34.39188 29.7653 0.01831
C 31.98484 21.22756 -0.02383
C 31.9313 19.76562 -0.01429
C 33.14105 19.0819 -0.0136
C 33.1979 17.65683 0.00594
C 31.97048 16.93628 -0.02474
C 31.93934 15.50848 0.00369
C 33.15999 14.85206 0.00455
C 33.24915 13.41628 -0.00644
C 32.01687 12.66609 -0.01839
C 32.02834 11.28742 0.00137
C 33.28976 10.6017 0.00199
C 34.36596 28.36904 -0.01037
C 33.24198 9.16839 0.04381
C 31.98342 7.05751 0.01504
C 33.23176 6.37842 -0.00069
C 33.12171 4.98432 0.04926
C 31.96739 4.26714 -0.03838
C 31.9865 2.89615 0.00349
C 33.15792 2.16041 -0.00323
C 33.16859 0.71877 -0.00841
C 31.97448 0.06235 0.0001
C 34.42866 32.60858 -0.02927
C 1.13812 31.90498 -0.01404
C 1.19981 30.39941 0.01027
C 31.98705 8.43059 0.02806
C 3.66953 31.88059 0.00297
C 28.25839 14.88928 0.00152
C 27.08785 17.04682 0.00826
C 20.9921 2.18769 -0.02957
C 20.88578 0.76999 -0.04422
C 19.64031 34.07027 0.00654
C 22.04489 32.6985 -0.00703
C 23.28645 32.0408 -0.04076
C 23.35277 30.55065 -0.00652
C 22.12454 29.79515 0.0058
C 22.19307 28.40173 -0.00865
C 23.46332 27.63826 0.00675
C 23.33829 26.16936 -0.00311
C 22.09839 25.62851 0.00742
C 19.6776 2.84506 -0.00831
C 22.07345 24.14206 -0.01594
C 23.3576 22.01514 -0.01154
C 22.08595 21.36367 -0.01721
C 22.13287 19.90781 -0.02422
C 23.42601 19.17198 0.01277
C 23.38396 17.70955 0.00096
C 22.12119 17.02526 -0.01527
C 22.07638 15.59787 0.01087
C 23.36126 14.84085 0.00199
C 23.30197 13.40297 0.01511
C 22.07372 12.68946 -0.00478
C 22.11968 11.31167 -0.01662
C 23.31802 23.41435 0.0106
C 23.39994 10.66483 -0.01185
C 19.74074 4.36769 0.00364
C 21.00685 6.45634 0.00143
C 20.89036 31.98049 -0.00066
C 20.88352 30.51767 -0.00289
C 19.65305 29.88478 0.00028
C 19.7029 28.44467 -0.02213
C 20.90218 27.70124 0.03698
C 20.88156 26.30569 -0.00109
C 19.71217 25.60514 -0.00491
C 19.61106 24.1318 0.03338
C 20.86861 23.40825 -0.0258
C 20.87571 22.00329 -0.0331
C 19.64617 21.3218 -0.00316
C 20.93675 5.03522 -0.017
C 19.62917 19.87369 0.02188
C 20.84623 17.73181 0.02691
C 19.6224 17.06693 -0.01581
C 19.64818 15.61042 0.01452
C 20.83104 14.86886 0.04892
C 20.841 13.47621 -0.00111
C 19.58988 12.79344 -0.03557
C 19.65502 11.37711 0.03754
C 20.91093 10.60342 0.01739
C 20.99919 9.189 0.00755
C 19.71713 8.53553 -0.0054
C 19.71601 7.08895 0.00667
C 20.87845 19.11592 -0.01979
C 27.03396 15.63059 -0.00294
C 23.52813 9.29246 0.01126
C 22.29176 7.10585 -0.00381
C 25.8134 10.67739 0.01423
C 25.69983 9.30088 -0.00285
C 25.67982 6.35724 -0.009
C 25.81452 4.92817 -0.01199
C 24.65578 4.23106 -0.00229
C 24.64679 2.83397 -0.00938
C 25.81292 2.09417 -0.0264
C 25.77535 0.70734 -0.01154
C 24.52782 0.01859 0.00684
C 26.98431 32.65533 -0.01052
C 28.23396 32.02469 -0.01679
C 24.60538 11.39119 0.02555
C 28.23756 30.62104 0.00367
C 27.06149 28.4948 0.00996
C 28.28833 27.71854 0.00195
C 28.17829 26.28186 -0.00802
C 26.99875 25.61677 -0.00218
C 27.04255 24.12868 -0.01654
C 28.28031 23.44381 -0.00037
C 28.26531 22.00621 -0.0032
C 27.06671 21.39838 0.00622
C 27.03196 19.89282 -0.02815
C 28.27211 19.14823 -0.00942
C 28.29365 17.75015 0.00487
C 27.02321 29.87396 0.04306
C 22.32726 8.52525 0.01852
C 24.5844 12.7733 0.03102
C 25.8283 14.84638 -0.00498
C 23.47819 6.35292 0.03046
C 23.47169 4.97557 0.0296
C 22.14924 4.31898 0.03374
C 22.21831 2.89972 -0.02845
C 23.38477 2.10719 -0.03213
C 23.36546 0.73733 0.02239
C 22.14417 0.02599 0.01153
C 24.51178 32.66049 0.02734
C 25.78183 31.90736 -0.0055
C 25.73956 30.51111 0.01515
C 24.51623 29.76357 -0.00225
C 25.81738 13.402 0.00135
C 24.59935 28.38176 0.00071
C 25.78433 26.29827 -0.01586
C 24.61391 25.55853 -0.01971
C 24.54412 24.14936 -0.02118
C 25.79132 23.39554 0.00733
C 25.86741 21.96864 -0.00178
C 24.58596 21.26034 0.00768
C 24.55678 19.85473 -0.0276
C 25.81254 19.13892 0.03005
C 25.85318 17.7176 -0.04078
C 24.52353 17.00339 0.02117
C 24.51194 15.56428 0.02737
C 25.80423 27.69395 -0.01107
C 2.41146 32.61279 -0.00605
