409
Graphene
C 34.40024 34.06156 0.01295
C 12.30438 29.88907 -0.01536
C 12.25411 28.3879 -0.02689
C 13.43967 27.70539 -0.01046
C 13.53954 26.35971 -0.00891
C 12.30183 25.63221 0.02819
C 12.29301 24.20225 0.00165
C 13.47542 23.35272 -0.02971
C 13.45026 21.86313 0.02894
C 12.29127 21.20054 -0.01789
C 12.28888 19.75537 0.00444
C 12.34501 17.02322 -0.00925
C 12.28691 15.70351 0.01877
C 12.32568 12.78113 0.01363
C 12.31181 11.42109 -0.02162
C 13.50852 10.6018 0.00415
C 13.45869 9.18535 -0.0014
C 12.26186 8.40646 0.02162
C 12.30599 6.95995 0.0076
C 13.53658 6.30806 0.01241
C 13.58845 4.87456 -0.01454
C 12.32255 4.19215 0.01945
C 13.56222 30.62031 0.03101
C 13.43887 31.97484 -0.00428
C 12.23307 32.78959 -0.02245
C 9.75716 0.10052 0.00985
C 11.12972 23.42296 0.00438
C 11.10743 21.96852 0.01291
C 9.81151 21.33337 0.00093
C 9.76053 19.89577 0.00057
C 11.05221 19.17219 -0.01634
C 11.20761 17.75322 -0.00334
C 9.93771 17.08558 0.02339
C 9.88828 15.71314 0.01641
C 11.1314 14.9052 -0.00719
C 11.17762 13.54113 0.01364
C 12.33273 2.85867 0.01416
C 9.86264 12.77523 -0.01062
C 11.08295 10.61481 0.03589
C 11.11508 9.20428 -0.02759
C 9.84676 8.50357 0.0402
C 9.77997 7.16263 0.00572
C 11.05166 6.35419 0.03592
C 11.05991 4.95901 0.00406
C 9.77267 4.33725 0.00943
C 9.84637 2.95882 0.02841
C 11.04917 2.24934 -0.01111
C 11.03831 0.81091 -0.01275
C 9.91951 11.36688 -0.00033
C 9.89856 24.09673 -0.00191
C 13.53641 2.08938 0.03542
C 12.21554 0.13343 0.00244
C 17.21226 29.8379 0.01443
C 17.1948 28.40317 0.03505
C 18.44189 27.73165 -0.02815
C 18.42204 26.37152 -0.04147
C 17.17293 25.54255 -0.05302
C 17.22782 24.20618 0.00213
C 18.38621 23.39641 -0.00066
C 18.484 22.07181 -0.00289
C 18.38527 9.1125 0.00028
C 17.26244 8.46117 -0.02213
C 17.31261 7.09448 0.03698
C 18.46417 6.37824 -0.00109
C 18.37291 4.98572 -0.00491
C 18.51277 0.86644 0.03338
C 17.2004 0.2593 -0.0258
C 19.63469 32.79045 -0.0331
C 20.89574 31.99889 -0.00316
C 20.87366 30.5809 0.02188
C 19.65911 29.8435 -0.01979
C 19.65049 28.41609 0.02691
C 20.88364 27.67825 -0.01581
C 18.42608 30.54179 0.00979
C 18.41837 31.9892 -0.00481
C 17.12832 32.72044 0.00889
C 14.75945 34.01519 -0.02162
C 14.70523 32.64443 -0.01717
C 15.98945 31.97015 0.05265
C 16.0405 30.53968 -0.01952
C 14.7621 29.85639 -0.02813
C 14.69674 28.46526 0.00374
C 15.92171 27.71943 0.00052
C 15.97994 26.25346 -0.03682
C 14.7391 25.54022 0.01965
C 14.71991 24.07675 0.02058
C 15.99529 23.43098 -0.01957
C 13.4932 0.69822 0.02299
C 15.90971 22.08408 -0.0108
C 14.73758 11.15561 -0.02696
C 15.89024 10.47845 -0.00114
C 15.97007 9.1861 0.00228
C 14.76089 8.47702 0.00798
C 14.77844 7.02046 0.00422
C 16.0259 6.4061 0.0351
C 15.99299 5.00606 -0.03113
C 14.95004 4.12511 0.02098
C 14.78542 2.68614 0.01848
C 15.86118 0.85215 -0.00619
C 14.68844 21.53105 -0.00368
C 9.85558 25.51989 0.00373
C 11.07948 26.29135 0.02147
C 11.00418 27.7396 -0.014
C 2.38966 2.85489 -0.003
C 3.60182 2.17757 0.01402
C 3.60345 0.71068 0.02379
C 2.41975 34.0342 0.00907
C 4.84982 32.70351 0.00643
C 6.09989 32.02005 -0.01509
C 6.04545 30.61244 0.03267
C 4.85144 29.85873 0.02374
C 4.84137 28.48365 0.00402
C 6.11884 27.74457 0.0073
C 6.1399 26.29958 0.0174
C 4.92984 25.56909 0.03828
C 4.99023 24.20147 0.01226
C 6.25111 23.44587 -0.00279
C 6.17725 22.05926 0.01996
C 4.85313 21.32647 -0.03996
C 4.80822 19.91424 0.01465
C 6.05307 19.2199 -0.00074
C 6.14245 17.71464 -0.00518
C 4.94023 17.04278 0.0086
C 4.93851 15.6329 -0.00643
C 2.4354 4.28018 0.00031
C 3.67714 4.95947 0.03189
C 3.71419 6.39176 -0.04307
C 2.39335 7.06368 0.03284
C 3.5873 30.57595 -0.02375
C 2.24753 29.84274 0.00558
C 2.37563 28.47097 -0.0059
C 3.62826 27.82027 -0.01386
C 3.64208 26.32771 -0.02805
C 2.49212 25.599 0.00081
C 2.46083 24.09017 0.00245
C 3.74796 23.39825 0.02728
C 3.73716 21.98818 -0.00039
C 2.46167 21.35339 0.0064
C 6.15662 14.81265 0.017
C 2.40748 19.94351 0.00211
C 3.67435 17.76358 -0.01979
C 2.48775 17.09545 0.02784
C 2.4206 15.62964 -0.01977
C 3.68557 14.96631 -0.00561
C 3.7113 13.57838 0.00208
C 2.46927 12.80433 0.01707
C 2.46046 11.38038 0.02769
C 3.6665 10.58176 -0.03291
C 3.61347 9.25165 -0.04999
C 2.368 8.47658 0.04505
C 3.64754 19.18164 -0.00449
C 6.14575 13.40859 -0.03113
C 4.82816 12.7456 -0.02566
C 4.92621 11.31003 -0.00094
C 7.35563 17.03868 0.00054
C 7.28991 15.63177 0.03007
C 8.62331 14.96782 -0.00095
C 8.66271 13.52444 0.01572
C 7.37247 12.76134 -0.04848
C 7.3982 11.38253 -0.00892
C 8.64936 10.71348 -0.01362
C 8.61212 9.27416 -0.0008
C 7.38663 8.62056 0.0288
C 7.37714 7.18068 0.00393
C 8.57244 17.83587 -0.00494
C 8.55397 6.4526 0.00895
C 7.40244 4.37922 0.02888
C 7.31537 2.96401 -0.00482
C 8.62439 2.24905 -0.01384
C 8.57981 0.86426 0.03693
C 7.33529 0.0908 0.01745
C 9.78484 32.74119 0.00488
C 10.97936 32.00027 -0.01004
C 11.11168 30.56828 -0.02896
C 9.83575 29.88537 -0.00131
C 9.78632 28.43301 -0.01118
C 8.64882 5.05664 0.00685
C 20.82494 26.27833 0.01452
C 8.51681 19.24571 -0.00562
C 7.3375 21.28647 0.01849
C 6.14622 10.67263 0.02322
C 6.09006 9.2599 -0.00725
C 4.88678 8.46454 -0.05697
C 4.90612 7.08666 0.01087
C 6.08081 6.42631 -0.01343
C 6.14561 5.08374 0.00988
C 4.96418 4.23641 0.0276
C 4.91668 2.86063 0.01305
C 6.11632 2.19848 -0.00077
C 6.12387 0.76126 0.03368
C 7.26878 19.93167 -0.01142
C 4.87879 0.09303 -0.02929
C 8.55383 32.0224 -0.03337
C 8.56876 30.48674 0.01227
C 7.33221 29.84891 0.00873
C 7.34671 28.37358 -0.00049
C 8.58847 27.72682 0.00848
C 8.61638 26.23675 -0.01303
C 7.35164 25.5775 -0.01378
C 7.45144 24.19715 0.02635
C 8.62182 23.39274 0.0127
C 8.57351 22.04195 0.01396
C 7.35975 32.73105 -0.00966
C 3.66398 31.93502 0.00828
C 19.67398 25.56132 0.04892
C 20.83024 23.43291 -0.03557
C 29.48391 8.42114 -0.00971
C 29.43688 7.01061 0.01518
C 30.78758 6.32842 0.01908
C 30.76859 4.92151 0.07705
C 29.48221 4.26729 0.0103
C 29.46469 2.8282 0.02108
C 30.72174 2.14072 0.00716
C 30.78077 0.69516 0.00307
C 29.53521 34.05471 0.00346
C 32.01833 32.61653 0.01713
C 33.24648 31.94201 -0.01694
C 33.15726 30.47757 0.01428
C 31.93881 29.79913 -0.02142
C 31.92016 28.44307 0.0544
C 33.16128 27.56005 0.00026
C 33.16918 26.22472 0.00682
C 31.99493 25.5905 -0.01779
C 31.95159 24.13264 0.03794
C 33.15906 23.49242 0.01927
C 33.16752 22.04702 0.01574
C 31.96278 21.32974 -0.02383
C 30.6907 9.15905 -0.03735
C 30.68862 10.58144 -0.00944
C 29.53475 11.30925 -0.02155
C 29.5056 12.76382 -0.01461
C 28.2439 2.11421 0.01799
C 28.31266 0.66096 0.01699
C 27.0678 0.01189 -0.00416
C 29.58366 32.67208 0.01177
C 30.74464 31.93454 0.04266
C 30.7207 30.52935 0.01324
C 29.52676 29.85523 0.0014
C 29.4746 28.42942 0.00924
C 30.70639 27.762 0.02326
C 30.74202 26.29263 0.00261
C 31.91705 19.92386 -0.01429
C 29.5405 25.61686 0.03265
C 30.75213 23.43682 -0.01854
C 30.7037 21.98262 -0.01415
C 29.50553 21.23421 -0.03039
C 29.47234 19.86192 0.01836
C 30.70225 19.18119 0.03531
C 30.75446 17.77149 -0.00669
C 29.49351 16.98899 0.0101
C 29.44427 15.65918 0.01705
C 30.62404 14.86514 -0.0405
C 30.76599 13.43621 -0.01303
C 29.52697 24.19956 -0.02049
C 27.03676 2.74967 0.01259
C 33.1523 19.2033 -0.0136
C 31.96807 17.03705 -0.02474
C 1.20511 22.03283 0.02712
C 34.37186 21.3952 -0.02213
C 34.35182 19.85022 0.01951
C 1.15634 19.14984 -0.01678
C 1.24159 17.77009 0.01223
C 34.43249 17.08347 0.00648
C 34.36187 15.64597 0.02114
C 1.2077 14.90707 -0.02957
C 1.26839 13.47471 0.00343
C 0.01293 12.80133 -0.02656
C 0.02443 11.33882 -0.02442
C 1.32098 10.64275 -0.00027
C 1.20975 9.27209 -0.00583
C 34.42965 8.55997 -0.02302
C 34.42775 7.16821 -0.02849
C 1.19974 6.46071 0.02931
C 1.19347 5.01384 0.00628
C 34.43184 4.26071 -0.0345
C 34.39361 2.81644 -0.00931
C 1.1851 2.09112 -0.00939
C 1.2289 0.64944 -0.00468
C 1.21434 23.42253 0.00723
C 34.4071 24.06251 0.03076
C 0.01454 25.56395 -0.05239
C 1.24081 26.24099 -0.00598
C 31.86251 15.57712 0.00369
C 33.07851 14.84861 0.00455
C 33.16369 13.43077 -0.00644
C 32.02458 12.76296 -0.01839
C 31.97249 11.30448 0.00137
C 33.18782 10.61926 0.00199
C 33.17644 9.26385 0.04381
C 31.99071 8.43695 0.02806
C 31.99256 7.07656 0.01504
C 33.23157 6.36297 -0.00069
C 33.17177 17.74949 0.00594
C 33.23307 4.93955 0.04926
C 31.95933 2.80427 0.00349
C 33.22176 2.08263 -0.00323
C 33.19857 0.6707 -0.00841
C 31.9547 33.98744 0.0001
C 34.40698 32.70925 -0.02927
C 1.15272 31.9022 -0.01404
C 1.055 30.53519 0.01027
C 34.35049 29.72567 0.01831
C 34.34405 28.33234 -0.01037
C 1.22879 27.64947 -0.00439
C 31.95106 4.1938 -0.03838
C 27.01169 4.13069 0.01495
C 28.29373 4.91314 0.00235
C 28.2282 6.40218 0.01094
C 23.28059 19.11197 0.00096
C 23.40408 17.75172 -0.01527
C 23.58944 14.79587 0.01087
C 23.39418 13.48194 0.00199
C 22.20343 11.22439 0.01511
C 23.43124 10.62197 -0.00478
C 23.36133 9.19414 -0.01662
C 22.11536 8.57173 -0.01185
C 22.15325 7.08015 0.01126
C 23.34447 6.32969 0.01852
C 23.36727 4.88795 -0.00381
C 22.14974 4.204 0.03046
C 22.05298 2.76049 0.0296
C 23.2746 2.11131 0.03374
C 23.38754 0.74746 -0.02845
C 22.15109 34.03478 -0.03213
C 24.71457 32.67111 0.02239
C 25.93624 31.99193 0.01153
C 25.86208 30.61488 0.02734
C 24.62718 29.8751 -0.0055
C 24.58739 28.38454 0.01515
C 22.20963 19.88532 0.01277
C 22.11379 21.35299 -0.02422
C 23.37305 22.03918 -0.01721
C 23.31856 23.43201 -0.01154
C 20.86801 21.90744 0.03754
C 19.65995 21.39326 0.01739
C 21.02034 10.67852 0.00755
C 20.84044 9.32899 -0.0054
C 19.65867 8.51846 0.00667
C 19.66401 7.05722 0.00143
C 20.92756 6.33687 -0.017
C 20.91909 4.96702 0.00364
C 19.5769 4.15261 -0.00831
C 19.67857 2.78124 -0.02957
C 25.78271 27.64935 -0.00225
C 20.91016 2.02748 -0.04422
C 19.63228 0.1025 -0.00703
C 22.16343 32.66655 -0.04076
C 23.28923 31.93858 -0.00652
C 23.42895 30.54829 0.0058
C 22.11247 29.92107 -0.00865
C 22.08254 28.47976 0.00675
C 23.37899 27.71158 -0.00311
C 23.24959 26.29253 0.00742
C 22.04332 25.56968 -0.01594
C 22.13446 24.17177 0.0106
C 20.93628 0.63378 0.00654
C 25.80774 26.23119 0.00071
C 24.42895 25.57819 -0.01107
C 24.58709 24.14972 -0.01586
C 27.07513 29.80714 0.04306
C 27.06462 28.35009 0.00996
C 28.2965 27.71294 0.00195
C 28.23997 26.27149 -0.00802
C 27.00006 25.45262 -0.00218
C 27.09238 24.1079 -0.01654
C 28.36663 23.4086 -0.00037
C 28.36318 21.99004 -0.0032
C 27.10465 21.34489 0.00622
C 27.0263 19.85528 -0.02815
C 28.25001 30.47692 0.00367
C 28.26398 19.15649 -0.00942
C 27.0146 17.02554 0.00826
C 26.98939 15.56956 -0.00294
C 28.22674 14.89035 0.00152
C 28.34272 13.51665 0.01257
C 27.07472 12.77862 0.02316
C 27.1 11.39502 0.04185
C 28.32344 10.61308 0.00194
C 28.30861 9.20622 -0.00621
C 27.01425 8.49785 0.02611
C 26.97904 7.09138 0.02198
C 28.27905 17.70218 0.00487
C 19.64743 24.16083 -0.00111
C 28.33328 31.92511 -0.01679
C 24.61368 34.07732 0.00684
C 25.81818 23.40392 -0.01971
C 25.84492 22.03208 -0.02118
C 24.606 21.33004 0.00733
C 24.57124 19.94689 -0.00178
C 25.88499 19.21645 0.00768
C 25.81137 17.78738 -0.0276
C 24.56953 17.04787 0.03005
C 24.57871 15.60661 -0.04078
C 25.77275 14.89558 0.02117
C 25.82592 13.4763 0.02737
C 27.08393 32.68936 -0.01052
C 24.59814 12.66003 -0.00498
C 25.8671 10.71256 0.03102
C 25.81161 9.25574 0.02555
C 24.61896 8.43596 0.01423
C 24.61492 7.03245 -0.00285
C 25.874 6.33755 -0.009
C 25.83738 4.89388 -0.01199
C 24.66823 4.1983 -0.00229
C 24.58254 2.77846 -0.00938
C 25.72478 2.06566 -0.0264
C 25.83464 0.67489 -0.01154
C 24.58975 11.33531 0.00135
C 2.45165 32.63546 0.00088
