338
Graphene
C 0.01332 0.01113 0.01295
C 11.05224 17.7277 0.00889
C 9.85326 17.01072 -0.00481
C 9.79753 15.53087 0.00979
C 10.98597 14.82796 0.01443
C 11.07343 13.38693 0.03505
C 9.82182 12.77361 -0.02815
C 9.864 11.42044 -0.04147
C 11.10731 10.80874 -0.05302
C 10.98986 9.3927 0.00213
C 9.79444 8.60499 -0.00066
C 9.85339 7.17673 -0.00289
C 11.12402 6.49495 0.00028
C 11.10574 5.07694 -0.02213
C 9.83207 4.35472 0.03698
C 9.84031 2.81603 -0.00109
C 11.04668 2.16305 -0.00491
C 11.02894 0.86171 0.03338
C 10.93607 19.20421 -0.02162
C 9.83231 0.17013 -0.0258
C 9.80954 19.97697 -0.00619
C 10.95587 22.06497 0.02098
C 7.37973 8.57755 -0.01952
C 7.37957 7.18025 -0.02813
C 8.66856 6.43878 0.00374
C 8.62337 5.03046 0.00052
C 7.37798 4.33305 -0.03682
C 7.32067 2.88294 0.01965
C 8.6089 2.1986 0.02058
C 8.53545 0.86316 -0.01957
C 7.32865 0.09813 -0.0108
C 10.01221 32.81541 -0.00368
C 11.43441 32.54479 -0.02696
C 9.7311 29.66605 -0.00114
C 9.78681 28.42979 0.00228
C 11.10675 26.23254 0.00798
C 9.84765 25.57297 0.00422
C 9.75609 24.10446 0.0351
C 10.99006 23.4572 -0.03113
C 9.78312 21.38724 0.01848
C 8.6115 9.23732 0.05265
C 12.27421 25.5086 -0.0331
C 13.54758 23.4781 0.02188
C 14.81934 25.4952 -0.00652
C 14.70469 24.11561 0.0058
C 15.96359 23.40278 -0.00865
C 15.91515 21.98577 0.00675
C 14.61738 21.2811 -0.00311
C 14.60161 19.85717 0.00742
C 15.89041 19.34603 -0.01594
C 15.94778 4.78632 0.0106
C 14.58099 4.08612 -0.01154
C 14.66037 2.63885 -0.01721
C 15.92196 2.02262 -0.02422
C 15.97967 0.51781 0.01277
C 14.77788 33.91597 0.00096
C 17.028 32.57296 -0.01527
C 18.23312 31.89525 0.01087
C 18.38729 30.50582 0.00199
C 18.5983 27.69606 0.01511
C 15.90288 26.13169 -0.04076
C 12.29298 24.17596 -0.00316
C 12.21027 34.07113 -0.00703
C 13.42292 1.91514 -0.04422
C 13.44806 22.05516 -0.01979
C 12.14485 21.35094 0.02691
C 12.17489 19.87288 -0.01581
C 13.36804 19.19001 0.01452
C 13.46072 17.67745 0.04892
C 12.31236 16.8987 -0.00111
C 12.37138 15.35362 -0.03557
C 13.2091 14.27846 0.03754
C 12.43878 12.79617 0.01739
C 12.56251 11.38462 0.00755
C 12.99682 10.21477 -0.0054
C 12.37509 8.91036 0.00667
C 12.53062 7.36539 0.00143
C 13.5637 6.38664 -0.017
C 13.49182 4.97994 0.00364
C 12.31517 4.25989 -0.00831
C 12.27751 2.78828 -0.02957
C 13.58364 0.42651 0.00654
C 8.58595 10.66829 -0.01717
C 7.35872 11.33981 0.00244
C 7.34779 12.70437 0.02299
C 2.43367 8.5175 0.03693
C 2.41098 7.0579 0.01745
C 3.69095 6.43117 0.00488
C 3.70001 4.97825 -0.01004
C 2.46648 4.35982 -0.02896
C 2.47237 2.888 -0.00131
C 3.75712 2.20404 -0.01118
C 3.66875 0.82358 -0.014
C 2.41753 0.08206 0.02147
C 4.98849 32.69701 0.00373
C 6.2726 31.975 -0.00191
C 6.22768 30.54969 0.00438
C 4.89118 29.88617 0.01291
C 4.89587 28.44423 0.00093
C 6.11935 27.70473 0.00057
C 6.06055 26.3351 -0.01634
C 4.89655 25.57649 -0.00334
C 3.63157 9.22763 -0.01384
C 4.88146 24.13615 0.02339
C 3.60882 10.67727 -0.00482
C 2.36413 12.78909 0.00685
C 3.68992 30.59607 0.0127
C 2.4546 29.78679 0.01396
C 2.44161 28.38103 0.01849
C 3.70596 27.74844 -0.01142
C 3.67044 26.27222 -0.00562
C 2.44141 25.53226 -0.00494
C 2.44336 24.19624 0.00054
C 3.66161 23.40111 0.03007
C 3.59593 22.0068 -0.00095
C 2.31585 21.32518 0.01572
C 2.23952 19.88096 -0.04848
C 3.54188 19.22173 -0.00892
C 3.6012 17.78825 -0.01362
C 2.38164 17.0903 -0.0008
C 2.44788 15.61943 0.0288
C 3.59642 14.86734 0.00393
C 3.62654 13.44922 0.00895
C 2.33977 11.40423 0.02888
C 6.08378 23.43479 0.01641
C 6.04934 22.00632 -0.00719
C 4.79031 21.35794 0.01364
C 8.69893 30.67212 -0.02971
C 7.48133 29.96438 0.02894
C 7.40777 28.4665 -0.01789
C 8.63713 27.63778 0.00444
C 8.69362 26.24354 -0.00925
C 7.33338 25.57399 0.01877
C 7.33303 24.16581 0.01363
C 8.51587 23.48203 -0.02162
C 8.47269 22.09882 0.00415
C 7.30372 21.25195 -0.0014
C 7.33511 19.84836 0.02162
C 8.61853 19.15417 0.0076
C 8.61893 17.74565 0.01241
C 7.33836 17.04613 -0.01454
C 7.39703 15.66903 0.01945
C 8.58699 14.88114 0.01416
C 8.50197 13.42375 0.03542
C 8.88846 32.1034 0.00165
C 7.52337 32.73362 0.02819
C 4.8854 0.03446 -0.00891
C 6.10543 0.76211 -0.01046
C 4.89347 19.9768 -0.01062
C 6.08358 19.13423 -0.00033
C 6.12544 17.70552 0.03589
C 4.9143 17.03657 -0.02759
C 4.90875 15.57241 0.0402
C 6.20671 14.83713 0.00572
C 6.09569 13.45431 0.03592
C 4.8499 12.79878 0.00406
C 18.39018 26.30674 -0.00478
C 4.93438 11.29009 0.00943
C 6.17901 9.21021 -0.01111
C 4.94443 8.57357 -0.01275
C 4.93564 7.15254 0.00985
C 6.13001 6.40061 -0.02245
C 6.13546 4.98095 -0.00428
C 4.97902 4.2652 0.03101
C 4.92883 2.89975 -0.01536
C 6.11269 2.10569 -0.02689
C 6.21318 10.57135 0.02841
C 17.13714 25.55699 -0.01662
C 17.18061 24.10078 -0.01185
C 18.46555 23.42103 0.01126
C 31.94155 29.83631 -0.02142
C 31.91137 28.40906 0.0544
C 33.09279 27.70712 0.00026
C 33.11603 26.28079 0.00682
C 31.91074 25.52428 -0.01779
C 31.90206 24.07874 0.03794
C 33.16145 23.3981 0.01927
C 33.11077 22.01617 0.01574
C 31.86011 21.23578 -0.02383
C 31.86494 19.7874 -0.01429
C 33.13877 19.24039 -0.0136
C 33.11138 17.84122 0.00594
C 31.96476 17.10025 -0.02474
C 31.96126 15.64681 0.00369
C 33.14127 14.92819 0.00455
C 33.12191 13.53782 -0.00644
C 31.78916 12.91121 -0.01839
C 33.17028 30.59898 0.01428
C 31.77838 11.49113 0.00137
C 33.19221 32.00241 -0.01694
C 29.45803 0.0247 0.00346
C 30.67796 21.98658 -0.00669
C 29.45457 21.29591 0.0101
C 29.45589 19.77948 0.01705
C 30.65389 19.03666 -0.0405
C 30.59948 17.61664 -0.01303
C 29.76128 16.54367 -0.01461
C 30.50286 15.34457 -0.02155
C 30.78941 13.82455 -0.00944
C 30.79291 10.51438 -0.03735
C 30.66231 9.36937 -0.00971
C 29.28354 6.93514 0.01518
C 30.55357 6.32568 0.01908
C 30.71621 4.93945 0.07705
C 29.38266 4.26926 0.0103
C 29.39889 2.90985 0.02108
C 30.64331 2.13861 0.00716
C 30.67158 0.68872 0.00307
C 31.88512 32.62141 0.01713
C 33.16571 10.6864 0.00199
C 33.1777 9.25836 0.04381
C 31.90675 8.45817 0.02806
C 1.1487 17.7581 0.01223
C 34.3644 17.07902 0.00648
C 34.38208 15.63433 0.02114
C 1.19737 14.9545 -0.02957
C 1.14257 13.51346 0.00343
C 34.33609 12.78203 -0.02656
C 34.38925 11.39158 -0.02442
C 1.13719 10.70463 -0.00027
C 1.19436 9.25087 -0.00583
C 34.38595 8.53129 -0.02302
C 34.37092 7.13892 -0.02849
C 1.14201 6.4122 0.02931
C 1.17588 5.00378 0.00628
C 0.01061 4.18512 -0.0345
C 34.3567 2.80659 -0.00931
C 1.19613 2.24644 -0.00939
C 1.18115 0.79531 -0.00468
C 1.13702 19.12817 -0.01678
C 34.36963 19.91805 0.01951
C 34.38779 21.31729 -0.02213
C 1.20164 22.06482 0.02712
C 31.78405 7.09643 0.01504
C 33.16672 6.42552 -0.00069
C 33.2207 4.95601 0.04926
C 31.95151 4.26172 -0.03838
C 31.92232 2.85461 0.00349
C 33.09467 2.07859 -0.00323
C 33.20888 0.68554 -0.00841
C 31.94942 34.06957 0.0001
C 30.65687 23.3753 0.03531
C 34.41008 32.66814 -0.02927
C 1.27819 30.55238 0.01027
C 34.377 29.87136 0.01831
C 34.39729 28.42494 -0.01037
C 1.24537 27.65452 -0.00439
C 1.22267 26.22839 -0.00598
C 34.37902 25.5583 -0.05239
C 34.40602 24.11947 0.03076
C 1.23551 23.47959 0.00723
C 1.28334 32.04434 -0.01404
C 3.73433 32.04329 0.02635
C 29.45861 24.11014 0.01836
C 30.73581 26.2887 -0.01415
C 20.85644 2.20132 -0.0276
C 20.87749 0.70299 0.03005
C 19.62727 34.0557 -0.04078
C 22.07955 32.7966 0.02117
C 23.30171 31.95145 0.02737
C 23.37461 30.52947 -0.00498
C 22.13585 29.81291 0.00135
C 22.15282 28.37441 0.03102
C 23.39062 27.63758 0.02555
C 23.43512 26.2303 0.01423
C 22.14942 25.57249 -0.00285
C 22.1099 24.20926 -0.009
C 23.29447 23.42838 -0.01199
C 23.25288 22.0595 -0.00229
C 22.06526 2.77972 -0.00938
C 23.26823 2.34218 -0.0264
C 23.4234 0.70663 -0.01154
C 19.64557 2.90996 0.00768
C 22.07804 0.04296 0.00684
C 19.82715 21.45481 -0.00178
C 20.94821 23.44344 -0.02118
C 18.4172 21.94359 0.01852
C 17.2048 21.27512 -0.00381
C 16.89861 19.86318 0.03046
C 16.96571 4.2416 0.0296
C 17.1651 2.86804 0.03374
C 18.46979 2.19709 -0.02845
C 18.43657 0.7049 -0.03213
C 17.20332 33.92063 0.02239
C 19.55071 32.65249 0.01153
C 20.85523 32.01494 0.02734
C 20.9545 30.53101 -0.0055
C 19.64527 29.85553 0.01515
C 19.75326 28.41365 -0.00225
C 20.93274 27.71433 0.00071
C 20.89985 26.2781 -0.01107
C 19.62659 25.658 -0.01586
C 19.62553 24.18138 -0.01971
C 20.91526 22.07078 0.00733
C 24.4588 32.66435 -0.01052
C 25.7907 32.00803 -0.01679
C 25.73455 30.63295 0.00367
C 28.23358 23.44809 0.01094
C 28.25481 21.9879 0.00235
C 26.88089 21.19315 0.01495
C 27.09363 19.75077 0.01259
C 28.25469 19.25593 0.01799
C 28.22964 5.14205 0.01699
C 27.21007 4.20185 -0.00416
C 26.91299 2.87505 0.01177
C 28.18872 2.11577 0.04266
C 28.19187 0.7077 0.01324
C 26.97585 34.06792 0.0014
C 29.47007 32.69032 0.00924
C 30.71852 31.91873 0.02326
C 30.63473 30.54188 0.00261
C 29.40843 29.88965 0.03265
C 29.50861 28.43539 -0.02049
C 30.74364 27.67907 -0.01854
C 27.00038 24.18422 0.02198
C 27.05105 25.57503 0.02611
C 28.29581 26.24102 -0.00621
C 28.283 27.74163 0.00194
C 24.55512 29.85771 0.04306
C 24.60559 28.42458 0.00996
C 25.82287 27.6183 0.00195
C 25.79816 26.25289 -0.00802
C 24.60149 25.5215 -0.00218
C 24.48173 24.10486 -0.01654
C 25.70631 23.41314 -0.00037
C 25.71139 21.93439 -0.0032
C 29.51944 25.54819 -0.03039
C 24.41866 21.31708 0.00622
C 25.74979 2.15453 -0.00942
C 25.74755 0.6843 0.00487
C 24.56296 0.00076 0.00826
C 26.99427 32.68169 -0.00294
C 28.20134 31.9181 0.00152
C 28.20283 30.49891 0.01257
C 26.96111 29.82125 0.02316
C 27.03948 28.3854 0.04185
C 24.58216 2.90685 -0.02815
C 2.44698 32.77874 -0.01378
