374
Graphene
C 34.36764 0.03605 0.01295
C 13.6125 9.08764 0.02299
C 12.26767 8.8185 0.00244
C 12.30947 7.30358 -0.01717
C 13.51555 6.43981 0.05265
C 13.49021 4.99678 -0.01952
C 12.33134 4.25049 -0.02813
C 12.31315 2.86344 0.00374
C 13.4748 2.09543 0.00052
C 13.5643 0.68523 -0.03682
C 12.27844 33.98801 0.01965
C 14.84294 32.54907 0.02058
C 16.06417 31.94975 -0.01957
C 16.17633 30.56101 -0.0108
C 14.97779 29.75942 -0.00368
C 14.5117 28.49182 -0.02696
C 14.54759 25.22231 -0.00114
C 15.34723 24.06628 0.00228
C 15.99331 9.26017 0.00798
C 14.80162 8.49129 0.00422
C 12.10632 24.1913 0.03542
C 14.77882 7.00408 0.0351
C 12.36031 25.66128 0.01416
C 13.4834 27.58567 -0.01454
C 11.11308 26.20763 -0.01536
C 9.83036 25.58305 -0.02689
C 9.75889 24.20344 -0.01046
C 11.10203 23.5513 -0.00891
C 10.90962 9.28824 0.02819
C 9.76274 8.44088 0.00165
C 9.8113 7.0858 -0.02971
C 11.07984 6.44606 0.02894
C 11.11938 5.03585 -0.01789
C 9.89844 4.29134 0.00444
C 9.82491 2.88112 -0.00925
C 11.06415 2.15129 0.01877
C 11.05322 0.68204 0.01363
C 9.80178 34.02549 -0.02162
C 12.30616 32.51269 0.00415
C 13.65187 31.84355 -0.0014
C 13.65818 30.43086 0.02162
C 12.29424 29.7968 0.0076
C 12.22466 28.419 0.01241
C 13.56951 26.2202 0.01945
C 16.06616 6.34516 -0.03113
C 15.97842 4.93847 0.02098
C 14.74632 4.21797 0.01848
C 19.66512 24.10693 0.02691
C 20.75955 23.33931 -0.01581
C 20.85695 22.04056 0.01452
C 20.89334 13.23317 0.04892
C 19.79523 11.39802 -0.00111
C 20.92342 10.6639 -0.03557
C 20.88113 9.28727 0.03754
C 19.6304 8.53768 0.01739
C 19.663 7.11262 0.00755
C 20.90589 6.38096 -0.0054
C 20.85274 4.97969 0.00667
C 19.65253 4.26859 0.00143
C 19.65161 2.87789 -0.017
C 20.81999 2.08346 0.00364
C 20.84204 0.60817 -0.00831
C 19.57238 0.00137 -0.02957
C 22.10376 32.63096 -0.04422
C 23.30928 31.8971 0.00654
C 23.22297 30.41636 -0.00703
C 20.83628 26.1688 -0.01979
C 20.83437 27.54778 0.02188
C 20.75662 30.51823 -0.00316
C 20.87382 31.86958 -0.0331
C 14.72365 2.80619 -0.00619
C 15.94384 2.11255 -0.02162
C 15.99338 0.65667 0.00889
C 14.75093 34.01954 -0.00481
C 17.28308 32.64087 0.00979
C 18.49423 31.87463 0.01443
C 16.94623 23.99666 0.03505
C 18.28772 23.85388 -0.02815
C 18.60875 10.64401 -0.04147
C 11.02062 27.69001 0.03101
C 18.40963 9.33425 -0.05302
C 17.27809 7.13918 -0.00066
C 18.48462 6.39988 -0.00289
C 18.4722 4.9455 0.00028
C 17.23339 4.21691 -0.02213
C 17.20078 2.82715 0.03698
C 18.44373 2.12959 -0.00109
C 18.41574 0.76682 -0.00491
C 17.24957 0.00349 0.03338
C 19.67338 32.6329 -0.0258
C 17.23842 8.56893 0.00213
C 9.72283 28.43601 -0.00428
C 9.78534 29.86063 -0.02245
C 11.04642 30.48577 0.00985
C 3.6218 5.03167 -0.00077
C 2.39884 4.33287 0.03368
C 2.41187 2.91799 -0.02929
C 3.64044 2.27564 -0.00966
C 3.69704 0.7726 -0.03337
C 2.4198 0.06888 0.01227
C 4.79846 32.74093 0.00873
C 6.02401 32.02365 -0.00049
C 6.07507 30.59584 0.00848
C 4.87086 29.91027 -0.01303
C 4.86264 28.4989 -0.01378
C 6.09691 27.75089 0.02635
C 6.15105 26.35767 0.0127
C 4.93758 25.60842 0.01396
C 4.9106 24.24348 0.01849
C 6.17021 23.5407 -0.01142
C 6.19969 22.05282 -0.00562
C 4.93327 21.31293 -0.00494
C 4.92351 19.92778 0.00054
C 3.68432 6.4571 0.01305
C 2.43471 7.19931 0.0276
C 2.47296 8.60442 0.00988
C 3.68898 9.32018 -0.01343
C 3.59874 30.57244 0.0073
C 2.36506 29.93483 0.0174
C 2.38544 28.46516 0.03828
C 3.66198 27.66274 0.01226
C 3.64574 26.2702 -0.00279
C 2.43274 25.54461 0.01996
C 2.43556 24.1261 -0.03996
C 3.70302 23.44958 0.01465
C 3.66152 22.03274 -0.00074
C 6.18462 19.07618 0.03007
C 2.42048 21.33767 -0.00518
C 3.65656 19.17918 -0.00643
C 3.67634 17.77051 0.017
C 2.44786 17.06003 -0.03113
C 2.48121 15.65466 -0.02566
C 3.70576 15.04061 -0.00094
C 3.73298 13.61496 0.02322
C 2.50169 12.85871 -0.00725
C 2.48558 11.41711 -0.05697
C 3.74178 10.7661 0.01087
C 2.42132 19.94224 0.0086
C 21.97904 29.76558 -0.04076
C 6.11633 17.6872 -0.00095
C 4.91265 15.62929 -0.04848
C 8.54772 23.43094 0.00057
C 8.62387 22.05937 -0.01634
C 7.41868 21.31222 -0.00334
C 7.07391 20.03841 0.02339
C 7.46776 12.78416 0.01641
C 7.61798 11.42776 -0.00719
C 8.71567 10.53213 0.01364
C 8.59049 9.19572 -0.01062
C 7.30011 8.55181 -0.00033
C 7.29194 7.16251 0.03589
C 8.56868 6.44138 -0.02759
C 8.64591 5.04298 0.0402
C 7.36226 4.27674 0.00572
C 7.33618 2.87499 0.03592
C 8.59173 2.20025 0.00406
C 8.57494 0.76135 0.00943
C 7.36721 0.05697 0.02841
C 9.84261 32.63184 -0.01111
C 11.05324 31.89019 -0.01275
C 7.38483 24.20723 0.00093
C 7.33128 25.636 0.01291
C 8.60744 26.29913 0.00438
C 8.49341 27.78417 -0.00191
C 6.22715 15.0778 -0.00892
C 6.39409 13.68104 -0.01362
C 5.06164 12.97916 -0.0008
C 5.04705 11.4555 0.0288
C 6.30137 10.75341 0.00393
C 6.16115 9.30967 0.00895
C 4.88897 8.64658 0.00685
C 4.87996 7.20082 0.02888
C 6.07912 6.49693 -0.00482
C 4.83592 17.03347 0.01572
C 6.10043 5.01809 -0.01384
C 4.90706 2.9197 0.01745
C 6.1073 2.17218 0.00488
C 6.11881 0.77209 -0.01004
C 4.92324 0.09025 -0.02896
C 7.3495 32.73734 -0.00131
C 8.61048 32.01208 -0.01118
C 8.56969 30.63717 -0.014
C 7.34263 29.90606 0.02147
C 7.29462 28.45934 0.00373
C 4.89632 4.37671 0.03693
C 21.93234 28.40714 -0.00652
C 23.2267 27.62783 0.0058
C 23.28016 26.20719 -0.00865
C 30.66066 2.15322 0.00716
C 30.76589 0.73589 0.00307
C 29.49441 34.05444 0.00346
C 31.95349 32.71847 0.01713
C 33.2416 32.02875 -0.01694
C 33.23616 30.56948 0.01428
C 31.99719 29.778 -0.02142
C 32.00436 28.38764 0.0544
C 33.17908 27.71053 0.00026
C 33.19921 26.26299 0.00682
C 31.99571 25.53982 -0.01779
C 31.95474 24.15268 0.03794
C 33.18311 23.39776 0.01927
C 33.17635 21.98505 0.01574
C 31.91962 21.2591 -0.02383
C 31.94908 19.79728 -0.01429
C 33.14635 19.1323 -0.0136
C 33.15102 17.72773 0.00594
C 31.94659 17.02535 -0.02474
C 29.49379 2.88916 0.02108
C 29.45065 4.25408 0.0103
C 30.73866 4.97634 0.07705
C 30.72028 6.42754 0.01908
C 30.77653 27.68263 0.02326
C 30.79034 26.30435 0.00261
C 29.53444 25.56798 0.03265
C 29.52218 24.1176 -0.02049
C 30.69731 23.45937 -0.01854
C 30.6341 22.0322 -0.01415
C 29.46513 21.26183 -0.03039
C 29.47476 19.79964 0.01836
C 30.67381 19.13772 0.03531
C 31.95513 15.54221 0.00369
C 30.77124 17.73558 -0.00669
C 29.43795 15.61797 0.01705
C 30.70503 14.86569 -0.0405
C 30.68589 13.43572 -0.01303
C 29.48025 12.76396 -0.01461
C 29.47784 11.37479 -0.02155
C 30.69026 10.67102 -0.00944
C 30.74295 9.29446 -0.03735
C 29.4777 8.52843 -0.00971
C 29.50279 7.12426 0.01518
C 29.52602 17.05062 0.0101
C 29.52984 28.38864 0.00924
C 33.17983 14.90928 0.00455
C 31.90866 12.81665 -0.01839
C 34.31869 19.93479 0.01951
C 1.13101 19.2693 -0.01678
C 1.19888 17.79775 0.01223
C 0.00351 17.06911 0.00648
C 34.4135 15.68612 0.02114
C 1.24873 14.98771 -0.02957
C 1.21181 13.59041 0.00343
C 34.41629 12.81365 -0.02656
C 0.074 11.41546 -0.02442
C 1.28681 10.67033 -0.00027
C 1.26424 9.23976 -0.00583
C 0.04769 8.58292 -0.02302
C 34.40319 7.18099 -0.02849
C 1.16186 6.39448 0.02931
C 1.16992 5.01252 0.00628
C 0.00158 4.31326 -0.0345
C 34.41698 2.92609 -0.00931
C 1.17665 2.23574 -0.00939
C 1.17127 0.76148 -0.00468
C 34.41723 21.33783 -0.02213
C 1.21515 22.01399 0.02712
C 1.25463 23.4024 0.00723
C 34.4312 24.07944 0.03076
C 31.95971 11.35334 0.00137
C 33.24194 10.67126 0.00199
C 33.25538 9.26004 0.04381
C 32.02567 8.51696 0.02806
C 31.9691 7.12285 0.01504
C 33.20125 6.35207 -0.00069
C 33.1783 4.94722 0.04926
C 31.94211 4.24889 -0.03838
C 31.9168 2.85858 0.00349
C 33.16998 13.49492 -0.00644
C 33.17849 2.16826 -0.00323
C 31.94225 0.02687 0.0001
C 34.4118 32.71891 -0.02927
C 1.17504 32.03252 -0.01404
C 1.17925 30.61655 0.01027
C 34.42932 29.81998 0.01831
C 34.40274 28.45171 -0.01037
C 1.19561 27.68846 -0.00439
C 1.21836 26.30096 -0.00598
C 0.00617 25.56655 -0.05239
C 33.13525 0.69038 -0.00841
C 3.578 31.97145 0.00402
C 29.48255 29.82372 0.0014
C 30.75727 31.95522 0.04266
C 22.09117 34.00261 -0.03213
C 24.54942 32.60736 0.02239
C 25.89524 31.92747 0.01153
C 25.78708 30.49777 0.02734
C 24.55009 29.80172 -0.0055
C 24.50705 28.36012 0.01515
C 25.79351 27.60142 -0.00225
C 25.80095 26.21689 0.00071
C 24.54859 25.47776 -0.01107
C 24.49824 24.05058 -0.01586
C 25.76047 23.39377 -0.01971
C 25.76398 21.96648 -0.02118
C 24.49288 21.28567 0.00733
C 24.65468 19.76595 -0.00178
C 25.85349 19.07663 0.00768
C 25.85155 17.71687 -0.0276
C 24.58858 16.94431 0.03005
C 24.52608 15.52873 -0.04078
C 25.77334 14.89211 0.02117
C 23.29031 0.65211 -0.02845
C 23.28282 2.03066 0.03374
C 22.03338 2.78416 0.0296
C 22.107 4.21415 0.03046
C 22.00468 25.4636 0.00675
C 22.02957 24.076 -0.00311
C 23.27441 23.38729 0.00742
C 23.23686 21.87449 -0.01594
C 21.91527 21.10719 0.0106
C 22.18698 19.78184 -0.01154
C 23.4065 19.05603 -0.01721
C 23.33582 17.65479 -0.02422
C 22.22019 16.9367 0.01277
C 25.73241 13.47959 0.02737
C 22.07718 15.59021 0.00096
C 23.32145 13.46164 0.01087
C 22.1863 12.73061 0.00199
C 22.17135 11.32374 0.01511
C 23.39482 10.58545 -0.00478
C 23.37805 9.17053 -0.01662
C 22.06335 8.54988 -0.01185
C 22.10872 7.08338 0.01126
C 23.35228 6.41552 0.01852
C 23.35033 4.93012 -0.00381
C 23.29013 14.89579 -0.01527
C 30.77617 30.5577 0.01324
C 24.51934 12.78907 -0.00498
C 25.82148 10.68555 0.03102
C 28.31284 17.73188 0.00487
C 27.08047 17.01628 0.00826
C 26.97802 15.65488 -0.00294
C 28.20387 14.87407 0.00152
C 28.29235 13.48245 0.01257
C 26.96231 12.80655 0.02316
C 27.02698 11.39147 0.04185
C 28.24776 10.66464 0.00194
C 28.245 9.24953 -0.00621
C 27.02418 8.5544 0.02611
C 27.01378 7.1209 0.02198
C 28.27627 6.42836 0.01094
C 28.29616 4.98679 0.00235
C 27.01764 4.25158 0.01495
C 27.01609 2.85089 0.01259
C 28.26125 2.13437 0.01799
C 28.27064 0.71893 0.01699
C 26.95909 34.06036 -0.00416
C 29.45181 32.64972 0.01177
C 28.28146 19.12069 -0.00942
C 27.06549 19.83439 -0.02815
C 27.0428 21.27689 0.00622
C 28.28356 22.02543 -0.0032
C 25.79876 9.26077 0.02555
C 24.6612 8.51107 0.01423
C 24.62603 7.07973 -0.00285
C 25.85478 6.38363 -0.009
C 25.85952 4.95948 -0.01199
C 24.57891 4.19768 -0.00229
C 24.55331 2.768 -0.00938
C 25.76445 2.09756 -0.0264
C 25.73935 0.70703 -0.01154
C 24.56842 11.35311 0.00135
C 24.48728 33.978 0.00684
C 28.30438 31.89176 -0.01679
C 28.24139 30.52826 0.00367
C 27.04315 29.8109 0.04306
C 27.02669 28.36253 0.00996
C 28.28047 27.64237 0.00195
C 28.25975 26.24023 -0.00802
C 27.06202 25.51295 -0.00218
C 27.04828 24.12701 -0.01654
C 28.31015 23.44121 -0.00037
C 27.04531 32.60761 -0.01052
C 2.36682 32.71881 0.02374
