362
Graphene
C 0.02333 0.06535 0.01295
C 9.71619 11.24433 0.01965
C 11.12686 10.68092 0.02058
C 11.06504 9.35997 -0.01957
C 9.92071 8.56235 -0.0108
C 9.81587 7.08333 -0.00368
C 11.07405 6.3495 -0.02696
C 10.99618 4.94313 -0.00114
C 9.78425 4.16574 0.00228
C 9.72983 12.66483 -0.03682
C 9.89183 2.77214 0.00798
C 11.07883 0.65652 0.0351
C 9.81374 0.10466 -0.03113
C 12.33198 32.69272 0.02098
C 13.53308 31.99272 0.01848
C 13.49508 30.49088 -0.00619
C 12.30739 29.79094 -0.02162
C 12.29192 28.42987 0.00889
C 13.52368 27.68955 -0.00481
C 11.10465 2.14983 0.00422
C 11.02992 13.40922 0.00052
C 11.13313 14.8474 0.00374
C 9.85494 15.61218 -0.02813
C 8.627 2.13315 0.00444
C 8.66406 0.74753 -0.00925
C 7.34881 0.01817 0.01877
C 9.87678 32.7053 0.01363
C 11.13961 31.9476 -0.02162
C 11.09198 30.51653 0.00415
C 9.84062 29.84581 -0.0014
C 9.8076 28.44474 0.02162
C 11.04949 27.71675 0.0076
C 11.06008 26.27034 0.01241
C 9.8569 25.64102 -0.01454
C 9.86229 24.14385 0.01945
C 11.07569 23.49737 0.01416
C 11.06685 22.0229 0.03542
C 9.89403 21.28766 0.02299
C 9.86202 19.91306 0.00244
C 11.12862 19.20062 -0.01717
C 11.07792 17.6846 0.05265
C 9.83012 17.06129 -0.01952
C 13.51114 26.2617 0.00979
C 7.32422 2.886 -0.01789
C 12.21168 25.54991 0.01443
C 13.55387 23.46027 -0.02815
C 14.72116 24.23707 0.01739
C 15.97094 23.44632 0.00755
C 15.87693 22.03508 -0.0054
C 14.66784 21.34208 0.00667
C 14.7579 19.88282 0.00143
C 15.99161 19.12254 -0.017
C 16.1268 17.79348 0.00364
C 14.98711 16.96912 -0.00831
C 14.73137 25.63323 0.03754
C 14.7576 15.64936 -0.02957
C 15.79154 0.8818 0.00654
C 14.78237 0.07731 -0.00703
C 17.14118 32.60259 -0.04076
C 18.39525 31.86732 -0.00652
C 18.39769 30.45854 0.0058
C 17.18047 29.77077 -0.00865
C 17.0929 28.37753 0.00675
C 18.29378 27.66635 -0.00311
C 15.00188 2.61362 -0.04422
C 15.89461 26.31503 -0.03557
C 15.85206 27.75094 -0.00111
C 14.64033 28.42362 0.04892
C 13.53005 21.99365 -0.04147
C 12.28528 21.26 -0.05302
C 12.33186 19.83927 0.00213
C 13.5199 19.16786 -0.00066
C 13.57611 17.71849 -0.00289
C 12.30577 17.01118 0.00028
C 12.30025 15.57415 -0.02213
C 13.50852 15.0321 0.03698
C 12.16929 12.73738 -0.00109
C 12.36401 6.96474 -0.00491
C 12.13145 4.22005 0.03338
C 12.3916 2.83687 -0.0258
C 13.62012 2.11683 -0.0331
C 13.5605 0.68005 -0.00316
C 12.36879 34.04296 0.02188
C 14.8296 32.70464 -0.01979
C 15.94722 31.93113 0.02691
C 15.95237 30.49508 -0.01581
C 14.64381 29.81611 0.01452
C 12.27853 24.14689 0.03505
C 7.26853 4.30005 0.02894
C 8.52991 4.96054 -0.02971
C 8.60513 6.41034 0.00165
C 3.63819 6.50123 0.02635
C 3.67106 5.06492 0.0127
C 2.37456 4.33469 0.01396
C 2.4517 2.88638 0.01849
C 3.75833 2.12732 -0.01142
C 3.68594 0.78024 -0.00562
C 2.46941 0.05309 -0.00494
C 4.93092 32.69916 0.00054
C 2.43627 7.21556 -0.01378
C 6.1276 32.03841 0.03007
C 4.85236 29.87598 0.01572
C 4.93323 28.46465 -0.04848
C 6.13766 27.74835 -0.00892
C 6.12918 26.30939 -0.01362
C 4.95623 25.523 -0.0008
C 4.86105 24.18599 0.0288
C 6.08755 23.40385 0.00393
C 6.16569 22.00052 0.00895
C 6.09751 30.55565 -0.00095
C 2.46712 8.60699 -0.01303
C 3.65581 9.34074 0.00848
C 3.65853 10.76921 -0.00049
C 3.5992 30.58598 0.017
C 2.39785 29.78616 -0.03113
C 2.46325 28.42957 -0.02566
C 3.7193 27.70588 -0.00094
C 3.75893 26.29262 0.02322
C 2.42801 25.57791 -0.00725
C 2.43793 24.15865 -0.05697
C 3.7201 23.47553 0.01087
C 3.71355 21.9638 -0.01343
C 2.45936 21.33209 0.00988
C 2.48693 19.91052 0.0276
C 3.75777 19.11835 0.01305
C 3.67959 17.70743 -0.00077
C 2.49602 17.058 0.03368
C 2.38863 15.63073 -0.02929
C 3.72042 15.01941 -0.00966
C 3.64934 13.45641 -0.03337
C 2.42223 12.74579 0.01227
C 2.45004 11.40065 0.00873
C 4.90246 21.29114 0.00685
C 4.96139 19.96012 0.02888
C 6.19496 19.20953 -0.00482
C 6.21255 17.71712 -0.01384
C 8.57749 26.27265 0.03589
C 7.35518 25.57187 -0.02759
C 7.37172 24.17545 0.0402
C 8.644 23.44607 0.00572
C 8.64343 22.00328 0.03592
C 7.44595 21.37806 0.00406
C 7.44939 19.9054 0.00943
C 8.6873 19.19756 0.02841
C 8.71188 17.80707 -0.01111
C 7.44639 17.08311 -0.01275
C 7.4461 15.59587 0.00985
C 8.64598 14.74375 -0.02245
C 8.54429 13.4068 -0.00428
C 7.29154 12.76113 0.03101
C 7.3669 11.34622 -0.01536
C 8.58797 10.59442 -0.02689
C 8.61219 9.17718 -0.01046
C 7.35697 8.54313 -0.00891
C 7.33552 7.13466 0.02819
C 8.5578 27.73443 -0.00033
C 18.42075 26.18228 0.00742
C 7.37696 28.37349 -0.01062
C 8.55055 30.55627 -0.00719
C 4.98545 17.06977 0.03693
C 4.94702 15.6329 0.01745
C 6.18941 14.93455 0.00488
C 6.1102 13.54624 -0.01004
C 4.90224 12.81695 -0.02896
C 4.83541 11.46817 -0.00131
C 6.11565 10.70506 -0.01118
C 6.15189 9.35911 -0.014
C 4.9074 8.62954 0.02147
C 4.89835 7.17875 0.00373
C 6.0788 6.46957 -0.00191
C 6.03939 5.06454 0.00438
C 4.90287 4.32739 0.01291
C 4.92869 2.8562 0.00093
C 6.10807 2.16064 0.00057
C 6.10356 0.75359 -0.01634
C 4.93236 34.07394 -0.00334
C 7.40462 32.67116 0.02339
C 8.6135 32.0069 0.01641
C 7.38244 29.81859 0.01364
C 17.1649 25.58588 -0.01594
C 17.22064 24.20233 0.0106
C 18.43393 23.37393 -0.01154
C 29.42469 0.00561 0.00346
C 31.94877 32.73304 0.01713
C 33.16245 31.99513 -0.01694
C 33.12919 30.6249 0.01428
C 31.90486 29.87012 -0.02142
C 31.95903 28.47436 0.0544
C 33.15858 27.76278 0.00026
C 33.14224 26.33449 0.00682
C 30.67203 0.74148 0.00307
C 31.94686 25.63647 -0.01779
C 33.24089 23.54699 0.01927
C 33.19429 21.98544 0.01574
C 32.02467 21.3067 -0.02383
C 31.99646 19.83826 -0.01429
C 33.21989 19.13329 -0.0136
C 33.2679 17.69267 0.00594
C 31.99734 17.06538 -0.02474
C 31.93769 15.66753 0.00369
C 31.96298 24.16322 0.03794
C 30.65849 2.11473 0.00716
C 29.42197 2.82054 0.02108
C 29.40768 4.25799 0.0103
C 29.57282 24.17269 -0.02049
C 30.73251 23.46925 -0.01854
C 30.71216 22.05921 -0.01415
C 29.5007 21.29156 -0.03039
C 29.54643 19.84652 0.01836
C 30.77306 19.18941 0.03531
C 30.76169 17.80171 -0.00669
C 29.55814 17.06904 0.0101
C 29.52146 15.66526 0.01705
C 30.74541 14.95071 -0.0405
C 30.71224 13.50675 -0.01303
C 29.46053 12.64905 -0.01461
C 29.53354 11.26001 -0.02155
C 30.76703 10.61167 -0.00944
C 30.67939 9.19715 -0.03735
C 29.62634 8.37767 -0.00971
C 29.53938 6.98896 0.01518
C 30.6727 6.32159 0.01908
C 30.71233 4.91598 0.07705
C 33.20571 14.88504 0.00455
C 33.16471 13.50986 -0.00644
C 31.94045 12.77826 -0.01839
C 31.98721 11.37959 0.00137
C 0.01149 19.84272 0.01951
C 1.27482 19.14925 -0.01678
C 1.28984 17.69259 0.01223
C 0.02422 16.99683 0.00648
C 0.03256 15.61053 0.02114
C 1.21453 14.84355 -0.02957
C 1.12948 13.46889 0.00343
C 34.3674 12.74664 -0.02656
C 34.36183 11.33855 -0.02442
C 1.19209 10.70567 -0.00027
C 1.17917 9.31251 -0.00583
C 34.35679 8.51046 -0.02302
C 0.00154 7.15047 -0.02849
C 1.19977 6.47508 0.02931
C 1.20233 5.07473 0.00628
C 34.37705 4.29586 -0.0345
C 0.0246 2.90108 -0.00931
C 1.2438 2.16292 -0.00939
C 1.241 0.80478 -0.00468
C 0.01002 21.27818 -0.02213
C 29.46501 25.62514 0.03265
C 1.18617 22.01309 0.02712
C 34.39827 24.19518 0.03076
C 33.1858 10.66753 0.00199
C 33.1395 9.20716 0.04381
C 31.88819 8.463 0.02806
C 31.86884 7.04371 0.01504
C 33.24565 6.38147 -0.00069
C 33.13325 4.90369 0.04926
C 31.87478 4.17523 -0.03838
C 31.93209 2.76447 0.00349
C 33.21167 2.19808 -0.00323
C 33.18081 0.70059 -0.00841
C 31.89412 0.04433 0.0001
C 0.03832 32.7358 -0.02927
C 1.1827 31.94861 -0.01404
C 1.16685 30.52325 0.01027
C 34.40024 29.77483 0.01831
C 0.04023 28.34666 -0.01037
C 1.25834 27.67812 -0.00439
C 1.23095 26.25869 -0.00598
C 34.40697 25.6124 -0.05239
C 1.19396 23.45152 0.00723
C 3.64398 31.96005 -0.00643
C 30.68049 26.34098 0.00261
C 29.47244 28.44477 0.00924
C 22.14677 32.68554 0.01515
C 23.34652 31.9479 -0.00225
C 23.3037 30.50152 0.00071
C 22.14026 29.7829 -0.01107
C 22.03627 28.35004 -0.01586
C 23.32353 27.68679 -0.01971
C 23.38121 26.20338 -0.02118
C 22.14464 25.57624 0.00733
C 19.60093 0.08839 -0.0055
C 22.18798 24.09903 -0.00178
C 23.42582 21.96669 -0.0276
C 22.16344 21.18372 0.03005
C 22.07123 19.83724 -0.04078
C 23.27489 19.1975 0.02117
C 23.42368 17.86451 0.02737
C 23.38147 0.57159 -0.00498
C 22.0992 0.14774 0.00135
C 24.60862 32.6074 0.03102
C 23.34738 23.3947 0.00768
C 20.78898 0.67265 0.02734
C 20.88641 19.06889 0.01153
C 19.65152 19.8066 0.02239
C 18.45252 21.95177 -0.01721
C 17.14976 21.33542 -0.02422
C 17.21164 19.92375 0.01277
C 18.36643 19.14052 0.00096
C 18.20757 17.74635 -0.01527
C 18.35763 0.58713 0.01087
C 17.08646 0.10505 0.00199
C 19.63962 32.63596 0.01511
C 20.97516 31.93694 -0.00478
C 20.91333 30.51507 -0.01662
C 19.67383 29.78813 -0.01185
C 19.64788 28.35513 0.01126
C 20.82035 27.66574 0.01852
C 20.86791 26.18026 -0.00381
C 19.64376 25.45067 0.03046
C 19.67633 24.03622 0.0296
C 20.90074 23.36655 0.03374
C 20.93187 21.90832 -0.02845
C 19.71166 21.21522 -0.03213
C 25.79891 31.88832 0.02555
C 25.79531 30.47344 0.01423
C 24.54669 29.76156 -0.00285
C 24.49759 28.44042 -0.009
C 28.27524 23.41768 0.00152
C 28.3522 21.967 0.01257
C 27.1223 21.2642 0.02316
C 27.02288 19.82326 0.04185
C 28.30663 19.17491 0.00194
C 28.27104 17.7305 -0.00621
C 27.06724 17.01081 0.02611
C 27.14722 15.63611 0.02198
C 28.20387 14.85886 0.01094
C 28.58063 13.56669 0.00235
C 28.30885 5.09845 0.01495
C 26.9966 2.75948 0.01259
C 28.16666 2.22595 0.01799
C 28.15893 0.74003 0.01699
C 26.90511 34.07823 -0.00416
C 29.40669 32.66213 0.01177
C 30.67605 32.04646 0.04266
C 30.64257 30.58927 0.01324
C 29.46496 29.81589 0.0014
C 27.09348 24.13079 -0.00294
C 30.64844 27.73174 0.02326
C 27.09585 25.49593 0.00826
C 28.25478 27.76437 -0.00942
C 25.809 27.67126 -0.01199
C 25.77729 26.28946 -0.00229
C 24.5567 25.58506 -0.00938
C 24.61481 24.1557 -0.0264
C 25.82329 23.43541 -0.01154
C 25.96607 22.08809 0.00684
C 24.58067 21.30249 -0.01052
C 24.56255 19.87952 -0.01679
C 25.75018 19.11251 0.00367
C 25.74173 17.64616 0.04306
C 24.5381 17.13414 0.00996
C 25.87584 2.18983 0.00195
C 25.7518 0.77288 -0.00802
C 24.57783 34.00536 -0.00218
C 26.97393 32.66616 -0.01654
C 28.27495 31.94279 -0.00037
C 28.19084 30.50538 -0.0032
C 27.00252 29.76784 0.00622
C 27.0793 28.42087 -0.02815
C 28.25764 26.3081 0.00487
C 2.41651 32.68619 0.0086
