363
Graphene
C 0.01385 0.01972 0.01295
C 12.35918 32.65479 -0.03682
C 13.51243 31.99294 0.01965
C 13.51729 30.51878 0.02058
C 12.31722 29.81781 -0.01957
C 12.35277 15.6413 -0.0108
C 13.53241 14.93444 -0.00368
C 13.50013 13.44331 -0.02696
C 12.27177 12.76624 -0.00114
C 9.79418 33.99856 0.00052
C 12.29304 11.3593 0.00228
C 13.53319 9.26962 0.00422
C 12.3263 8.47537 0.0351
C 12.31329 7.06262 -0.03113
C 13.55668 6.36269 0.02098
C 13.51285 5.00275 0.01848
C 12.31308 4.25096 -0.00619
C 12.28737 2.81313 -0.02162
C 13.47672 2.11961 0.00889
C 13.56175 10.60086 0.00798
C 11.03455 0.68062 0.00374
C 11.03848 2.1414 -0.02813
C 9.82617 2.78554 -0.01952
C 7.35013 0.05059 -0.01789
C 9.77702 32.68818 0.00444
C 11.07797 31.97854 -0.00925
C 11.08679 30.54089 0.01877
C 9.86819 29.82759 0.01363
C 9.85696 28.39229 -0.02162
C 9.79244 17.05198 0.00415
C 9.85921 15.62689 -0.0014
C 11.0988 14.93886 0.02162
C 11.07885 13.52256 0.0076
C 9.8188 12.78562 0.01241
C 9.83085 11.38077 -0.01454
C 11.07355 10.62109 0.01945
C 11.06861 9.24709 0.01416
C 9.84679 8.54083 0.03542
C 9.93252 7.09416 0.02299
C 11.06612 6.33939 0.00244
C 11.07117 4.99073 -0.01717
C 9.87255 4.21387 0.05265
C 13.4564 0.71389 -0.00481
C 12.29092 34.06394 0.00979
C 14.82263 32.69018 0.01443
C 15.97219 31.94493 0.03505
C 18.48233 10.6652 0.03754
C 18.42878 9.27733 0.01739
C 17.19203 8.52906 0.00755
C 17.21712 7.05041 -0.0054
C 18.44175 6.37196 0.00667
C 18.46197 4.99162 0.00143
C 17.22261 4.23752 -0.017
C 17.20418 2.8814 0.00364
C 18.45084 2.15557 -0.00831
C 18.46006 0.70972 -0.02957
C 17.24746 0.05722 -0.04422
C 19.67842 32.65776 0.00654
C 20.90188 31.92521 -0.00703
C 20.93422 30.51241 -0.04076
C 19.73996 29.81123 -0.00652
C 19.62586 15.59774 0.0058
C 20.88705 14.8953 -0.00865
C 20.93197 13.46373 0.00675
C 19.68456 12.75822 -0.00311
C 17.19414 11.36663 -0.03557
C 8.57384 0.70114 0.02894
C 17.20922 12.7971 -0.00111
C 18.42814 14.95015 0.01452
C 15.98893 30.5394 -0.02815
C 15.99317 13.5196 -0.04147
C 14.78108 12.78168 -0.05302
C 14.75885 11.34614 0.00213
C 15.9831 10.65802 -0.00066
C 15.99068 9.25622 -0.00289
C 14.82481 8.53399 0.00028
C 14.77718 7.1035 -0.02213
C 15.98947 6.36465 0.03698
C 15.96227 4.90673 -0.00109
C 14.74444 4.22978 -0.00491
C 14.76493 2.84799 0.03338
C 15.97985 2.1319 -0.0258
C 15.95659 0.70518 -0.0331
C 14.69876 0.03822 -0.00316
C 17.2137 32.65166 0.02188
C 18.43227 31.95095 -0.01979
C 18.45874 30.56281 0.02691
C 17.23389 29.82693 -0.01581
C 18.43339 13.4677 0.04892
C 19.68524 11.31447 0.00742
C 8.5824 2.1312 -0.02971
C 7.40631 4.24258 0.02819
C 3.66736 6.40593 -0.01378
C 3.72662 4.9517 0.02635
C 2.50279 4.28463 0.0127
C 2.44293 2.87125 0.01396
C 3.71332 2.12556 0.01849
C 3.69803 0.72819 -0.01142
C 2.44153 34.06997 -0.00562
C 4.9328 32.66266 -0.00494
C 2.48939 7.06215 -0.01303
C 6.15139 31.95815 0.00054
C 4.89944 29.82235 -0.00095
C 4.87028 28.40956 0.01572
C 6.11465 27.68986 -0.04848
C 6.15148 26.29795 -0.00892
C 4.91098 25.5321 -0.01362
C 4.91414 24.19086 -0.0008
C 6.1723 23.44486 0.0288
C 6.16839 22.03523 0.00393
C 6.10785 30.55593 0.03007
C 2.46523 8.53147 0.00848
C 3.68925 9.20922 -0.00049
C 3.70505 10.67296 0.00873
C 3.65789 30.54771 -0.00643
C 2.47623 29.8059 0.017
C 2.5102 28.4066 -0.03113
C 3.67963 27.68259 -0.02566
C 3.72758 26.25768 -0.00094
C 2.45067 25.53158 0.02322
C 2.43268 24.09997 -0.00725
C 3.66744 23.50406 -0.05697
C 3.6898 22.03378 0.01087
C 2.48504 21.2831 -0.01343
C 2.43553 19.90286 0.00988
C 3.7001 19.18824 0.0276
C 3.66434 17.74153 0.01305
C 2.48406 17.04504 -0.00077
C 2.40635 15.60381 0.03368
C 3.70113 14.94494 -0.02929
C 3.66385 13.52824 -0.00966
C 2.43005 12.78612 -0.03337
C 2.48372 11.39222 0.01227
C 4.92673 21.26005 0.00895
C 4.9442 19.90428 0.00685
C 6.16679 19.17861 0.02888
C 6.1416 17.77441 -0.00482
C 8.58184 26.27963 -0.00033
C 7.34789 25.51629 0.03589
C 7.35852 24.11153 -0.02759
C 7.40459 21.31666 0.0402
C 7.3786 19.85653 0.00572
C 8.57677 19.21325 0.03592
C 8.61005 17.80995 0.00406
C 7.33817 17.03043 0.00943
C 7.40325 15.62863 0.02841
C 8.63839 14.90623 -0.01111
C 8.62663 13.55544 -0.01275
C 7.35623 12.71902 0.00985
C 7.36567 11.3605 -0.02245
C 8.564 10.67463 -0.00428
C 8.56692 9.19441 0.03101
C 7.36666 8.49779 -0.01536
C 7.36508 7.11083 -0.02689
C 8.6242 6.43351 -0.01046
C 8.66992 4.92483 -0.00891
C 8.62014 27.74888 -0.01062
C 7.37566 2.87067 0.00165
C 7.38531 28.43655 0.01364
C 8.61157 30.54132 0.01641
C 4.90668 17.02006 -0.01384
C 4.95236 15.63862 0.03693
C 6.13713 14.89439 0.01745
C 6.10553 13.52473 0.00488
C 4.90945 12.78513 -0.01004
C 4.91891 11.42438 -0.02896
C 6.14993 10.69398 -0.00131
C 6.1872 9.2403 -0.01118
C 4.87746 8.57419 -0.014
C 4.8961 7.13243 0.02147
C 6.16138 6.41167 0.00373
C 6.11534 4.99502 -0.00191
C 4.9607 4.2819 0.00438
C 4.91384 2.84436 0.01291
C 6.17822 2.12224 0.00093
C 6.13527 0.73425 0.00057
C 4.90202 0.04936 -0.01634
C 7.41043 32.6814 -0.00334
C 8.57525 31.96451 0.02339
C 7.37818 29.8588 -0.00719
C 3.71991 31.93467 0.0086
C 20.94441 10.59644 -0.01594
C 19.63657 8.56915 -0.01154
C 30.73128 2.12132 0.00346
C 30.75243 0.74696 0.01713
C 29.52806 34.04794 -0.01694
C 31.97797 32.66997 0.01428
C 33.17911 31.93087 -0.02142
C 33.23176 30.52477 0.0544
C 31.96607 29.85923 0.00026
C 31.90457 28.39848 0.00682
C 30.7233 4.95727 0.00307
C 33.17897 27.6453 -0.01779
C 31.99673 25.57823 0.01927
C 31.95224 24.12284 0.01574
C 33.23662 23.46286 -0.02383
C 33.20786 21.99472 -0.01429
C 31.97175 21.3069 -0.0136
C 31.94984 19.90895 0.00594
C 33.23172 19.18166 -0.02474
C 33.23432 17.75229 0.00369
C 33.19932 26.27222 0.03794
C 30.72496 6.36755 0.00716
C 29.51049 7.12832 0.02108
C 29.45399 8.5335 0.0103
C 27.08397 34.03474 -0.02049
C 29.52564 32.64052 -0.01854
C 30.77513 31.95279 -0.01415
C 30.7704 30.56551 -0.03039
C 29.51958 29.81828 0.01836
C 29.51987 28.39178 0.03531
C 30.7427 27.66498 -0.00669
C 30.72892 26.25409 0.0101
C 29.50227 25.57142 0.01705
C 29.58164 24.18045 -0.0405
C 30.75313 23.38244 -0.01303
C 30.7564 21.99636 -0.01461
C 29.54192 21.30966 -0.02155
C 29.51851 19.88131 -0.00944
C 30.74871 19.17576 -0.03735
C 30.69844 17.74847 -0.00971
C 29.55289 17.00732 0.01518
C 30.72762 10.64185 0.01908
C 30.72829 9.2588 0.07705
C 31.97534 17.00318 0.00455
C 33.20038 14.91008 -0.00644
C 33.17515 13.51155 -0.01839
C 31.96368 11.29026 0.00137
C 0.01772 19.87994 0.01951
C 1.24265 19.20809 -0.01678
C 1.26248 17.7303 0.01223
C 0.0072 16.96347 0.00648
C 34.42748 15.61352 0.02114
C 1.25415 14.89009 -0.02957
C 1.20694 13.49277 0.00343
C 0.00542 12.74084 -0.02656
C 34.4125 11.37682 -0.02442
C 1.20794 10.68819 -0.00027
C 1.24736 9.26909 -0.00583
C 34.41387 8.52658 -0.02302
C 0.02024 7.13707 -0.02849
C 1.18883 6.38426 0.02931
C 1.22245 4.95572 0.00628
C 34.43286 4.22186 -0.0345
C 0.04086 2.8579 -0.00931
C 1.27918 2.13759 -0.00939
C 1.2347 0.67817 -0.00468
C 34.42201 21.32054 -0.02213
C 28.28172 0.69001 0.03265
C 1.23181 22.06716 0.02712
C 34.39738 24.10253 0.03076
C 33.15769 10.629 0.00199
C 33.1731 9.2366 0.04381
C 32.02435 8.50921 0.02806
C 31.91468 7.09307 0.01504
C 33.16159 6.40435 -0.00069
C 33.19465 4.94573 0.04926
C 31.95329 4.26241 -0.03838
C 31.96928 2.82991 0.00349
C 33.19764 2.15755 -0.00323
C 33.20441 0.71832 -0.00841
C 31.98053 0.00323 0.0001
C 34.4294 32.64706 -0.02927
C 1.20252 31.94469 -0.01404
C 1.19386 30.53454 0.01027
C 34.42608 29.82644 0.01831
C 0.03009 28.38752 -0.01037
C 1.23958 27.65757 -0.00439
C 1.21724 26.29488 -0.00598
C 0.00247 25.60301 -0.05239
C 1.21849 23.48534 0.00723
C 20.90203 9.21953 0.0106
C 27.00459 7.08634 0.00261
C 28.28407 9.2515 0.00924
C 22.14171 12.78935 0.01515
C 22.13405 11.36754 -0.00225
C 23.33017 10.66014 0.00071
C 23.34782 9.2113 -0.01107
C 22.13281 8.52274 -0.01586
C 22.12172 7.16248 -0.01971
C 23.34882 6.35032 -0.02118
C 23.34722 4.95642 0.00733
C 23.31498 13.47262 -0.0055
C 22.12964 4.24273 -0.00178
C 23.38717 2.15576 -0.0276
C 23.31145 0.68402 0.03005
C 22.08699 34.0571 -0.04078
C 24.59042 32.67105 0.02117
C 25.83114 31.93355 0.02737
C 25.83656 30.57333 -0.00498
C 24.61704 29.81516 0.00135
C 24.60994 28.38736 0.03102
C 22.13043 2.84715 0.00768
C 23.31719 14.87346 0.02734
C 22.16969 15.58507 0.01153
C 22.1307 17.07284 0.02239
C 19.63839 7.09629 -0.01721
C 20.883 6.38904 -0.02422
C 20.93671 4.93532 0.01277
C 19.64134 4.2609 0.00096
C 19.61549 2.84477 -0.01527
C 20.87064 2.08908 0.01087
C 20.90863 0.64961 0.00199
C 19.63477 0.00152 0.01511
C 22.16268 32.6461 -0.00478
C 23.3703 31.94738 -0.01662
C 23.296 30.52953 -0.01185
C 22.12248 29.75235 0.01126
C 22.13338 28.37201 0.01852
C 23.36638 27.65206 -0.00381
C 23.40071 26.22197 0.03046
C 23.41525 23.37391 0.0296
C 23.38151 22.00816 0.03374
C 23.36615 19.16234 -0.02845
C 23.37226 17.69596 -0.03213
C 25.78135 27.64746 0.02555
C 25.81341 26.29507 0.01423
C 24.63444 25.50858 -0.00285
C 24.64816 24.11455 -0.009
C 28.26699 31.91306 0.00152
C 28.29204 30.52761 0.01257
C 27.05086 29.80536 0.02316
C 27.06041 28.36964 0.04185
C 28.31811 27.69795 0.00194
C 28.26443 26.27442 -0.00621
C 27.06926 25.58757 0.02611
C 27.0856 24.13063 0.02198
C 28.34721 23.43391 0.01094
C 28.31532 22.03459 0.00235
C 27.04401 21.3183 0.01495
C 27.08473 19.84484 0.01259
C 28.28279 19.16243 0.01799
C 28.29832 17.74742 0.01699
C 27.04366 17.06655 -0.00416
C 26.99534 15.62196 0.01177
C 27.07671 12.77949 0.04266
C 27.03654 11.38824 0.01324
C 28.28358 10.61845 0.0014
C 27.07005 32.67924 -0.00294
C 27.06351 8.53864 0.02326
C 24.5736 34.04864 0.00826
C 25.84561 2.15069 -0.00942
C 25.87206 23.40767 -0.01199
C 25.83386 22.01397 -0.00229
C 24.57004 21.29409 -0.00938
C 24.59832 19.90459 -0.0264
C 25.83985 19.16614 -0.01154
C 25.90232 17.78097 0.00684
C 24.57167 17.02267 -0.01052
C 24.62492 15.60016 -0.01679
C 25.827 14.90909 0.00367
C 25.79337 13.50885 0.04306
C 24.53675 12.7901 0.00996
C 24.56744 11.3602 0.00195
C 25.80725 10.66038 -0.00802
C 25.85433 9.23062 -0.00218
C 24.5334 8.49628 -0.01654
C 24.59236 7.08269 -0.00037
C 25.82709 6.42158 -0.0032
C 24.55018 4.24101 0.00622
C 24.586 2.8409 -0.02815
C 25.81212 0.70203 0.00487
C 2.47534 32.65091 -0.00518
