361
Graphene
C 34.3186 0.001 0.01295
C 9.91066 2.87003 0.02058
C 11.05477 2.19477 -0.01957
C 11.1002 0.79848 -0.0108
C 9.85672 0.01875 -0.00368
C 12.28904 32.72522 -0.02696
C 13.52403 31.98659 -0.00114
C 13.59531 30.52372 0.00228
C 12.39548 29.7956 0.00798
C 9.69761 4.23651 0.01965
C 12.38989 28.37981 0.00422
C 13.66451 26.10607 -0.03113
C 12.26986 25.58884 0.02098
C 12.27269 24.19158 0.01848
C 13.47378 23.56291 -0.00619
C 13.53871 22.19938 -0.02162
C 12.32951 21.3464 0.00889
C 12.2962 19.89395 -0.00481
C 13.4261 19.19499 0.00979
C 13.63527 27.54041 0.0351
C 9.63934 11.20796 -0.03682
C 9.78439 12.65979 0.00052
C 10.97795 13.34941 0.00374
C 7.31623 0.00612 -0.00925
C 9.77274 32.71877 0.01877
C 11.07515 31.94064 0.01363
C 11.11619 30.4765 -0.02162
C 9.8072 29.84754 0.00415
C 9.91085 28.45992 -0.0014
C 11.14347 27.74591 0.02162
C 11.02331 26.29767 0.0076
C 9.86135 25.51812 0.01241
C 9.91801 24.15164 -0.01454
C 11.09312 23.39503 0.01945
C 11.09309 22.05997 0.01416
C 9.86432 21.30413 0.03542
C 9.8697 19.8754 0.02299
C 11.09762 19.24359 0.00244
C 11.07074 17.76965 -0.01717
C 9.81966 16.92622 0.05265
C 9.79476 15.6237 -0.01952
C 11.01045 14.77802 -0.02813
C 13.48421 17.76735 0.01443
C 8.58547 0.75282 0.00444
C 12.29099 17.06204 0.03505
C 13.46151 14.87658 -0.04147
C 14.71519 12.63598 0.00755
C 14.74454 11.29374 -0.0054
C 15.96965 10.64154 0.00667
C 15.88451 9.18631 0.00143
C 14.69725 8.4506 -0.017
C 14.63426 7.10508 0.00364
C 15.97612 6.37749 -0.00831
C 15.98972 4.98711 -0.02957
C 15.87607 13.3872 0.01739
C 14.74806 4.32085 -0.04422
C 16.00629 2.16106 -0.00703
C 16.00744 0.63061 -0.04076
C 14.76607 0.03094 -0.00652
C 17.17061 32.65861 0.0058
C 18.3348 31.8218 -0.00865
C 17.20949 16.97424 0.00675
C 17.08347 15.57702 -0.00311
C 18.37276 14.81034 0.00742
C 14.74262 2.87082 0.00654
C 15.83415 14.8272 0.03754
C 14.70129 15.58901 -0.03557
C 14.78871 17.03987 -0.00111
C 13.42429 13.4414 -0.05302
C 12.19448 12.75858 0.00213
C 12.30904 11.31157 -0.00066
C 13.50436 10.70222 -0.00289
C 13.48382 4.96877 0.00028
C 12.34096 4.35256 -0.02213
C 12.26111 2.92872 0.03698
C 13.52886 2.22615 -0.00109
C 13.53307 0.78263 -0.00491
C 12.3217 0.00761 0.03338
C 14.69835 32.64688 -0.0258
C 15.95695 31.93553 -0.0331
C 16.10785 30.58836 -0.00316
C 14.86823 29.83821 0.02188
C 14.64203 28.48157 -0.01979
C 14.60875 21.30092 0.02691
C 14.7587 19.87134 -0.01581
C 15.88627 19.09838 0.01452
C 16.02946 17.75738 0.04892
C 12.25219 15.58082 -0.02815
C 8.54781 2.19473 -0.01789
C 7.3331 2.91582 0.02894
C 7.2251 4.30917 -0.02971
C 3.72005 6.50505 0.0127
C 3.68079 5.09756 0.01396
C 2.46132 4.41007 0.01849
C 2.43596 2.97809 -0.01142
C 3.61505 2.26674 -0.00562
C 3.65546 0.75474 -0.00494
C 2.39895 0.09301 0.00054
C 4.8077 32.71384 0.03007
C 2.43431 7.22596 0.02635
C 6.1008 31.97138 -0.00095
C 4.9017 29.87049 -0.04848
C 4.87227 28.43289 -0.00892
C 6.1199 27.68978 -0.01362
C 6.17997 26.29639 -0.0008
C 4.91537 25.64803 0.0288
C 4.96809 24.11915 0.00393
C 6.18077 23.48622 0.00895
C 6.14327 22.01497 0.00685
C 6.11735 30.62298 0.01572
C 2.44309 8.66697 -0.01378
C 3.71199 9.37387 -0.01303
C 3.68176 10.6888 0.00848
C 3.64258 30.55013 -0.03113
C 2.37579 29.92938 -0.02566
C 2.4116 28.44143 -0.00094
C 3.66771 27.78512 0.02322
C 3.61138 26.30025 -0.00725
C 2.45658 25.56965 -0.05697
C 2.43808 24.12842 0.01087
C 3.64544 23.38368 -0.01343
C 3.66754 21.99864 0.00988
C 2.49 21.23564 0.0276
C 2.54168 19.81707 0.01305
C 3.74225 19.19039 -0.00077
C 3.78112 17.75198 0.03368
C 2.4727 17.0586 -0.02929
C 2.5504 15.61205 -0.00966
C 3.71326 14.90044 -0.03337
C 3.67519 13.56795 0.01227
C 2.3811 12.84394 0.00873
C 2.38857 11.42167 -0.00049
C 4.96226 21.30809 0.02888
C 4.93752 19.81059 -0.00482
C 6.19576 19.22606 -0.01384
C 6.20549 17.81632 0.03693
C 8.6315 26.36485 -0.02759
C 7.4125 25.61186 0.0402
C 7.39338 24.14319 0.00572
C 8.63216 23.46865 0.03592
C 8.63835 22.09324 0.00406
C 7.39687 21.30704 0.00943
C 7.42527 19.87137 0.02841
C 8.67928 19.19014 -0.01111
C 8.64069 17.67878 -0.01275
C 7.46024 17.02587 0.00985
C 7.42105 15.57266 -0.02245
C 8.62114 14.95341 -0.00428
C 8.62216 13.38182 0.03101
C 7.41391 12.77745 -0.01536
C 7.27464 11.36396 -0.02689
C 8.44091 10.48623 -0.01046
C 7.36661 8.65953 -0.00891
C 7.29788 7.27161 0.02819
C 8.52754 4.97003 0.00165
C 8.66727 27.72056 0.03589
C 18.3392 13.41205 -0.01594
C 7.35721 28.48018 -0.00033
C 8.59949 30.5801 0.01364
C 4.96148 17.06449 0.01745
C 5.01467 15.64071 0.00488
C 6.19637 14.91744 -0.01004
C 6.14828 13.47141 -0.02896
C 4.90804 12.83589 -0.00131
C 4.89698 11.41831 -0.01118
C 6.04624 10.73392 -0.014
C 6.03147 9.30999 0.02147
C 4.90657 8.584 0.00373
C 4.93239 7.20105 -0.00191
C 6.18587 6.4601 0.00438
C 6.15156 5.06436 0.01291
C 4.88209 4.37315 0.00093
C 4.89649 2.96508 0.00057
C 6.16396 2.17052 -0.01634
C 6.12672 0.73492 -0.00334
C 4.86749 0.06597 0.02339
C 7.34962 32.65728 0.01641
C 8.62278 31.97083 -0.00719
C 7.29606 29.89089 -0.01062
C 3.62131 31.98728 0.017
C 17.12122 12.68344 0.0106
C 18.39335 10.64141 -0.01721
C 29.44572 0.06056 0.01713
C 31.89625 32.77746 -0.01694
C 33.1288 32.03604 0.01428
C 33.14676 30.57464 -0.02142
C 31.95702 29.89236 0.0544
C 31.90305 28.47917 0.00026
C 33.20538 27.71898 0.00682
C 33.16188 26.32022 -0.01779
C 30.64295 0.73219 0.00346
C 31.92361 25.55291 0.03794
C 33.1488 23.40383 0.01574
C 33.24191 22.06068 -0.02383
C 31.95836 21.26186 -0.01429
C 31.95058 19.88425 -0.0136
C 33.23261 19.19347 0.00594
C 33.29796 17.79457 -0.02474
C 32.03141 17.11584 0.00369
C 31.90528 15.68348 0.00455
C 31.92341 24.14029 0.01927
C 30.66918 2.13693 0.00307
C 29.39612 2.86823 0.00716
C 29.41233 4.27917 0.02108
C 29.38338 28.56989 -0.01854
C 30.69227 27.84987 -0.01415
C 30.78392 26.31963 -0.03039
C 29.63869 25.45879 0.01836
C 29.50092 24.19233 0.03531
C 30.71041 23.3828 -0.00669
C 30.73906 21.92681 0.0101
C 29.47814 21.32553 0.01705
C 29.41613 19.91616 -0.0405
C 30.67989 19.24257 -0.01303
C 30.82029 17.8793 -0.01461
C 29.62944 17.05737 -0.02155
C 29.44324 11.42719 -0.00944
C 30.76493 11.00651 -0.03735
C 30.76086 9.35758 -0.00971
C 29.49973 8.54793 0.01518
C 29.46717 7.15672 0.01908
C 30.78841 6.36702 0.07705
C 30.74594 4.92492 0.0103
C 32.96736 14.79702 -0.00644
C 29.4615 29.87907 -0.02049
C 32.93598 13.27696 -0.01839
C 33.17885 10.75875 0.00199
C 1.23575 19.16267 -0.01678
C 1.23931 17.73008 0.01223
C 34.40973 16.98794 0.00648
C 34.24958 15.47621 0.02114
C 1.09135 14.91789 -0.02957
C 1.17414 13.52949 0.00343
C 34.35198 12.78666 -0.02656
C 0.00299 11.36726 -0.02442
C 34.42829 19.92719 0.01951
C 1.20489 10.67906 -0.00027
C 34.35477 8.55672 -0.02302
C 34.37696 7.17768 -0.02849
C 1.18355 6.4394 0.02931
C 1.16708 5.08599 0.00628
C 34.33907 4.3462 -0.0345
C 34.37529 2.93225 -0.00931
C 1.14381 2.21186 -0.00939
C 1.14975 0.80117 -0.00468
C 1.21668 9.27237 -0.00583
C 34.42064 21.29273 -0.02213
C 1.24869 21.94637 0.02712
C 1.19056 23.39947 0.00723
C 33.20727 9.35522 0.04381
C 31.92599 8.53347 0.02806
C 31.95104 7.14109 0.01504
C 33.13339 6.38377 -0.00069
C 33.20946 4.96897 0.04926
C 31.92386 4.21198 -0.03838
C 31.92199 2.86543 0.00349
C 33.17379 2.18828 -0.00323
C 33.1424 0.80006 -0.00841
C 31.95041 0.03343 0.0001
C 34.34614 32.69001 -0.02927
C 1.22377 32.01522 -0.01404
C 1.17115 30.58397 0.01027
C 34.36005 29.89097 0.01831
C 34.39861 28.42221 -0.01037
C 1.16807 27.71099 -0.00439
C 1.15851 26.30055 -0.00598
C 34.41095 25.54742 -0.05239
C 34.39295 24.16051 0.03076
C 32.13157 11.71113 0.00137
C 30.76737 30.5624 0.03265
C 30.72318 32.01233 0.00261
C 29.49677 32.71774 0.02326
C 19.59713 4.19049 -0.00225
C 19.67787 2.81317 0.00071
C 20.83514 1.9628 -0.01107
C 20.83904 0.54089 -0.01586
C 19.56628 33.9442 -0.01971
C 22.1468 32.49215 -0.02118
C 23.48602 32.02631 0.00733
C 22.06608 15.49403 -0.00178
C 20.81998 4.84147 0.01515
C 23.25741 14.85446 0.00768
C 22.10371 12.82662 0.03005
C 22.06492 11.34086 -0.04078
C 23.37121 10.61941 0.02117
C 23.37703 9.13245 0.02737
C 22.11011 8.51314 -0.00498
C 22.08641 7.02061 0.00135
C 23.32872 6.29626 0.03102
C 23.32107 4.93309 0.02555
C 23.44501 13.50996 -0.0276
C 20.82931 6.27096 -0.0055
C 19.63048 7.0227 0.02734
C 19.58917 8.42904 0.01153
C 18.38984 9.14793 -0.02422
C 17.08586 8.52434 0.01277
C 17.13964 7.12103 0.00096
C 18.36125 6.3703 -0.01527
C 18.45376 4.93957 0.01087
C 17.19482 4.2316 0.00199
C 17.19179 2.73474 0.01511
C 18.44762 2.07173 -0.00478
C 18.45589 0.63826 -0.01662
C 17.19998 0.00237 -0.01185
C 19.63768 32.46413 0.01126
C 20.90448 31.87417 0.01852
C 19.45316 15.58485 -0.00381
C 20.78754 15.13173 0.03046
C 20.89669 13.5646 0.0296
C 19.62821 12.7608 0.03374
C 19.63982 11.30256 -0.02845
C 20.86465 10.5875 -0.03213
C 20.89423 9.17551 0.02239
C 22.05181 4.24689 0.01423
C 21.99467 2.72029 -0.00285
C 23.23747 2.07289 -0.009
C 23.3095 0.66292 -0.01199
C 28.26632 30.56909 0.01257
C 27.10065 29.82864 0.02316
C 28.55315 18.92126 0.04185
C 28.40365 17.60128 0.00194
C 27.17488 17.00054 -0.00621
C 26.88878 15.58131 0.02611
C 27.16663 12.74915 0.02198
C 27.06693 11.33799 0.01094
C 28.30938 10.58402 0.00235
C 28.20275 9.13603 0.01495
C 26.99489 8.43519 0.01259
C 26.9742 7.07313 0.01799
C 28.22772 6.46956 0.01699
C 28.18953 4.97124 -0.00416
C 26.92303 4.33409 0.01177
C 26.90359 2.94898 0.04266
C 28.13238 2.19868 0.01324
C 28.16876 0.72011 0.0014
C 26.98144 0.05359 0.00924
C 28.25888 32.11632 0.00152
C 17.14792 11.32723 -0.01154
C 27.00779 32.71769 -0.00294
C 25.73165 0.7776 0.00487
C 22.11908 33.95519 -0.00229
C 24.75781 32.59667 -0.00938
C 25.9832 31.81158 -0.0264
C 25.74578 17.38769 -0.01154
C 24.56591 16.98358 0.00684
C 24.49843 15.53972 -0.01052
C 25.73563 14.8437 -0.01679
C 25.92123 13.44398 0.00367
C 24.6418 12.8014 0.04306
C 24.61458 11.33016 0.00996
C 25.85275 10.61707 0.00195
C 25.78268 9.2489 -0.00802
C 24.61463 8.52484 -0.00218
C 24.53834 7.08505 -0.01654
C 25.74524 6.41547 -0.00037
C 25.75692 5.04192 -0.0032
C 24.53058 4.258 0.00622
C 24.49827 2.90669 -0.02815
C 25.70864 2.15425 -0.00942
C 24.60552 33.98183 0.00826
C 2.40433 32.77307 -0.00643
