252
Graphene
C 34.37573 33.94538 0.01295
C 15.98612 4.89541 -0.03213
C 15.86032 6.33652 -0.02845
C 14.64992 7.09705 0.03374
C 14.66072 8.53504 0.0296
C 15.89735 9.27848 0.03046
C 15.94574 10.73554 -0.00381
C 14.69986 11.45216 0.01852
C 14.70899 12.88796 0.01126
C 15.94167 13.62692 -0.01185
C 15.91451 15.1197 -0.01662
C 14.74223 15.73868 -0.00478
C 15.79183 32.66355 0.01511
C 12.40863 33.84969 0.00199
C 13.60332 0.46939 0.01087
C 13.56085 1.92286 -0.01527
C 12.38364 2.66072 0.00096
C 12.26304 4.13801 0.01277
C 13.51194 4.85686 -0.02422
C 13.42422 6.33356 -0.01721
C 12.26113 7.10211 -0.01154
C 12.2421 8.58191 0.0106
C 13.46485 9.27063 -0.01594
C 13.4541 10.68304 0.00742
C 12.22453 11.4705 -0.00311
C 12.24725 12.88746 0.00675
C 13.50784 13.64448 -0.00865
C 13.42738 15.19333 0.0058
C 14.73774 4.1115 0.02239
C 14.74108 2.69231 0.01153
C 16.15466 2.05922 0.02734
C 16.2035 0.63875 -0.0055
C 19.58048 12.6788 0.00684
C 20.68617 13.39481 -0.01154
C 20.12726 14.84234 -0.0264
C 19.95209 29.40435 -0.00938
C 20.52027 30.6093 -0.00229
C 20.91406 31.8928 -0.01199
C 19.73744 32.64955 -0.009
C 17.38355 34.01599 -0.00285
C 18.57748 0.6088 0.01423
C 18.4981 2.1002 0.02555
C 17.32617 2.8164 0.03102
C 17.26322 4.21834 0.00135
C 18.3931 4.9972 -0.00498
C 12.2075 15.66792 -0.00652
C 18.32686 6.36931 0.02737
C 17.19223 8.61562 -0.04078
C 18.35883 9.29964 0.03005
C 18.33745 10.69463 -0.0276
C 17.1797 11.48181 0.00768
C 17.17289 12.89945 -0.00178
C 18.40698 13.56601 0.00733
C 18.69219 14.92516 -0.02118
C 17.48052 15.84889 -0.01971
C 16.88376 17.0235 -0.01586
C 18.92862 30.47114 -0.01107
C 18.4305 31.8244 0.00071
C 17.18698 32.66058 -0.00225
C 14.94468 34.03601 0.01515
C 17.06974 7.07203 0.02117
C 19.58263 11.36255 -0.01052
C 9.90623 0.01192 -0.04076
C 11.12396 2.00806 0.00654
C 4.86665 2.79942 -0.04147
C 4.95171 4.25776 -0.02815
C 6.1567 5.03648 0.03505
C 6.0786 6.42933 0.01443
C 4.86882 7.22746 0.00979
C 4.78218 8.68189 -0.00481
C 6.02222 9.34161 0.00889
C 6.04116 10.77277 -0.02162
C 4.81109 11.60063 -0.00619
C 4.9334 13.07409 0.01848
C 6.09924 13.75234 0.02098
C 4.82877 32.78201 -0.03113
C 2.40674 34.03245 0.0351
C 3.60429 0.68965 0.00422
C 3.60728 2.11738 0.00798
C 2.41442 2.89043 0.00228
C 2.42223 4.32192 -0.00114
C 3.7426 5.03813 -0.02696
C 3.64112 6.45021 -0.00368
C 2.43653 7.18135 -0.0108
C 2.35682 8.66689 -0.01957
C 3.55511 9.39544 0.02058
C 3.55521 10.81798 0.01965
C 2.30122 11.53234 -0.03682
C 2.31693 12.99959 0.00052
C 3.13335 18.16515 0.00374
C 2.47757 29.63291 -0.02813
C 6.16519 2.13546 -0.05302
C 6.12018 0.71856 0.00213
C 4.79756 0.05411 -0.00066
C 7.1327 15.55418 -0.00289
C 9.86805 2.71509 -0.04422
C 9.85323 4.21979 -0.02957
C 11.0816 4.91778 -0.00831
C 11.019 6.4134 0.00364
C 9.77526 7.10154 -0.017
C 9.84095 8.49962 0.00143
C 11.06014 9.29918 0.00667
C 11.0112 10.75371 -0.0054
C 9.79251 11.42722 0.00755
C 9.77208 12.95372 0.01739
C 11.02837 13.62464 0.03754
C 10.90061 15.20062 -0.03557
C 9.62908 15.74608 -0.00111
C 11.17145 0.47977 -0.00703
C 7.29947 34.06829 0.04892
C 8.65558 1.99492 -0.01581
C 7.46379 2.69343 0.02691
C 7.41071 4.23032 -0.01979
C 8.57048 4.9572 0.02188
C 8.58934 6.38461 -0.00316
C 7.32879 7.1223 -0.0331
C 7.24844 8.59291 -0.0258
C 8.56887 9.26429 0.03338
C 8.53735 10.75007 -0.00491
C 7.3232 11.49282 -0.00109
C 7.30649 12.91189 0.03698
C 8.51618 13.58957 -0.02213
C 8.42544 15.06011 0.00028
C 8.63366 0.43577 0.01452
C 20.83185 10.76639 -0.01679
C 20.85225 9.29857 0.00367
C 19.59915 8.56018 0.04306
C 31.95293 2.81588 -0.00841
C 32.00825 4.28668 -0.00323
C 33.15229 5.09779 0.00349
C 33.18267 6.49762 -0.03838
C 31.97583 7.1766 0.04926
C 31.95299 8.60036 -0.00069
C 33.14313 9.38268 0.01504
C 33.08235 10.82993 0.02806
C 31.88108 11.54079 0.04381
C 31.78768 12.99193 0.00199
C 32.96478 13.57283 0.00137
C 33.08131 14.92088 -0.01839
C 31.81724 15.66 -0.00644
C 34.16959 18.41676 0.00455
C 33.19627 27.02779 0.00369
C 31.80061 29.80056 -0.02474
C 33.019 30.4537 0.00594
C 33.12963 31.86839 -0.0136
C 31.82186 32.61074 -0.01429
C 29.48235 0.02644 -0.02383
C 30.68578 0.70996 0.01574
C 30.67416 2.15207 0.01927
C 29.53482 2.97075 0.03794
C 29.51916 4.36999 -0.01779
C 30.75756 5.0353 0.00682
C 30.79031 6.42608 0.00026
C 29.49475 7.17463 0.0544
C 33.22753 2.08042 0.0001
C 33.11984 0.62943 -0.02927
C 31.91753 34.00031 -0.01404
C 34.31682 32.55223 0.01027
C 1.16717 0.64091 -0.00468
C 1.14419 2.08969 -0.00939
C 34.38174 2.8623 -0.00931
C 34.34066 4.31098 -0.0345
C 1.18602 4.99481 0.00628
C 1.16995 6.46337 0.02931
C 34.38853 7.2261 -0.02849
C 34.37465 8.66503 -0.02302
C 1.1368 9.45999 -0.00583
C 1.11788 10.84706 -0.00027
C 34.2977 11.53773 -0.02442
C 34.21819 12.96852 -0.02656
C 1.11707 13.6395 0.00343
C 29.38455 8.64106 -0.02142
C 34.38427 15.60109 -0.02957
C 2.1682 19.11933 0.00648
C 0.65723 19.46934 0.01223
C 34.3963 20.96067 -0.01678
C 34.17595 22.29443 0.01951
C 33.90191 23.51822 -0.02213
C 34.36327 24.82486 0.02712
C 0.0256 26.1757 0.00723
C 0.96755 27.77138 0.03076
C 2.78717 28.406 -0.05239
C 34.05985 28.29127 -0.00598
C 34.2968 29.86 -0.00439
C 1.24126 30.44843 -0.01037
C 1.19942 31.90972 0.01831
C 34.2148 17.13445 0.02114
C 30.68454 9.35524 0.01428
C 30.55455 10.78382 -0.01694
C 29.30557 11.48973 0.01713
C 25.72918 10.68802 -0.00416
C 24.5087 11.52338 0.01699
C 24.4421 12.92343 0.01799
C 24.73924 32.63475 0.01259
C 22.24819 34.00722 0.01495
C 23.43975 0.6478 0.00235
C 23.43035 2.13764 0.01094
C 22.16472 2.84491 0.02198
C 22.13501 4.29046 0.02611
C 23.32145 5.02712 -0.00621
C 23.269 6.4536 0.00194
C 21.98807 7.22495 0.04185
C 22.05932 8.62912 0.02316
C 25.71023 9.27445 0.01177
C 23.24758 9.33095 0.01257
C 22.06172 11.54918 -0.00294
C 22.0523 12.96021 0.00826
C 23.29332 13.63563 0.00487
C 23.54281 31.90175 -0.00942
C 22.29548 32.57712 -0.02815
C 19.79687 34.01794 0.00622
C 20.96392 0.62971 -0.0032
C 20.94052 2.10263 -0.00037
C 19.71764 2.84699 -0.01654
C 19.61559 4.30251 -0.00218
C 20.8455 5.03149 -0.00802
C 20.78377 6.46375 0.00195
C 19.54741 7.1465 0.00996
C 23.24329 10.81609 0.00152
C 3.74272 32.05784 -0.01952
C 24.46313 8.58908 0.04266
C 25.77079 6.47181 0.0014
C 29.31408 12.88605 0.00346
C 30.50494 13.71311 0.00307
C 30.76268 15.11265 0.00716
C 30.8197 30.53408 0.02108
C 30.58783 31.89843 0.0103
C 29.39947 32.64319 0.07705
C 27.04912 0.03988 0.01908
C 28.32863 0.76169 0.01518
C 28.27747 2.24956 -0.00971
C 27.00356 2.85977 -0.03735
C 26.9796 4.33073 -0.00944
C 28.24176 5.07227 -0.02155
C 28.29596 6.48224 -0.01461
C 24.53401 7.13513 0.01324
C 26.98731 7.14607 -0.01303
C 28.13827 9.30186 0.01705
C 28.15317 10.70373 0.0101
C 26.90922 11.37315 -0.00669
C 26.85039 12.74261 0.03531
C 28.00064 13.39772 0.01836
C 28.21112 32.07099 -0.03039
C 26.96893 32.77188 -0.01415
C 24.74389 34.05841 -0.01854
C 25.87938 0.78284 -0.02049
C 25.8084 2.2213 0.03265
C 24.57935 2.83692 0.00261
C 24.57753 4.28041 0.02326
C 25.7561 5.07218 0.00924
C 26.95849 8.59024 -0.0405
C 2.47107 32.61495 0.05265
