351
Graphene
C 34.4311 0.069 0.01295
C 9.8641 15.62525 0.00228
C 11.10247 14.7946 0.00798
C 11.05668 13.42425 0.00422
C 9.81094 12.7548 0.0351
C 9.84442 11.33039 -0.03113
C 11.09292 10.64902 0.02098
C 11.07595 9.21535 0.01848
C 9.81876 8.64755 -0.00619
C 9.89448 17.02539 -0.00114
C 9.83119 7.25231 -0.02162
C 11.0042 5.06117 -0.00481
C 9.78833 4.33638 0.00979
C 9.7601 2.95309 0.01443
C 11.00297 2.15325 0.03505
C 10.97012 0.74477 -0.02815
C 9.82146 0.06152 -0.04147
C 12.27546 32.72458 -0.05302
C 13.57531 31.93209 0.00213
C 11.09883 6.44035 0.00889
C 13.68952 30.53661 -0.00066
C 11.22883 17.64254 -0.02696
C 9.84988 19.84553 -0.0108
C 8.66506 5.06475 0.0076
C 7.37115 4.33263 0.01241
C 7.29452 2.84728 -0.01454
C 8.51117 2.11334 0.01945
C 8.57976 0.73532 0.01416
C 7.36241 0.00118 0.03542
C 9.86019 32.73868 0.02299
C 11.05686 31.9665 0.00244
C 11.11502 19.0456 -0.00368
C 11.07755 30.54315 -0.01717
C 9.8308 28.42916 -0.01952
C 11.0227 27.80301 -0.02813
C 11.08825 26.39193 0.00374
C 9.81251 25.63874 0.00052
C 9.91227 24.16844 -0.03682
C 11.12724 23.42316 0.01965
C 11.21496 22.05733 0.02058
C 9.92339 21.27067 -0.01957
C 9.85444 29.8685 0.05265
C 8.57757 6.47243 0.02162
C 12.34963 29.89829 -0.00289
C 13.56342 27.87953 -0.02213
C 14.76459 32.7043 0.00364
C 15.96181 31.9893 -0.00831
C 16.03202 30.58564 -0.02957
C 14.98496 29.74912 -0.04422
C 14.56598 28.40463 0.00654
C 14.61189 15.84357 -0.00703
C 15.76189 14.92454 -0.04076
C 15.98703 13.50687 -0.00652
C 12.2332 34.05802 -0.017
C 14.70526 12.70213 0.0058
C 15.96591 10.61555 0.00675
C 15.95259 9.29011 -0.00311
C 14.70514 8.5359 0.00742
C 14.73883 7.11015 -0.01594
C 15.99077 6.39458 0.0106
C 15.94999 4.99686 -0.01154
C 14.68659 4.28341 -0.01721
C 14.68682 2.87647 -0.02422
C 14.73249 11.29125 -0.00865
C 12.26125 28.5004 0.00028
C 13.45922 0.70626 0.00143
C 12.21552 2.88517 -0.0054
C 12.31585 25.51773 0.03698
C 12.42857 24.37956 -0.00109
C 12.22252 21.13309 -0.00491
C 12.29825 19.98452 0.03338
C 13.901 17.32997 -0.0258
C 12.46108 16.88029 -0.0331
C 12.34455 15.50362 -0.00316
C 13.5662 14.8399 0.02188
C 13.44252 2.1878 0.00667
C 13.58961 13.42405 -0.01979
C 12.33875 11.42184 -0.01581
C 13.47034 10.60749 0.01452
C 13.47139 9.21283 0.04892
C 12.32505 8.51369 -0.00111
C 12.26581 7.14004 -0.03557
C 13.49258 6.37168 0.03754
C 13.4779 4.91917 0.01739
C 12.21716 4.25209 0.00755
C 12.31916 12.83354 0.02691
C 15.97421 2.13002 0.01277
C 7.32083 7.12013 -0.0014
C 8.60704 9.22466 -0.02162
C 2.36088 7.18755 0.01572
C 3.63824 6.43783 -0.04848
C 3.70289 4.95887 -0.00892
C 2.40244 4.27906 -0.01362
C 2.36084 2.8739 -0.0008
C 3.64644 2.11961 0.0288
C 3.62673 0.74341 0.00393
C 2.42076 0.04072 0.00895
C 2.33161 8.56406 -0.00095
C 4.83503 32.75767 0.00685
C 6.11476 30.59268 -0.00482
C 4.85285 29.83907 -0.01384
C 4.97009 28.41973 0.03693
C 6.12152 27.70096 0.01745
C 6.14909 26.28292 0.00488
C 4.86891 25.59552 -0.01004
C 4.83452 24.13997 -0.02896
C 6.11204 23.37994 -0.00131
C 6.06705 32.00208 0.02888
C 6.09526 21.96687 -0.01118
C 3.63844 9.22364 0.03007
C 2.48059 11.38181 -0.00494
C 3.6484 30.62441 0.01305
C 2.44546 29.91585 -0.00077
C 2.48557 28.49892 0.03368
C 3.73468 27.77612 -0.02929
C 3.60229 26.3125 -0.00966
C 2.33009 25.61715 -0.03337
C 2.3216 24.1605 0.01227
C 3.61455 23.50137 0.00873
C 3.69937 10.63301 0.00054
C 3.62601 22.08196 -0.00049
C 2.42112 19.87195 -0.01303
C 3.64656 19.1632 -0.01378
C 3.61987 17.71314 0.02635
C 2.33526 17.13118 0.0127
C 2.41721 15.67138 0.01396
C 3.56553 14.93882 0.01849
C 3.6218 13.51887 -0.01142
C 2.37218 12.79574 -0.00562
C 2.44126 21.29159 0.00848
C 7.32113 8.57552 0.00415
C 4.88508 21.29177 -0.014
C 6.05584 19.18442 0.00373
C 7.31324 28.50543 -0.01275
C 8.59418 27.80313 0.00985
C 8.5329 26.26949 -0.02245
C 7.31382 25.545 -0.00428
C 7.31398 24.19746 0.03101
C 8.61211 23.41823 -0.01536
C 8.65481 21.95915 -0.02689
C 7.35308 21.30687 -0.01046
C 7.37194 29.83217 -0.01111
C 7.37153 19.85302 -0.00891
C 8.65052 17.72341 0.00165
C 7.39387 17.05292 -0.02971
C 7.34016 15.63287 0.02894
C 8.52308 14.91993 -0.01789
C 8.61773 13.5019 0.00444
C 7.44197 12.79337 -0.00925
C 7.37805 11.434 0.01877
C 8.59278 10.67559 0.01363
C 8.5854 19.14202 0.02819
C 4.8509 19.83956 0.02147
C 8.61259 30.61353 0.02841
C 7.30799 32.67728 0.00406
C 6.11755 17.82276 -0.00191
C 4.88534 17.06425 0.00438
C 4.85165 15.57017 0.01291
C 6.14599 14.93748 0.00093
C 6.19312 13.55131 0.00057
C 4.8627 12.76637 -0.01634
C 4.88843 11.39086 -0.00334
C 6.10914 10.71379 0.02339
C 8.59935 31.97655 0.00943
C 6.22293 9.28632 0.01641
C 4.97367 7.09527 0.01364
C 6.09951 6.3834 -0.01062
C 6.14368 4.99522 -0.00033
C 4.88275 4.26871 0.03589
C 4.84403 2.82073 -0.02759
C 6.08994 2.11527 0.0402
C 6.09297 0.67969 0.00572
C 4.88733 0.02928 0.03592
C 4.97166 8.53034 -0.00719
C 3.69273 32.02015 0.0276
C 15.92497 0.74259 0.00096
C 17.11586 32.81441 0.01087
C 29.46586 0.0975 -0.01694
C 31.87283 32.66801 0.01428
C 33.15073 32.01179 -0.02142
C 33.10716 30.58533 0.0544
C 31.89395 29.83472 0.00026
C 31.93837 28.43679 0.00682
C 33.21187 27.76883 -0.01779
C 33.17453 26.37581 0.03794
C 30.61774 0.76073 0.01713
C 31.90412 25.59842 0.01927
C 33.059 23.49783 -0.02383
C 33.11143 22.06852 -0.01429
C 31.8295 21.36172 -0.0136
C 31.83731 19.93141 0.00594
C 33.08511 19.3214 -0.02474
C 33.11122 17.86219 0.00369
C 31.94005 17.1097 0.00455
C 32.01943 15.62572 -0.00644
C 31.79215 24.19029 0.01574
C 33.20957 14.97709 -0.01839
C 29.5177 8.49587 0.00346
C 30.73212 10.62087 0.00716
C 29.34026 29.91352 -0.03039
C 29.36666 28.47582 0.01836
C 30.70261 27.80394 0.03531
C 30.73421 26.45042 -0.00669
C 29.3312 25.73494 0.0101
C 29.33749 24.51182 0.01705
C 30.37702 23.51714 -0.0405
C 30.45647 22.0976 -0.01303
C 30.76031 9.17009 0.00307
C 29.42785 21.10536 -0.01461
C 30.61111 19.15169 -0.00944
C 30.64099 17.77878 -0.03735
C 29.46549 17.04999 -0.00971
C 29.48616 15.58697 0.01518
C 30.78527 14.89437 0.01908
C 30.83159 13.43905 0.07705
C 29.56151 12.83783 0.0103
C 29.54892 11.4299 0.02108
C 29.3578 19.90226 -0.02155
C 30.61651 30.57264 -0.01415
C 33.23618 13.52295 0.00137
C 31.98827 11.37989 0.04381
C 1.09257 19.28297 -0.01678
C 1.14998 17.84284 0.01223
C 34.37905 17.07501 0.00648
C 34.39021 15.60584 0.02114
C 1.20145 14.94631 -0.02957
C 1.24014 13.57421 0.00343
C 0.01983 12.79272 -0.02656
C 34.37011 11.41914 -0.02442
C 34.27843 19.95058 0.01951
C 1.18835 10.69576 -0.00027
C 34.35359 8.46268 -0.02302
C 34.2817 7.0165 -0.02849
C 1.12533 6.35467 0.02931
C 1.20938 4.93067 0.00628
C 34.42749 4.21863 -0.0345
C 0.00284 2.8485 -0.00931
C 1.19567 2.15296 -0.00939
C 1.18824 0.73213 -0.00468
C 1.07596 9.27172 -0.00583
C 32.04838 12.76685 0.00199
C 34.2967 21.32683 -0.02213
C 1.15367 23.4695 0.00723
C 33.19653 10.61438 0.02806
C 33.14279 9.2192 0.01504
C 31.93307 8.46855 -0.00069
C 31.92811 7.06526 0.04926
C 33.03823 6.1712 -0.03838
C 33.12312 4.83894 0.00349
C 33.17478 2.14235 -0.00323
C 33.1232 0.78548 -0.00841
C 1.12922 22.08794 0.02712
C 31.90414 0.04297 0.0001
C 1.24902 32.00991 -0.01404
C 1.18597 30.52139 0.01027
C 34.36729 29.83845 0.01831
C 0.02635 28.44891 -0.01037
C 1.29811 27.80037 -0.00439
C 1.17024 26.30909 -0.00598
C 34.34292 25.56733 -0.05239
C 34.34706 24.08775 0.03076
C 34.36364 32.72134 -0.02927
C 14.72792 34.04562 -0.01527
C 30.66415 31.99205 -0.01854
C 26.95849 0.02776 0.03265
C 20.93114 9.23435 -0.01971
C 19.70788 8.55287 -0.02118
C 19.67715 7.13108 0.00733
C 20.96574 6.40995 -0.00178
C 20.96422 4.96368 0.00768
C 19.68476 4.27678 -0.0276
C 19.68013 2.79063 0.03005
C 20.90966 2.0369 -0.04078
C 20.86076 10.68607 -0.01586
C 20.84165 0.56665 0.02117
C 22.11485 32.46272 -0.00498
C 23.35582 31.8296 0.00135
C 24.09723 30.61361 0.03102
C 23.42806 13.60872 0.02555
C 22.18978 12.88209 0.01423
C 22.14439 11.36381 -0.00285
C 23.43959 10.66136 -0.009
C 23.41991 9.20865 -0.01199
C 19.53908 33.96197 0.02737
C 22.19585 8.59671 -0.00229
C 19.54385 11.50676 -0.01107
C 20.95888 13.42716 -0.00225
C 18.21105 31.864 0.00199
C 17.63293 30.62911 0.01511
C 18.39815 13.50198 -0.00478
C 17.19582 12.83101 -0.01662
C 17.13001 11.34311 -0.01185
C 18.44403 10.67872 0.01126
C 18.40454 9.27884 0.01852
C 17.2047 8.56015 -0.00381
C 19.63074 12.95165 0.00071
C 17.26562 7.18087 0.03046
C 18.41887 4.97568 0.03374
C 17.16109 4.25045 -0.02845
C 17.21303 2.83361 -0.03213
C 18.43217 2.13599 0.02239
C 18.40573 0.71893 0.01153
C 17.18094 0.06284 0.02734
C 19.50963 32.50146 -0.0055
C 20.72202 31.93843 0.01515
C 18.4731 6.43142 0.0296
C 29.4507 32.73307 -0.02049
C 22.23174 7.15559 -0.00938
C 23.39348 4.94491 -0.01154
C 24.5324 0.01995 0.00194
C 26.91948 32.64082 -0.00621
C 28.16779 31.99429 0.02611
C 27.98739 30.54664 0.02198
C 26.5541 29.69748 0.01094
C 27.09975 28.37039 0.00235
C 28.22015 27.64871 0.01495
C 28.21608 17.66021 0.01259
C 25.75267 0.76381 0.04185
C 27.00204 15.63821 0.01799
C 28.31439 13.53683 -0.00416
C 27.12134 12.77257 0.01177
C 27.10276 11.32129 0.04266
C 28.28863 10.61325 0.01324
C 28.357 9.18713 0.0014
C 27.1261 8.49515 0.00924
C 27.04577 7.06762 0.02326
C 28.22039 0.64155 0.00261
C 28.21053 14.92629 0.01699
C 23.39048 6.42252 -0.0264
C 25.77274 2.17445 0.02316
C 24.61683 4.24949 0.00152
C 22.14302 4.20315 0.00684
C 22.14746 2.79028 -0.01052
C 23.39599 2.04971 -0.01679
C 23.33724 0.66609 0.00367
C 22.15193 33.90664 0.04306
C 24.50235 32.67931 0.00996
C 25.6982 32.01791 0.00195
C 25.42374 30.50594 -0.00802
C 24.56171 2.84985 0.01257
C 26.05469 14.86275 -0.00218
C 24.61939 12.79348 -0.00037
C 24.6593 11.40973 -0.0032
C 25.88109 10.61841 0.00622
C 25.96967 9.24812 -0.02815
C 24.71872 8.63822 -0.00942
C 24.67343 7.14593 0.00487
C 26.01092 6.23024 0.00826
C 25.87968 4.866 -0.00294
C 25.82555 13.47281 -0.01654
C 2.46805 32.73063 0.00988
