361
Graphene
C 0.01434 0.09943 0.01295
C 12.19696 24.07193 0.02058
C 13.5273 23.40124 -0.01957
C 13.54254 22.05606 -0.0108
C 12.23051 21.25701 -0.00368
C 12.46995 19.90997 -0.02696
C 13.49498 19.12641 -0.00114
C 13.44135 17.71901 0.00228
C 12.1512 17.03859 0.00798
C 12.25495 25.477 0.01965
C 12.36183 15.52231 0.00422
C 13.53422 13.46454 -0.03113
C 12.31123 12.80015 0.02098
C 12.36182 11.3803 0.01848
C 13.57384 10.70112 -0.00619
C 13.50762 9.20566 -0.02162
C 12.30242 8.49406 0.00889
C 12.31015 7.09366 -0.00481
C 13.50261 6.32603 0.00979
C 13.52342 14.92616 0.0351
C 13.46673 26.1825 -0.03682
C 13.54563 27.66688 0.00052
C 12.22878 28.33003 0.00374
C 11.07073 14.94902 -0.00925
C 11.06973 13.53994 0.01877
C 9.80436 12.82235 0.01363
C 9.8748 11.39587 -0.02162
C 11.14781 10.65661 0.00415
C 11.06464 9.21702 -0.0014
C 9.82836 8.52054 0.02162
C 9.80153 7.1385 0.0076
C 11.04699 6.42686 0.01241
C 11.09476 5.02197 -0.01454
C 9.89908 4.35031 0.01945
C 9.88703 2.8776 0.01416
C 11.10056 2.14699 0.03542
C 11.05255 0.72114 0.02299
C 9.83184 0.05765 0.00244
C 12.34719 32.66741 -0.01717
C 13.55609 31.93815 0.05265
C 13.53555 30.47396 -0.01952
C 12.28633 29.72671 -0.02813
C 13.54423 4.91644 0.01443
C 9.87669 15.70515 0.00444
C 12.27425 4.23863 0.03505
C 13.51127 2.1573 -0.04147
C 16.01135 10.74629 0.00755
C 15.86428 9.27969 -0.0054
C 14.6844 8.53198 0.00667
C 14.66348 7.08153 0.00143
C 15.93444 6.37565 -0.017
C 16.0013 4.89205 0.00364
C 14.75473 4.28017 -0.00831
C 14.75825 2.8411 -0.02957
C 14.7898 11.42424 0.01739
C 15.91886 2.08254 -0.04422
C 14.74271 0.06968 -0.00703
C 17.25567 32.61236 -0.04076
C 18.48576 31.89764 -0.00652
C 18.48795 30.50631 0.0058
C 17.27427 29.79266 -0.00865
C 17.22093 28.35064 0.00675
C 18.44115 27.6469 -0.00311
C 18.40404 26.24977 0.00742
C 16.04204 0.65606 0.00654
C 14.73782 12.77246 0.03754
C 15.96429 13.51262 -0.03557
C 15.91426 14.89155 -0.00111
C 13.53803 0.7655 -0.05302
C 12.35303 0.01222 0.00213
C 14.7921 32.67328 -0.00066
C 16.01544 31.91919 -0.00289
C 16.02183 30.48705 0.00028
C 14.76361 29.8511 -0.02213
C 14.76948 28.41434 0.03698
C 15.93504 27.71276 -0.00109
C 15.97854 26.27525 -0.00491
C 14.7382 25.5284 0.03338
C 14.72261 24.11844 -0.0258
C 15.97197 23.4115 -0.0331
C 15.99433 22.00745 -0.00316
C 14.76561 21.37607 0.02188
C 14.7482 19.94786 -0.01979
C 15.84367 19.1433 0.02691
C 16.08075 17.81498 -0.01581
C 14.66991 17.04674 0.01452
C 14.73189 15.64819 0.04892
C 12.29401 2.8437 -0.02815
C 10.9831 17.68274 -0.01789
C 11.08088 21.93195 0.02894
C 10.86254 23.27631 -0.02971
C 2.47809 4.27012 0.0127
C 2.48001 2.85077 0.01396
C 3.70012 2.14576 0.01849
C 3.71665 0.73326 -0.01142
C 2.5186 0.11401 -0.00562
C 4.88384 32.70257 -0.00494
C 6.14665 31.95719 0.00054
C 6.12818 30.54588 0.03007
C 3.65464 5.067 0.02635
C 4.87733 29.84299 -0.00095
C 6.12224 27.68877 -0.04848
C 6.07849 26.29598 -0.00892
C 4.93229 25.51347 -0.01362
C 4.75239 24.04681 -0.0008
C 4.8268 15.70387 0.0288
C 6.15082 15.05259 0.00393
C 6.1464 13.54139 0.00895
C 4.98142 12.79088 0.00685
C 4.93352 28.3756 0.01572
C 3.65299 6.43862 -0.01378
C 2.36579 7.15406 -0.01303
C 2.47811 8.57203 0.00848
C 3.62477 30.5498 -0.03113
C 2.42353 29.7923 -0.02566
C 2.45052 28.37337 -0.00094
C 3.70727 27.68308 0.02322
C 3.70293 26.30827 -0.00725
C 2.48929 25.52843 -0.05697
C 2.47153 24.09035 0.01087
C 3.70601 23.41263 -0.01343
C 2.41276 21.34425 0.00988
C 2.42669 20.12035 0.0276
C 3.76455 17.63594 0.01305
C 2.58373 17.0247 -0.00077
C 2.46923 15.55973 0.03368
C 3.73505 14.90616 -0.02929
C 3.6692 13.41887 -0.00966
C 2.46384 12.82531 -0.03337
C 2.38636 11.37029 0.01227
C 3.63488 10.71814 0.00873
C 3.6769 9.3148 -0.00049
C 4.94949 11.38833 0.02888
C 6.17997 10.65872 -0.00482
C 6.19767 9.20566 -0.01384
C 4.91329 8.5636 0.03693
C 8.60361 9.2034 -0.02759
C 7.39118 8.45578 0.0402
C 7.35571 7.0896 0.00572
C 8.60905 6.36597 0.03592
C 8.59962 4.96966 0.00406
C 7.40029 4.31987 0.00943
C 7.38873 2.87152 0.02841
C 8.63028 2.23965 -0.01111
C 8.66457 0.7697 -0.01275
C 7.39817 0.08021 0.00985
C 9.91157 32.72461 -0.02245
C 11.16791 31.90318 -0.00428
C 11.07147 30.44096 0.03101
C 9.76847 29.83575 -0.01536
C 9.78818 28.38055 -0.02689
C 10.98435 27.59661 -0.01046
C 11.03459 26.19616 -0.00891
C 9.82703 25.58358 0.02819
C 9.77234 24.20674 0.00165
C 8.64653 10.69363 0.03589
C 17.18058 25.56248 -0.01594
C 7.38527 11.34179 -0.00033
C 8.60702 13.53183 0.01364
C 4.89026 7.18776 0.01745
C 6.10121 6.38708 0.00488
C 6.19849 4.97339 -0.01004
C 4.92981 4.33357 -0.02896
C 4.92707 2.88066 -0.00131
C 6.1282 2.22011 -0.01118
C 6.20969 0.7428 -0.014
C 4.99658 34.07585 0.02147
C 7.36328 32.72482 0.00373
C 8.65075 32.02486 -0.00191
C 8.54084 30.63937 0.00438
C 7.3745 29.84029 0.01291
C 7.30651 28.43807 0.00093
C 8.51641 27.704 0.00057
C 8.62348 26.32342 -0.01634
C 7.35563 25.56652 -0.00334
C 7.34196 24.20797 0.02339
C 7.3613 15.69563 0.01641
C 8.5823 15.08783 -0.00719
C 7.35951 12.78002 -0.01062
C 3.64303 31.95227 0.017
C 17.20419 24.11439 0.0106
C 17.22125 16.89332 -0.01721
C 29.47431 2.88484 0.01713
C 30.66132 2.1977 -0.01694
C 30.7485 0.74 0.01428
C 29.56852 0.02659 -0.02142
C 31.90354 32.61852 0.0544
C 33.18277 31.96904 0.00026
C 33.20709 30.54547 0.00682
C 31.94914 29.83822 -0.01779
C 29.38914 4.32258 0.00346
C 31.9399 28.38987 0.03794
C 33.2602 26.28136 0.01574
C 31.97202 25.51605 -0.02383
C 31.95002 24.13506 -0.01429
C 33.17159 23.43641 -0.0136
C 33.20849 22.00876 0.00594
C 31.9137 21.28719 -0.02474
C 32.02401 19.96789 0.00369
C 33.12872 19.14256 0.00455
C 33.1154 27.68076 0.01927
C 30.61796 4.94175 0.00307
C 30.63145 6.34149 0.00716
C 29.54199 7.1212 0.02108
C 28.21385 4.98902 -0.01854
C 27.04303 4.19101 -0.01415
C 27.05672 2.76473 -0.03039
C 28.28912 2.11414 0.01836
C 28.35326 0.67004 0.03531
C 27.06217 0.0484 -0.00669
C 29.58788 32.65775 0.0101
C 30.74527 31.93674 0.01705
C 30.6884 30.55754 -0.0405
C 29.5062 29.86673 -0.01303
C 29.5769 28.41917 -0.01461
C 30.74209 27.66002 -0.02155
C 30.74805 26.26299 -0.00944
C 29.49981 25.57119 -0.03735
C 29.50985 24.17503 -0.00971
C 30.66629 23.449 0.01518
C 30.67741 21.9393 0.01908
C 29.36197 21.34225 0.07705
C 30.57698 8.95306 0.0103
C 33.22001 17.75488 -0.00644
C 28.27167 6.58988 -0.02049
C 33.2219 14.90121 -0.01839
C 33.15456 10.69021 0.00199
C 1.30468 19.15159 -0.01678
C 1.25493 17.75171 0.01223
C 34.42507 17.0858 0.00648
C 0.00154 15.62139 0.02114
C 1.27186 14.89631 -0.02957
C 1.15922 13.42734 0.00343
C 34.34505 12.80593 -0.02656
C 34.36933 11.33706 -0.02442
C 0.06711 19.82633 0.01951
C 1.20783 10.62905 -0.00027
C 0.01329 8.62596 -0.02302
C 34.40845 7.17325 -0.02849
C 1.22332 6.48526 0.02931
C 1.25908 5.00843 0.00628
C 0.03414 4.29461 -0.0345
C 34.37516 2.83189 -0.00931
C 1.18323 2.1731 -0.00939
C 1.21879 0.7808 -0.00468
C 1.2337 9.28031 -0.00583
C 34.42337 21.26922 -0.02213
C 1.19238 22.06827 0.02712
C 1.21424 23.45816 0.00723
C 33.14478 9.30104 0.04381
C 31.81843 8.47571 0.02806
C 31.94895 6.96876 0.01504
C 33.20015 6.40332 -0.00069
C 33.17326 4.98355 0.04926
C 31.91662 4.25944 -0.03838
C 31.90835 2.79755 0.00349
C 33.14488 2.13073 -0.00323
C 33.18959 0.70509 -0.00841
C 31.95929 0.00019 0.0001
C 34.40346 32.75029 -0.02927
C 1.17052 32.00669 -0.01404
C 1.18047 30.58583 0.01027
C 34.43196 29.83147 0.01831
C 34.39442 28.40309 -0.01037
C 1.21155 27.70844 -0.00439
C 1.25358 26.25407 -0.00598
C 0.05375 25.52845 -0.05239
C 0.01755 24.13202 0.03076
C 33.23739 13.67126 0.00137
C 27.0618 7.09539 0.03265
C 28.43552 22.0367 0.00261
C 28.25357 23.48797 0.02326
C 19.7002 25.53121 -0.00225
C 19.70736 23.97507 0.00071
C 21.01702 23.53889 -0.01107
C 19.71275 16.90523 -0.01586
C 19.49709 15.73 -0.01971
C 19.61304 11.37107 -0.02118
C 20.81222 9.27555 0.00733
C 19.61246 8.62668 -0.00178
C 20.8922 26.23297 0.01515
C 19.67712 7.09888 0.00768
C 20.90693 4.91922 0.03005
C 19.69569 4.23581 -0.04078
C 19.60687 2.786 0.02117
C 20.84009 2.09906 0.02737
C 20.83558 0.653 -0.00498
C 19.6827 33.99113 0.00135
C 22.11733 32.66499 0.03102
C 23.36101 31.95547 0.02555
C 20.90951 6.32908 -0.0276
C 20.87473 27.62936 -0.0055
C 19.69677 28.38781 0.02734
C 19.70305 29.79796 0.01153
C 17.24845 15.54966 -0.02422
C 18.54528 14.75353 0.01277
C 18.3901 13.42623 0.00096
C 17.16859 12.73397 -0.01527
C 17.19349 11.40665 0.01087
C 18.44626 10.671 0.00199
C 18.30243 9.22479 0.01511
C 17.07818 8.4951 -0.00478
C 17.15754 7.0692 -0.01662
C 18.46561 6.36119 -0.01185
C 18.41571 4.97069 0.01126
C 17.236 4.27811 0.01852
C 17.14164 2.83955 -0.00381
C 18.36094 2.11388 0.03046
C 18.42971 0.63898 0.0296
C 17.26228 34.00898 0.03374
C 19.75867 32.62514 -0.02845
C 20.95627 31.86394 -0.03213
C 20.94951 30.36906 0.02239
C 23.32172 30.50606 0.01423
C 22.13978 29.75006 -0.00285
C 22.09614 28.32492 -0.009
C 23.30352 27.6908 -0.01199
C 25.86677 23.27536 0.01257
C 26.09573 21.96172 0.02316
C 24.71964 7.0601 0.04185
C 25.88225 6.48123 0.00194
C 25.85088 4.92807 -0.00621
C 24.58687 4.28295 0.02611
C 24.57658 2.84916 0.02198
C 25.82342 2.14533 0.01094
C 25.80485 0.71093 0.00235
C 24.57964 0.0098 0.01495
C 27.08655 32.67115 0.01259
C 28.33237 31.99372 0.01799
C 28.26664 30.56981 0.01699
C 27.03454 29.81571 -0.00416
C 27.08459 28.37285 0.01177
C 28.30398 27.78916 0.04266
C 28.28268 26.32687 0.01324
C 27.01949 25.61065 0.0014
C 27.05975 24.18217 0.00924
C 24.62638 24.11453 0.00152
C 18.42104 23.44493 -0.01154
C 24.5853 25.5365 -0.00294
C 25.76183 27.71622 0.00487
C 23.4127 26.2948 -0.00229
C 22.12854 25.54014 -0.00938
C 22.22111 24.13203 -0.0264
C 23.41855 23.35817 -0.01154
C 23.22512 22.03393 0.00684
C 22.13059 21.33404 -0.01052
C 22.0712 7.05259 -0.01679
C 23.3878 6.49978 0.00367
C 23.32783 4.98112 0.04306
C 22.10878 4.2821 0.00996
C 22.03786 2.85155 0.00195
C 23.3202 2.13009 -0.00802
C 23.28154 0.67843 -0.00218
C 22.07098 34.04056 -0.01654
C 24.60842 32.65536 -0.00037
C 25.82411 31.88193 -0.0032
C 25.83537 30.47368 0.00622
C 24.49796 29.83773 -0.02815
C 24.50886 28.43864 -0.00942
C 25.80239 26.33559 0.00826
C 2.41978 32.77937 -0.00643
