338
Graphene
C 0.01736 0.03964 0.01295
C 11.05364 13.38241 0.00889
C 9.75339 12.9661 -0.00481
C 9.80804 2.83729 0.00979
C 11.08864 2.22337 0.01443
C 11.15648 0.76897 0.03505
C 9.86981 0.06565 -0.02815
C 12.26892 32.63238 -0.04147
C 13.48768 31.86329 -0.05302
C 13.51485 30.42474 0.00213
C 12.28529 29.77482 -0.00066
C 12.37426 28.36765 -0.00289
C 13.55787 27.63679 0.00028
C 13.60159 26.23577 -0.02213
C 12.39503 25.56743 0.03698
C 12.28806 24.22023 -0.00109
C 13.5236 23.37668 -0.00491
C 13.59196 21.88448 0.03338
C 10.99346 14.87488 -0.02162
C 12.32873 21.17409 -0.0258
C 9.76694 15.57279 -0.00619
C 11.03958 17.72958 0.02098
C 8.62388 2.15506 -0.01952
C 8.58294 0.71661 -0.02813
C 7.33329 0.0632 0.00374
C 9.88966 32.72482 0.00052
C 11.03612 31.94992 -0.03682
C 11.09201 30.55386 0.01965
C 9.88161 29.87238 0.02058
C 9.83058 28.40129 -0.01957
C 11.10913 27.70567 -0.0108
C 11.12661 26.3018 -0.00368
C 9.85493 25.69827 -0.02696
C 9.82714 24.22672 -0.00114
C 11.04116 23.46604 0.00228
C 11.1219 21.95322 0.00798
C 9.89184 21.25635 0.00422
C 9.8528 19.87551 0.0351
C 11.11775 19.15604 -0.03113
C 9.80628 17.00649 0.01848
C 7.38491 2.92811 0.05265
C 12.32766 19.82572 -0.0331
C 13.48361 17.76004 0.02188
C 14.75423 19.79183 -0.00652
C 15.98386 19.1177 0.0058
C 16.0167 17.7598 -0.00865
C 14.72206 17.11513 0.00675
C 14.706 15.71066 -0.00311
C 15.90564 14.92428 0.00742
C 15.97723 13.46793 -0.01594
C 14.69892 12.78096 0.0106
C 14.80938 11.42021 -0.01154
C 15.8759 10.59682 -0.01721
C 15.96436 9.22174 -0.02422
C 15.99466 6.405 0.01277
C 15.9777 5.02645 0.00096
C 14.81481 4.24488 -0.01527
C 14.76241 2.83245 0.01087
C 16.02453 2.13558 0.00199
C 16.02735 0.70728 0.01511
C 14.78942 21.20761 -0.04076
C 13.54789 19.11323 -0.00316
C 16.03262 22.01271 -0.00703
C 14.74582 24.08461 -0.04422
C 12.24745 17.04925 -0.01979
C 12.21942 15.5816 0.02691
C 13.43413 14.93999 -0.01581
C 13.45916 13.48929 0.01452
C 12.29155 12.87538 0.04892
C 12.31488 2.87962 -0.00111
C 13.51405 2.1681 -0.03557
C 13.51594 0.67765 0.03754
C 12.32529 0.00927 0.01739
C 14.74891 32.6776 0.00755
C 15.98451 32.01832 -0.0054
C 16.0213 30.55986 0.00667
C 14.76627 29.81093 0.00143
C 14.78978 28.36924 -0.017
C 15.98708 27.61254 0.00364
C 16.01349 26.24084 -0.00831
C 14.83092 25.53836 -0.02957
C 15.95587 23.35499 0.00654
C 7.28971 4.23523 -0.01717
C 7.29806 11.46876 0.00244
C 7.32765 12.80005 0.02299
C 2.35119 8.52534 0.03693
C 2.42987 7.11811 0.01745
C 3.71747 6.36835 0.00488
C 3.65038 4.9622 -0.01004
C 2.39204 4.16825 -0.02896
C 2.44742 2.76022 -0.00131
C 3.67931 2.10683 -0.01118
C 3.72815 0.66112 -0.014
C 2.49527 34.02458 0.02147
C 4.97362 32.70197 0.00373
C 6.19413 31.96109 -0.00191
C 6.08359 30.55414 0.00438
C 4.94644 29.8121 0.01291
C 4.908 28.42806 0.00093
C 6.14367 27.74369 0.00057
C 6.17242 26.22617 -0.01634
C 4.84522 25.59194 -0.00334
C 3.62976 9.2692 -0.01384
C 4.85365 24.15462 0.02339
C 3.67744 10.64103 -0.00482
C 2.50964 12.80105 0.00685
C 3.69322 30.51419 0.0127
C 2.47285 29.85646 0.01396
C 2.47012 28.40727 0.01849
C 3.66239 27.73878 -0.01142
C 3.64877 26.36511 -0.00562
C 2.45012 25.58971 -0.00494
C 2.40753 24.0942 0.00054
C 3.64781 23.4391 0.03007
C 3.64561 22.01947 -0.00095
C 2.49051 21.26075 0.01572
C 2.5478 19.88721 -0.04848
C 3.66128 19.11575 -0.00892
C 3.73086 17.70918 -0.01362
C 2.4439 17.01184 -0.0008
C 2.3655 15.6182 0.0288
C 3.6308 14.99057 0.00393
C 3.69709 13.55594 0.00895
C 2.46451 11.37668 0.02888
C 6.11892 23.43734 0.01641
C 6.13335 22.01103 -0.00719
C 4.90057 21.2345 0.01364
C 8.63507 30.49899 -0.02971
C 7.33733 29.851 0.02894
C 7.33141 28.43074 -0.01789
C 8.54834 27.77661 0.00444
C 8.61202 26.35082 -0.00925
C 7.41665 25.54497 0.01877
C 7.38571 24.0879 0.01363
C 8.64333 23.46397 -0.02162
C 8.68427 22.04573 0.00415
C 7.4105 21.33082 -0.0014
C 7.35145 19.86126 0.02162
C 8.5757 19.13199 0.0076
C 8.60268 17.6735 0.01241
C 7.34238 17.04218 -0.01454
C 7.36189 15.60563 0.01945
C 8.56408 14.94386 0.01416
C 8.59504 13.59309 0.03542
C 8.62807 31.92615 0.00165
C 7.37317 32.71368 0.02819
C 4.96959 0.05089 -0.00891
C 6.14122 0.7995 -0.01046
C 4.84887 19.74992 -0.01062
C 6.12382 19.13331 -0.00033
C 6.10504 17.72266 0.03589
C 4.89573 16.99861 -0.02759
C 4.89443 15.60603 0.0402
C 6.12158 14.94345 0.00572
C 6.13975 13.48719 0.03592
C 4.93547 12.75979 0.00406
C 14.77321 0.01389 -0.00478
C 4.89498 11.37449 0.00943
C 6.12219 9.27461 -0.01111
C 4.90622 8.519 -0.01275
C 4.9571 7.11842 0.00985
C 6.16614 6.47851 -0.02245
C 6.20443 5.05262 -0.00428
C 4.8425 4.29073 0.03101
C 4.95047 2.87461 -0.01536
C 6.18658 2.24093 -0.02689
C 6.20546 10.63652 0.02841
C 17.21336 32.73043 -0.01662
C 18.43711 31.97398 -0.01185
C 18.34613 30.51822 0.01126
C 30.7315 0.75258 -0.02142
C 29.41855 0.02557 0.0544
C 31.99347 32.70856 0.00026
C 33.21943 31.94922 0.00682
C 33.23052 30.53443 -0.01779
C 31.94237 29.87741 0.03794
C 31.9457 28.47966 0.01927
C 33.19919 27.74772 0.01574
C 33.11288 26.2473 -0.02383
C 31.89204 25.68846 -0.01429
C 33.25924 23.28241 -0.0136
C 33.29038 22.11964 0.00594
C 33.17267 17.87867 -0.02474
C 31.97106 15.58929 0.00369
C 33.21656 14.99983 0.00455
C 33.2182 13.44719 -0.00644
C 31.9706 12.81693 -0.01839
C 30.67355 2.14922 0.01428
C 31.94913 11.40242 0.00137
C 29.44504 2.8762 -0.01694
C 30.66429 4.97026 0.00346
C 28.17016 0.69865 -0.00669
C 26.95686 33.95458 0.0101
C 29.49884 32.71901 0.01705
C 30.67906 32.00232 -0.0405
C 30.73358 30.60687 -0.01303
C 29.51732 29.79194 -0.01461
C 29.43385 28.32593 -0.02155
C 30.69219 27.74712 -0.00944
C 30.87629 26.2949 -0.03735
C 30.67608 13.52533 -0.00971
C 29.60098 12.84498 0.01518
C 29.47228 11.37544 0.01908
C 30.70333 10.68581 0.07705
C 30.71895 9.29822 0.0103
C 29.54953 8.44187 0.02108
C 29.57806 7.04801 0.00716
C 30.78361 6.33656 0.00307
C 29.45034 4.28644 0.01713
C 33.207 10.68967 0.00199
C 33.23248 9.20378 0.04381
C 31.9253 8.54965 0.02806
C 1.24963 17.77651 0.01223
C 34.34324 17.17266 0.00648
C 0.08472 15.66865 0.02114
C 1.21866 14.83815 -0.02957
C 1.25457 13.42459 0.00343
C 0.03128 12.80474 -0.02656
C 0.00464 11.35999 -0.02442
C 1.22347 10.61259 -0.00027
C 1.1523 9.23257 -0.00583
C 34.42875 8.44995 -0.02302
C 34.36659 7.0358 -0.02849
C 1.18073 6.38578 0.02931
C 1.1737 4.94716 0.00628
C 34.37728 4.27956 -0.0345
C 0.00614 2.84425 -0.00931
C 1.2219 2.06036 -0.00939
C 1.26342 0.68204 -0.00468
C 1.25693 19.17445 -0.01678
C 0.09188 19.79697 0.01951
C 34.32429 21.14475 -0.02213
C 1.22114 21.93169 0.02712
C 32.00642 7.06065 0.01504
C 33.16816 6.33825 -0.00069
C 33.16295 4.95505 0.04926
C 31.92072 4.27665 -0.03838
C 31.93216 2.84329 0.00349
C 33.20836 2.21292 -0.00323
C 33.25317 0.80375 -0.00841
C 32.00701 0.06401 0.0001
C 28.28118 2.12432 0.03531
C 34.43192 32.68784 -0.02927
C 1.24658 30.5595 0.01027
C 0.0612 29.8475 0.01831
C 0.04941 28.38202 -0.01037
C 1.24788 27.71489 -0.00439
C 1.22642 26.26624 -0.00598
C 34.42913 25.59853 -0.05239
C 34.42091 24.22128 0.03076
C 1.15379 23.36129 0.00723
C 1.19557 31.92347 -0.01404
C 3.6901 31.96432 0.02635
C 27.08801 2.87023 0.01836
C 28.25752 4.96341 -0.01415
C 17.14101 7.09869 -0.0276
C 18.30457 6.34399 0.03005
C 18.46056 4.99755 -0.04078
C 17.18305 4.21659 0.02117
C 17.21719 2.84822 0.02737
C 18.41985 2.16657 -0.00498
C 18.46648 0.73254 0.00135
C 17.235 0.04074 0.03102
C 19.60446 32.71004 0.02555
C 19.53004 28.47626 0.01423
C 20.88345 26.30762 -0.00285
C 19.77532 25.48402 -0.009
C 19.69249 24.11379 -0.01199
C 19.57813 17.07327 -0.00229
C 19.72659 15.75084 -0.00938
C 20.89028 14.95778 -0.0264
C 20.86137 13.57661 -0.01154
C 17.12708 8.5681 0.00768
C 19.72179 12.77253 0.00684
C 18.46385 9.18869 -0.00178
C 17.23316 11.37204 -0.02118
C 17.23928 29.81727 0.01852
C 17.13334 28.38573 -0.00381
C 18.41321 27.7736 0.03046
C 18.4026 26.31113 0.0296
C 17.26741 25.53408 0.03374
C 17.16848 24.09637 -0.02845
C 18.45169 23.42475 -0.03213
C 18.39458 21.99041 0.02239
C 17.24871 21.28077 0.01153
C 17.25291 19.88821 0.02734
C 18.33059 19.18039 -0.0055
C 18.45799 17.81702 0.01515
C 17.17264 17.01373 -0.00225
C 17.20281 15.57056 0.00071
C 18.47071 14.91079 -0.01107
C 18.49003 13.50604 -0.01586
C 17.25033 12.7525 -0.01971
C 18.44323 10.56638 0.00733
C 19.70064 11.31231 -0.01052
C 20.90799 10.6123 -0.01679
C 20.83178 9.19695 0.00367
C 24.63135 4.18163 0.01094
C 24.61759 2.82317 0.00235
C 25.87394 2.16942 0.01495
C 25.67472 0.6544 0.01259
C 24.50548 0.00927 0.01799
C 27.02508 32.60737 0.01699
C 28.15872 31.88158 -0.00416
C 28.40615 30.48554 0.01177
C 27.10603 28.42206 0.04266
C 28.17299 27.77374 0.01324
C 26.9158 12.64527 0.0014
C 27.08655 11.34848 0.00924
C 28.29856 10.59635 0.02326
C 28.36358 9.14859 0.00261
C 27.13368 8.43179 0.03265
C 27.03581 7.06524 -0.02049
C 28.29913 6.34311 -0.01854
C 25.81238 4.91925 0.02198
C 25.78845 6.33387 0.02611
C 24.54472 8.62603 -0.00621
C 25.87844 9.13047 0.00194
C 19.80339 8.45972 0.04306
C 19.55923 4.18714 0.00996
C 19.69958 2.8667 0.00195
C 20.97945 2.18791 -0.00802
C 20.95873 0.64036 -0.00218
C 19.71297 34.06272 -0.01654
C 23.42512 13.4165 -0.00037
C 22.10839 12.83313 -0.0032
C 27.06284 4.19326 -0.03039
C 22.17874 11.4301 0.00622
C 23.47476 9.25662 -0.00942
C 22.20099 2.84508 0.00487
C 23.39089 2.13554 0.00826
C 23.31374 0.57298 -0.00294
C 22.1035 0.07043 0.00152
C 24.47876 12.87113 0.01257
C 24.60047 11.41208 0.02316
C 25.79538 10.62142 0.04185
C 23.33074 10.68103 -0.02815
C 2.45033 32.58296 -0.01378
