402
Graphene
C 34.43133 0.00317 0.01295
C 15.88893 17.85724 0.02819
C 14.71154 17.08392 0.00165
C 14.68314 15.67462 -0.02971
C 15.90097 14.90395 0.02894
C 15.99532 13.50603 -0.01789
C 14.90454 12.69472 0.00444
C 14.73508 11.37971 -0.00925
C 15.80161 10.6101 0.01877
C 15.93984 9.20427 0.01363
C 14.69851 8.43726 -0.02162
C 14.78643 7.02528 0.00415
C 16.03729 6.34838 -0.0014
C 16.09261 4.97371 0.02162
C 14.80391 4.23668 0.0076
C 14.78238 2.82862 0.01241
C 15.97541 2.10353 -0.01454
C 15.99356 0.73304 0.01945
C 14.81964 34.0589 0.01416
C 17.21313 32.68032 0.03542
C 18.48629 31.93199 0.02299
C 18.43631 30.44599 0.00244
C 15.9362 19.29572 -0.00891
C 17.18591 29.76663 -0.01717
C 14.75564 19.98051 -0.01046
C 15.9432 22.0803 -0.01536
C 13.49106 19.24205 -0.00334
C 13.52238 17.84102 0.02339
C 12.36253 17.10588 0.01641
C 13.40837 15.09816 -0.00719
C 13.63328 6.31593 0.01364
C 13.59629 4.9844 -0.01062
C 12.3337 4.30206 -0.00033
C 12.26374 2.9428 0.03589
C 13.50921 2.15763 -0.02759
C 13.50443 0.8006 0.0402
C 12.25138 0.04667 0.00572
C 14.77155 32.59342 0.03592
C 16.00806 31.93075 0.00406
C 15.99434 30.49605 0.00943
C 14.74571 29.87884 0.02841
C 14.73699 28.40431 -0.01111
C 16.00629 27.71877 -0.01275
C 15.99473 26.21954 0.00985
C 14.70249 25.58162 -0.02245
C 14.7251 24.20099 -0.00428
C 16.01218 23.51799 0.03101
C 14.75511 21.34833 -0.02689
C 12.21858 19.93291 -0.01634
C 17.22693 28.34883 0.05265
C 18.54621 26.26344 -0.02813
C 19.68522 32.69958 -0.04147
C 20.88526 32.03762 -0.05302
C 20.86295 30.59291 0.00213
C 19.65821 29.82408 -0.00066
C 19.6499 28.42481 -0.00289
C 20.91084 27.66814 0.00028
C 20.97462 26.28322 -0.02213
C 19.76956 25.56506 0.03698
C 19.69131 24.08577 -0.00109
C 20.87021 23.39165 -0.00491
C 20.87078 21.99673 0.03338
C 19.69305 21.23594 -0.0258
C 19.67981 19.81974 -0.0331
C 20.8868 19.1511 -0.00316
C 20.89272 17.73079 0.02188
C 19.64567 17.05439 -0.01979
C 19.59765 15.66188 0.02691
C 20.87024 14.96133 -0.01581
C 20.85725 13.51711 0.01452
C 19.64755 12.74298 0.04892
C 19.63143 11.363 -0.00111
C 17.19443 34.07565 -0.02815
C 18.45112 27.67554 -0.01952
C 18.42343 0.67216 0.03505
C 17.18564 2.81693 0.00979
C 17.31784 25.55821 0.00374
C 17.26204 24.15861 0.00052
C 18.52886 23.41923 -0.03682
C 18.42849 21.96416 0.01965
C 17.15225 21.2912 0.02058
C 17.15434 19.92581 -0.01957
C 18.42347 19.18868 -0.0108
C 18.37419 17.78396 -0.00368
C 17.13128 17.06762 -0.02696
C 17.16855 15.62461 -0.00114
C 18.37201 14.85661 0.00228
C 18.41234 13.4056 0.00798
C 17.18707 12.71124 0.00422
C 17.09794 11.26672 0.0351
C 18.3375 10.61068 -0.03113
C 18.41656 9.19511 0.02098
C 17.23495 8.47094 0.01848
C 17.27506 7.03948 -0.00619
C 18.5332 6.37908 -0.02162
C 18.5543 4.97003 0.00889
C 17.29449 4.22643 -0.00481
C 18.46923 2.14502 0.01443
C 12.24263 21.30619 0.00057
C 13.50605 22.10103 0.00093
C 13.47389 23.5429 0.01291
C 6.00502 31.94388 0.03267
C 6.03029 30.58962 0.02374
C 4.8118 29.86939 0.00402
C 4.85696 28.45269 0.0073
C 6.071 27.75725 0.0174
C 6.03682 26.33963 0.03828
C 4.85113 25.65328 0.01226
C 4.89606 24.30126 -0.00279
C 6.12738 23.47697 0.01996
C 6.14078 22.03937 -0.03996
C 4.89438 21.26558 0.01465
C 4.88153 19.86134 -0.00074
C 6.1444 19.22938 -0.00518
C 6.03853 17.87435 0.0086
C 4.91657 17.02753 -0.00643
C 6.10082 4.99927 0.017
C 4.93477 4.30584 -0.03113
C 4.95032 2.897 -0.02566
C 6.14372 2.17758 -0.00094
C 6.13818 0.67022 0.02322
C 4.86446 34.06597 -0.00725
C 4.76815 32.71067 -0.01509
C 7.26943 32.58771 -0.05697
C 2.35613 0.01728 0.00643
C 3.7013 2.17288 0.02379
C 3.55487 30.56943 0.02728
C 2.35316 29.81983 -0.00039
C 2.40307 28.37595 0.0064
C 3.69435 27.72229 0.00211
C 3.65219 26.30961 -0.00449
C 2.46745 25.57732 -0.01979
C 2.49841 24.18551 0.02784
C 3.72963 23.50357 -0.01977
C 3.68273 22.0365 -0.00561
C 2.48382 21.25246 0.00208
C 2.42723 19.78207 0.01707
C 3.6757 19.12346 0.02769
C 3.72901 17.68005 -0.03291
C 2.43928 17.04016 -0.04999
C 2.48978 15.63632 0.04505
C 2.33445 8.46931 0.03284
C 2.56104 7.16948 -0.04307
C 3.781 6.38116 0.03189
C 3.74383 5.01888 0.00031
C 2.48193 4.29395 -0.003
C 2.46011 2.88162 0.01402
C 3.61335 0.7349 0.00907
C 8.54574 31.93021 0.01087
C 8.54948 30.51121 -0.01343
C 7.27965 29.82751 0.00988
C 11.00419 23.4519 -0.01362
C 10.95924 22.04744 -0.0008
C 9.78778 21.23624 0.0288
C 9.80543 19.83942 0.00393
C 11.03483 19.17884 0.00895
C 11.08485 17.75312 0.00685
C 11.16394 5.08761 0.02888
C 9.87523 4.41529 -0.00482
C 9.76076 2.93813 -0.01384
C 11.0245 2.26654 0.03693
C 10.97071 0.74623 0.01745
C 9.71392 0.04371 0.00488
C 12.32618 32.70524 -0.01004
C 13.54833 31.95333 -0.02896
C 13.51187 30.57432 -0.00131
C 12.21581 29.94162 -0.01118
C 12.23021 28.53033 -0.014
C 13.48034 27.73498 0.02147
C 13.51307 26.27411 0.00373
C 12.26778 25.60448 -0.00191
C 12.30764 24.20215 0.00438
C 9.80192 24.19533 -0.00892
C 9.82551 25.65133 -0.04848
C 11.07867 26.35438 0.01572
C 11.08035 27.74907 -0.00095
C 7.29665 28.41684 0.0276
C 8.54368 27.71794 0.01305
C 8.60732 26.28689 -0.00077
C 7.35538 25.64687 0.03368
C 7.31631 24.19167 -0.02929
C 8.53006 23.52155 -0.00966
C 8.5716 22.04846 -0.03337
C 7.37051 21.33117 0.01227
C 7.35545 19.92765 0.00873
C 8.54895 19.15262 -0.00049
C 20.86367 10.63413 -0.03557
C 8.41036 17.7591 0.00848
C 7.35636 4.46673 -0.01378
C 7.40157 2.92025 0.02635
C 8.58944 2.2157 0.0127
C 8.54732 0.7055 0.01396
C 7.35099 34.02468 0.01849
C 9.7786 32.69787 -0.01142
C 11.03099 32.03848 -0.00562
C 10.96647 30.64678 -0.00494
C 9.79566 29.83791 0.00054
C 9.79101 28.39106 0.03007
C 8.63825 4.96254 -0.01303
C 20.92802 9.2124 0.03754
C 19.68021 8.52705 0.01739
C 19.74042 7.10877 0.00755
C 29.4312 8.52539 -0.00971
C 29.42743 7.0981 0.01518
C 30.67397 6.40595 0.01908
C 30.72337 4.94652 0.07705
C 29.47079 4.22649 0.0103
C 29.51811 2.83184 0.02108
C 30.76351 2.1089 0.00716
C 30.81523 0.70572 0.00307
C 29.60082 34.07866 0.00346
C 31.95644 32.66806 0.01713
C 33.21652 31.94679 -0.01694
C 33.2187 30.45687 0.01428
C 31.99316 29.72161 -0.02142
C 31.9843 28.34554 0.0544
C 33.1707 27.64741 0.00026
C 33.21278 26.21352 0.00682
C 32.00363 25.52589 -0.01779
C 31.96903 24.15278 0.03794
C 33.2242 23.3812 0.01927
C 33.18132 21.986 0.01574
C 32.00315 21.32388 -0.02383
C 30.67864 9.24909 -0.03735
C 31.90633 19.86411 -0.01429
C 30.7039 10.61256 -0.00944
C 29.5004 12.75761 -0.01461
C 28.31587 0.69646 0.01699
C 27.08179 0.00763 -0.00416
C 29.57326 32.65398 0.01177
C 30.82695 31.89965 0.04266
C 30.78114 30.51129 0.01324
C 29.56307 29.78436 0.0014
C 29.48882 28.33671 0.00924
C 30.76509 27.65258 0.02326
C 30.75664 26.2815 0.00261
C 29.50503 25.59204 0.03265
C 29.41991 24.12462 -0.02049
C 30.68025 23.45471 -0.01854
C 30.66921 22.02072 -0.01415
C 29.41624 21.33345 -0.03039
C 29.43404 19.91542 0.01836
C 30.64066 19.22371 0.03531
C 30.68141 17.75827 -0.00669
C 29.42789 17.05128 0.0101
C 29.46204 15.61199 0.01705
C 30.69886 14.86495 -0.0405
C 30.73437 13.44345 -0.01303
C 29.44275 11.34253 -0.02155
C 33.11094 19.0769 -0.0136
C 33.11658 17.70536 0.00594
C 31.90406 17.08422 -0.02474
C 1.27179 22.04818 0.02712
C 34.42545 21.31271 -0.02213
C 34.40904 19.85124 0.01951
C 1.22795 19.13346 -0.01678
C 1.17086 17.71433 0.01223
C 34.43117 17.01692 0.00648
C 34.43231 15.62281 0.02114
C 1.39135 14.81032 -0.02957
C 1.09199 13.52718 0.00343
C 34.34471 12.81645 -0.02656
C 34.33028 11.4516 -0.02442
C 1.01405 10.67427 -0.00027
C 1.25903 9.28991 -0.00583
C 34.39263 8.47856 -0.02302
C 34.38529 7.10427 -0.02849
C 1.2561 6.43696 0.02931
C 1.27249 4.98198 0.00628
C 0.00647 4.28643 -0.0345
C 0.02814 2.90925 -0.00931
C 1.29071 2.18981 -0.00939
C 1.20565 0.75338 -0.00468
C 1.29573 23.45144 0.00723
C 34.42842 24.04796 0.03076
C 34.41802 25.49021 -0.05239
C 1.19685 26.25186 -0.00598
C 31.89717 15.57951 0.00369
C 33.16373 14.88492 0.00455
C 33.16604 13.50296 -0.00644
C 31.92386 12.80154 -0.01839
C 31.9282 11.35687 0.00137
C 33.14671 10.62868 0.00199
C 33.14406 9.18895 0.04381
C 31.89115 8.48949 0.02806
C 31.90261 7.11528 0.01504
C 33.15068 6.44419 -0.00069
C 28.32068 2.09084 0.01799
C 33.14832 5.00683 0.04926
C 32.01787 2.87994 0.00349
C 33.23505 2.19049 -0.00323
C 33.1973 0.74017 -0.00841
C 32.02143 0.01738 0.0001
C 34.40968 32.64126 -0.02927
C 1.17666 31.93372 -0.01404
C 1.16707 30.47373 0.01027
C 34.42129 29.747 0.01831
C 34.36982 28.37361 -0.01037
C 1.19767 27.65426 -0.00439
C 31.95311 4.24305 -0.03838
C 3.61013 31.9723 0.00245
C 27.14126 2.82758 0.01259
C 28.32716 4.96243 0.00235
C 23.33875 13.47713 0.01087
C 22.05754 12.84203 0.00199
C 22.0895 11.40653 0.01511
C 23.39294 10.61079 -0.00478
C 23.36912 9.2065 -0.01662
C 22.14866 8.488 -0.01185
C 22.19423 7.02484 0.01126
C 23.38885 6.3469 0.01852
C 23.47539 4.93358 -0.00381
C 22.20409 4.22396 0.03046
C 22.14553 2.84841 0.0296
C 23.3358 2.10879 0.03374
C 23.42107 0.68811 -0.02845
C 22.12335 0.00585 -0.03213
C 24.62306 32.65888 0.02239
C 25.87906 31.93743 0.01153
C 25.86888 30.48807 0.02734
C 24.6612 29.84488 -0.0055
C 24.64693 28.43113 0.01515
C 25.87923 27.65948 -0.00225
C 25.83124 26.26183 0.00071
C 23.33462 14.94938 -0.01527
C 24.59052 25.57814 -0.01107
C 22.0601 15.65335 0.00096
C 23.34873 17.71642 -0.02422
C 20.99012 6.32733 -0.0054
C 20.9444 4.95648 0.00667
C 19.77745 4.2856 0.00143
C 19.68629 2.91046 -0.017
C 20.89954 2.18269 0.00364
C 20.8623 0.72472 -0.00831
C 19.62556 0.0187 -0.02957
C 22.12708 32.71151 -0.04422
C 23.40447 32.02207 0.00654
C 23.37581 30.57068 -0.00703
C 22.12582 29.90122 -0.04076
C 22.12013 28.46104 -0.00652
C 23.357 27.73977 0.0058
C 23.37123 26.28287 -0.00865
C 22.18225 25.55858 0.00675
C 22.08271 24.13614 -0.00311
C 23.31431 23.46162 0.00742
C 23.33405 21.99774 -0.01594
C 22.08136 21.24889 0.0106
C 22.12913 19.85602 -0.01154
C 23.39128 19.11628 -0.01721
C 22.09429 17.0659 0.01277
C 24.56139 24.18111 -0.01586
C 25.71485 23.42165 -0.01971
C 25.73106 22.00356 -0.02118
C 28.2872 27.63209 0.00195
C 28.23812 26.2236 -0.00802
C 27.02377 25.49186 -0.00218
C 26.94725 24.06616 -0.01654
C 28.20295 23.42795 -0.00037
C 28.17867 22.05301 -0.0032
C 26.97201 21.31012 0.00622
C 27.00172 19.8793 -0.02815
C 28.23224 19.22128 -0.00942
C 28.22959 17.7668 0.00487
C 27.05726 16.98902 0.00826
C 27.05172 15.62426 -0.00294
C 28.27677 14.93518 0.00152
C 28.35014 13.55726 0.01257
C 27.0408 12.76917 0.02316
C 26.97898 11.33838 0.04185
C 28.18819 10.66292 0.00194
C 28.24857 9.28759 -0.00621
C 27.01141 8.54983 0.02611
C 27.00005 7.03843 0.02198
C 28.25948 6.33287 0.01094
C 27.08939 28.3668 0.00996
C 27.14542 29.79532 0.04306
C 28.31999 30.50322 0.00367
C 28.4173 31.92918 -0.01679
C 24.48869 21.32037 0.00733
C 24.64608 19.84405 -0.00178
C 25.81002 19.07965 0.00768
C 25.83266 17.68231 -0.0276
C 24.58183 17.00111 0.03005
C 24.59048 15.55241 -0.04078
C 25.82235 14.86944 0.02117
C 25.77788 13.44138 0.02737
C 24.52048 12.70745 -0.00498
C 24.57411 11.28324 0.00135
C 27.08752 4.25012 0.01495
C 25.81487 10.65933 0.03102
C 24.60259 8.53156 0.01423
C 24.61274 7.05159 -0.00285
C 25.80018 6.34402 -0.009
C 25.89916 4.92255 -0.01199
C 24.6607 4.23373 -0.00229
C 24.68169 2.76409 -0.00938
C 25.86889 2.04991 -0.0264
C 25.87044 0.6339 -0.01154
C 24.60222 33.97929 0.00684
C 27.07175 32.64143 -0.01052
C 25.75551 9.28027 0.02555
C 2.38461 32.67336 0.00081
