384
Graphene
C 34.42166 0.08105 0.01295
C 13.48141 6.40462 0.02162
C 13.48857 4.96816 0.0076
C 12.25436 4.31789 0.01241
C 12.32405 2.9331 -0.01454
C 13.54768 2.16339 0.01945
C 13.54643 0.71372 0.01416
C 12.38354 34.07979 0.03542
C 14.71197 32.61645 0.02299
C 15.97277 31.97606 0.00244
C 12.3486 7.16555 -0.0014
C 15.98751 30.38747 -0.01717
C 15.98034 13.38941 -0.01952
C 14.73238 12.89967 -0.02813
C 14.71947 11.41007 0.00374
C 16.03794 10.63597 0.00052
C 15.91183 9.19098 -0.03682
C 14.71067 8.48532 0.01965
C 14.83226 7.03965 0.02058
C 16.02847 6.32345 -0.01957
C 15.96401 4.88554 -0.0108
C 14.77649 29.97754 0.05265
C 14.64242 4.36602 -0.00368
C 12.33028 8.55972 0.00415
C 13.57683 10.67795 0.01363
C 9.89952 12.89614 0.00943
C 9.85653 11.39642 0.02841
C 11.10558 10.72405 -0.01111
C 11.02077 9.26069 -0.01275
C 9.80378 8.54224 0.00985
C 9.86621 7.1396 -0.02245
C 11.1103 6.45445 -0.00428
C 11.04662 5.01364 0.03101
C 9.88487 4.29475 -0.01536
C 13.50311 9.27152 -0.02162
C 9.89229 2.87191 -0.02689
C 11.09173 0.7489 -0.00891
C 9.84372 0.08896 0.02819
C 12.314 32.62592 0.00165
C 13.54489 31.89567 -0.02971
C 13.50831 30.38186 0.02894
C 12.218 29.82873 -0.01789
C 13.52432 13.4092 0.00444
C 12.28726 12.81903 -0.00925
C 12.25867 11.41825 0.01877
C 11.13122 2.10861 -0.01046
C 11.13344 13.63084 0.00406
C 14.76336 2.88822 -0.02696
C 15.93716 0.75619 0.00228
C 20.94921 30.43019 0.03338
C 19.62559 29.78482 -0.0258
C 19.64404 28.31569 -0.0331
C 20.87036 27.60019 -0.00316
C 20.95193 26.23373 0.02188
C 20.94314 17.75393 -0.01979
C 19.77697 15.53163 0.02691
C 20.99943 14.9532 -0.01581
C 20.96635 13.49522 0.01452
C 20.90444 31.83799 -0.00491
C 19.64613 12.85223 0.04892
C 20.88384 10.62452 -0.03557
C 20.84816 9.12317 0.03754
C 19.58703 8.45421 0.01739
C 19.7021 7.02394 0.00755
C 20.94991 6.34959 -0.0054
C 20.88837 4.88044 0.00667
C 19.61396 4.2625 0.00143
C 19.57936 2.84943 -0.017
C 20.88116 2.11343 0.00364
C 19.66213 11.32263 -0.00111
C 15.93426 2.19395 -0.00114
C 19.69569 32.67314 -0.00109
C 18.36273 0.68351 -0.02213
C 14.73669 0.00107 0.00798
C 17.22649 32.62932 0.00422
C 18.42735 31.96434 0.0351
C 18.42866 30.50247 -0.03113
C 17.22604 29.69497 0.02098
C 17.25099 28.32338 0.01848
C 18.41859 27.79604 -0.00619
C 18.64085 14.91491 -0.02162
C 18.41222 13.58493 0.00889
C 17.17064 0.02391 0.03698
C 17.2466 12.77346 -0.00481
C 18.43784 10.62631 0.01443
C 18.43835 9.22904 0.03505
C 17.18091 8.4978 -0.02815
C 17.22386 7.0377 -0.04147
C 18.48691 6.26424 -0.05302
C 18.34036 4.92698 0.00213
C 17.16028 4.17782 -0.00066
C 17.14923 2.7964 -0.00289
C 18.37954 2.09782 0.00028
C 17.24211 11.37558 0.00979
C 20.85609 0.71607 -0.00831
C 10.97276 14.92597 0.03592
C 9.92799 28.39175 0.0402
C 3.61381 4.9824 -0.02566
C 2.41873 4.2864 -0.00094
C 2.49517 2.89993 0.02322
C 3.65339 2.21611 -0.00725
C 3.62617 0.70125 -0.05697
C 2.40858 0.01251 0.01087
C 4.8443 32.74322 -0.01343
C 6.10439 32.05083 0.00988
C 6.14909 30.59183 0.0276
C 3.61387 6.42212 -0.03113
C 4.88529 29.90218 0.01305
C 6.08554 27.72401 0.03368
C 6.02695 26.36254 -0.02929
C 4.92414 25.57543 -0.00966
C 4.88567 24.18172 -0.03337
C 6.23259 23.40015 0.01227
C 6.00541 21.97771 0.00873
C 4.86027 21.29749 -0.00049
C 5.01802 19.89205 0.00848
C 6.25033 19.27684 -0.01303
C 4.89525 28.4734 -0.00077
C 6.35516 17.86899 -0.01378
C 2.3909 7.05583 0.017
C 3.63923 9.21867 0.0086
C 3.6508 30.55562 0.00031
C 2.46025 29.81427 -0.003
C 2.44863 28.43832 0.01402
C 3.69589 27.6903 0.02379
C 3.59462 26.29701 0.00907
C 2.46815 25.53536 0.00643
C 2.35655 24.10326 -0.01509
C 3.69951 23.49716 0.03267
C 3.59447 21.98528 0.02374
C 2.41221 8.49623 -0.00643
C 2.3925 21.27161 0.00402
C 3.75658 19.11242 0.0174
C 3.7739 17.81721 0.03828
C 2.48407 17.08835 0.01226
C 2.48302 15.64822 -0.00279
C 3.6818 14.94174 0.01996
C 3.64666 13.51373 -0.03996
C 2.44988 12.75986 0.01465
C 2.43845 11.30946 -0.00074
C 3.62104 10.60559 -0.00518
C 2.49861 19.87792 0.0073
C 9.86195 15.65848 0.00572
C 5.02159 17.11012 0.02635
C 6.16841 14.99289 0.01396
C 7.42075 15.6497 -0.00131
C 8.6375 15.0137 -0.01118
C 8.62706 13.50304 -0.014
C 7.35505 12.79846 0.02147
C 7.33389 11.31164 0.00373
C 8.61389 10.60327 -0.00191
C 8.57204 9.26026 0.00438
C 7.35434 8.47745 0.01291
C 7.36873 7.07709 0.00093
C 7.43479 16.9302 -0.02896
C 8.62174 6.452 0.00057
C 7.33549 4.31637 -0.00334
C 7.36673 2.88173 0.02339
C 8.58979 2.13889 0.01641
C 8.61335 0.75215 -0.00719
C 7.39416 0.01484 0.01364
C 9.89569 32.72599 -0.01062
C 11.13833 32.00259 -0.00033
C 11.1208 30.54297 0.03589
C 9.8679 29.75545 -0.02759
C 8.60622 4.94026 -0.01634
C 4.92894 15.71008 0.0127
C 7.33511 24.1761 -0.01004
C 8.37121 26.40783 0.01745
C 6.1275 13.48496 0.01849
C 4.83704 12.80784 -0.01142
C 4.92727 11.40953 -0.00562
C 6.06959 10.65078 -0.00494
C 6.11322 9.24153 0.00054
C 4.87052 8.56852 0.03007
C 4.86915 7.12036 -0.00095
C 6.14238 6.43278 0.01572
C 6.11183 5.07408 -0.04848
C 7.39744 25.58609 0.00488
C 4.86881 4.31049 -0.00892
C 6.15477 2.15203 -0.0008
C 6.11567 0.73623 0.0288
C 4.87633 0.00484 0.00393
C 7.40385 32.69497 0.00895
C 8.64943 31.97227 0.00685
C 8.64045 30.56107 0.02888
C 7.36294 29.86297 -0.00482
C 7.36307 28.49509 -0.01384
C 8.68621 27.72712 0.03693
C 4.92014 2.86063 -0.01362
C 19.70853 34.03512 -0.02957
C 22.11824 32.56893 -0.04422
C 23.29768 31.9068 0.00654
C 29.42197 4.3077 0.0103
C 29.47333 2.85349 0.02108
C 30.70399 2.17157 0.00716
C 30.68226 0.75761 0.00307
C 29.45849 0.01539 0.00346
C 31.98679 32.63497 0.01713
C 33.1918 32.00794 -0.01694
C 33.20868 30.53903 0.01428
C 31.96943 29.88378 -0.02142
C 30.70939 4.9503 0.07705
C 31.87582 28.42904 0.0544
C 33.1544 26.33005 0.00682
C 31.93737 25.54159 -0.01779
C 31.99485 24.09753 0.03794
C 33.21219 23.46234 0.01927
C 33.1611 22.02674 0.01574
C 31.91225 21.31765 -0.02383
C 31.96338 19.90366 -0.01429
C 33.21268 19.16728 -0.0136
C 33.31453 17.74467 0.00594
C 33.10682 27.73376 0.00026
C 32.00634 16.99681 -0.02474
C 30.69927 6.4172 0.01908
C 29.49818 8.50377 -0.00971
C 29.53311 29.88408 0.0014
C 29.51989 28.43566 0.00924
C 30.669 27.69863 0.02326
C 30.75375 26.17947 0.00261
C 29.43625 25.50597 0.03265
C 29.44761 24.1227 -0.02049
C 30.72108 23.37695 -0.01854
C 30.69475 22.00411 -0.01415
C 29.44037 21.24688 -0.03039
C 29.46757 7.04638 0.01518
C 29.50021 19.91542 0.01836
C 30.77894 17.77919 -0.00669
C 29.5942 17.01447 0.0101
C 29.58025 15.60701 0.01705
C 30.77824 14.8815 -0.0405
C 30.78996 13.3989 -0.01303
C 29.52327 12.73112 -0.01461
C 29.58059 11.34479 -0.02155
C 30.74246 10.67498 -0.00944
C 30.72225 9.20187 -0.03735
C 30.79155 19.17357 0.03531
C 30.75662 30.55905 0.01324
C 31.97105 15.63269 0.00369
C 33.20544 13.50421 -0.00644
C 34.3694 21.24983 -0.02213
C 34.40362 19.8649 0.01951
C 1.23825 19.1965 -0.01678
C 1.2764 17.76868 0.01223
C 0.0637 17.06187 0.00648
C 0.02519 15.64605 0.02114
C 1.26503 14.94356 -0.02957
C 1.26852 13.52761 0.00343
C 0.02086 12.84071 -0.02656
C 1.17668 21.9586 0.02712
C 0.02804 11.40038 -0.02442
C 1.18881 9.25897 -0.00583
C 34.38016 8.50241 -0.02302
C 34.36943 7.11309 -0.02849
C 1.16466 6.36389 0.02931
C 1.13108 4.95357 0.00628
C 34.33013 4.21183 -0.0345
C 34.31399 2.79162 -0.00931
C 1.21102 2.19568 -0.00939
C 1.19393 0.81433 -0.00468
C 1.17749 10.62728 -0.00027
C 33.16812 14.95094 0.00455
C 1.20966 23.36131 0.00723
C 34.38948 25.61594 -0.05239
C 32.06528 12.74331 -0.01839
C 31.98039 11.39976 0.00137
C 33.23021 10.66132 0.00199
C 33.26188 9.22038 0.04381
C 31.95126 8.59104 0.02806
C 31.91879 7.12397 0.01504
C 33.10084 6.4107 -0.00069
C 33.14957 5.00932 0.04926
C 31.93947 4.2607 -0.03838
C 0.00759 24.18396 0.03076
C 31.93699 2.84057 0.00349
C 33.14553 0.66428 -0.00841
C 31.91664 34.0362 0.0001
C 0.01063 32.76307 -0.02927
C 1.18803 31.94011 -0.01404
C 1.2006 30.55583 0.01027
C 34.4269 29.81802 0.01831
C 34.40841 28.37888 -0.01037
C 1.21213 27.7364 -0.00439
C 1.17514 26.28185 -0.00598
C 33.1448 2.05548 -0.00323
C 30.77036 32.00646 0.04266
C 29.53754 32.68888 0.01177
C 26.94063 34.06953 -0.00416
C 23.36589 4.91525 -0.00381
C 22.08918 4.25384 0.03046
C 22.12232 2.81563 0.0296
C 23.33362 2.07709 0.03374
C 23.36772 0.68597 -0.02845
C 22.11119 0.00153 -0.03213
C 24.53706 32.55209 0.02239
C 25.80391 31.93777 0.01153
C 25.81931 30.54763 0.02734
C 23.4497 6.35872 0.01852
C 24.57441 29.8511 -0.0055
C 25.75772 27.67395 -0.00225
C 25.75887 26.24754 0.00071
C 24.57906 25.48363 -0.01107
C 24.5822 24.03664 -0.01586
C 25.76892 23.35963 -0.01971
C 25.79186 21.95288 -0.02118
C 24.57526 21.219 0.00733
C 24.49187 19.86342 -0.00178
C 25.82539 19.13078 0.00768
C 24.49563 28.45243 0.01515
C 25.82099 17.73167 -0.0276
C 22.19307 7.06179 0.01126
C 23.38535 9.20563 -0.01662
C 23.33298 30.49993 -0.00703
C 22.09393 29.72494 -0.04076
C 22.09809 28.28058 -0.00652
C 23.33138 27.61652 0.0058
C 23.39246 26.23941 -0.00865
C 22.05808 25.42978 0.00675
C 22.12238 24.05474 -0.00311
C 23.3105 23.44053 0.00742
C 23.28995 22.08405 -0.01594
C 22.15408 8.45933 -0.01185
C 22.24613 21.28482 0.0106
C 23.1893 19.17015 -0.01721
C 23.36499 17.78336 -0.02422
C 22.08862 17.12288 0.01277
C 22.23415 15.67551 0.00096
C 23.43413 14.91684 -0.01527
C 23.37946 13.50049 0.01087
C 22.16469 12.78213 0.00199
C 22.19642 11.27614 0.01511
C 23.4052 10.62126 -0.00478
C 22.09778 19.98651 -0.01154
C 24.59447 17.09177 0.03005
C 24.63088 15.69476 -0.04078
C 25.87187 14.96368 0.02117
C 27.02094 21.28793 0.00622
C 27.0145 19.88758 -0.02815
C 28.29163 19.15939 -0.00942
C 28.34319 17.81661 0.00487
C 27.10756 17.01328 0.00826
C 27.13867 15.62116 -0.00294
C 28.34718 14.9079 0.00152
C 28.36915 13.48757 0.01257
C 27.03688 12.81081 0.02316
C 28.19428 21.99045 -0.0032
C 27.0862 11.38742 0.04185
C 28.31161 9.19909 -0.00621
C 27.08242 8.52879 0.02611
C 27.07727 7.17584 0.02198
C 28.25544 6.38818 0.01094
C 28.18386 4.99005 0.00235
C 26.98184 4.25357 0.01495
C 27.05268 2.80844 0.01259
C 28.20797 2.0721 0.01799
C 28.23276 0.65654 0.01699
C 28.3523 10.63963 0.00194
C 28.18355 23.40019 -0.00037
C 26.99923 24.17666 -0.01654
C 26.95264 25.555 -0.00218
C 25.80192 13.52728 0.02737
C 24.58933 12.7772 -0.00498
C 24.66881 11.30854 0.00135
C 25.91304 10.66571 0.03102
C 25.85224 9.17975 0.02555
C 24.60645 8.47601 0.01423
C 24.66803 7.08617 -0.00285
C 25.83449 6.40013 -0.009
C 25.74061 5.02424 -0.01199
C 24.5757 4.23774 -0.00229
C 24.57177 2.80851 -0.00938
C 25.80746 2.11154 -0.0264
C 25.75075 0.70066 -0.01154
C 24.55662 34.05237 0.00684
C 27.04649 32.63643 -0.01052
C 28.28764 31.95224 -0.01679
C 28.28368 30.50353 0.00367
C 27.01075 29.81844 0.04306
C 26.99744 28.33785 0.00996
C 28.2666 27.69878 0.00195
C 28.24507 26.23747 -0.00802
C 3.6414 32.07003 0.03189
C 2.39311 32.74124 -0.04307
