377
Graphene
C 34.38577 34.0545 0.01295
C 11.09388 6.46961 0.03542
C 11.03957 4.98718 0.02299
C 9.81524 4.30805 0.00244
C 9.89828 2.89321 -0.01717
C 11.06824 2.11324 0.05265
C 11.08469 0.72357 -0.01952
C 9.8371 0.05518 -0.02813
C 12.21243 32.62633 0.00374
C 13.45851 31.9161 0.00052
C 13.51263 30.4523 -0.03682
C 12.28523 29.77791 0.01965
C 12.38188 28.41833 0.02058
C 13.65499 27.63877 -0.01957
C 13.59263 26.19768 -0.0108
C 12.33667 25.57502 -0.00368
C 12.36904 24.18288 -0.02696
C 13.52185 23.28814 -0.00114
C 12.05527 21.10596 0.00228
C 12.42331 19.94032 0.00798
C 9.87308 7.08769 0.01416
C 9.84604 8.48399 0.01945
C 11.0468 9.28886 -0.01454
C 11.07194 10.67562 0.01241
C 10.98976 31.97967 -0.00428
C 11.09612 30.59638 0.03101
C 9.89264 29.92778 -0.01536
C 9.91062 28.48631 -0.02689
C 11.08997 27.71474 -0.01046
C 11.03075 26.33352 -0.00891
C 9.82682 25.65161 0.02819
C 9.83728 24.23374 0.00165
C 11.09822 23.5163 -0.02971
C 12.17803 15.7501 0.00422
C 11.13487 22.12968 0.02894
C 9.9979 19.88215 0.00444
C 11.29074 19.05743 -0.00925
C 11.16053 17.64983 0.01877
C 9.90386 17.02244 0.01363
C 9.77278 15.63503 -0.02162
C 11.08829 14.89188 0.00415
C 11.05414 13.47559 -0.0014
C 9.82998 12.76533 0.02162
C 9.75151 11.37669 0.0076
C 9.91872 21.31076 -0.01789
C 9.71169 32.70637 -0.02245
C 13.66185 13.45011 0.0351
C 12.28351 11.38607 0.02098
C 14.76187 7.10421 -0.01979
C 15.9697 6.34161 0.02691
C 15.95079 4.9138 -0.01581
C 14.71378 4.24575 0.01452
C 14.71539 2.87796 0.04892
C 15.95619 2.09607 -0.00111
C 16.03362 0.69607 -0.03557
C 14.71428 34.0662 0.03754
C 17.22623 32.61965 0.01739
C 18.49987 31.93409 0.00755
C 18.42491 30.46717 -0.0054
C 17.21713 29.7804 0.00667
C 17.21598 28.37717 0.00143
C 18.49395 27.62147 -0.017
C 18.43739 26.05464 0.00364
C 17.17345 25.48439 -0.00831
C 17.15615 11.25906 -0.02957
C 18.44083 10.81039 -0.04422
C 18.39083 9.21389 0.00654
C 14.71735 8.53861 0.02188
C 15.89829 9.29096 -0.00316
C 15.91745 10.88506 -0.0331
C 14.6159 11.46691 -0.0258
C 13.50455 10.70307 0.01848
C 13.487 9.24046 -0.00619
C 12.2974 8.53282 -0.02162
C 12.35192 7.13012 0.00889
C 13.54883 6.42537 -0.00481
C 13.53758 5.00408 0.00979
C 12.2663 4.25231 0.01443
C 12.35538 2.85592 0.03505
C 13.53582 2.1132 -0.02815
C 12.40975 12.88385 -0.03113
C 13.51809 0.65672 -0.04147
C 14.6661 32.61658 0.00213
C 15.98147 31.97056 -0.00066
C 15.97156 30.52924 -0.00289
C 14.75345 29.78827 0.00028
C 14.81609 28.37407 -0.02213
C 16.02148 27.60755 0.03698
C 16.03022 26.17918 -0.00109
C 14.8078 25.40591 -0.00491
C 14.52338 24.02994 0.03338
C 12.28732 34.02089 -0.05302
C 7.30206 0.03851 0.00985
C 8.54228 0.68497 -0.01275
C 8.66058 2.15992 -0.01111
C 3.65531 5.00676 0.00988
C 2.44212 4.24398 0.0276
C 2.41223 2.79553 0.01305
C 3.6616 2.16755 -0.00077
C 3.66378 0.72665 0.03368
C 2.44834 0.05999 -0.02929
C 4.82521 32.65451 -0.00966
C 6.08602 31.98533 -0.03337
C 6.17667 30.59153 0.01227
C 4.96334 29.83034 0.00873
C 4.93561 28.42303 -0.00049
C 6.18177 27.73269 0.00848
C 6.18407 26.24053 -0.01303
C 4.92225 25.60935 -0.01378
C 4.8588 24.23205 0.02635
C 6.09825 23.45333 0.0127
C 6.09338 22.07288 0.01396
C 4.89143 21.27297 0.01849
C 4.95675 19.87114 -0.01142
C 3.70247 6.43286 -0.01343
C 2.38232 7.06173 0.01087
C 2.43614 8.46746 -0.05697
C 3.67423 9.28125 -0.00725
C 3.69137 30.53175 0.03267
C 2.45214 29.80432 0.02374
C 2.33645 28.4401 0.00402
C 3.65415 27.76743 0.0073
C 3.72528 26.36408 0.0174
C 2.4849 25.59377 0.03828
C 2.43723 24.10922 0.01226
C 3.72137 23.35702 -0.00279
C 3.59764 21.94426 0.01996
C 6.23819 19.14993 -0.00562
C 2.34868 21.27096 -0.03996
C 3.67528 19.21571 -0.00074
C 3.67679 17.82296 -0.00518
C 2.44292 17.10549 0.0086
C 2.48796 15.64441 -0.00643
C 3.70184 14.9331 0.017
C 3.66377 13.50912 -0.03113
C 2.46806 12.80674 -0.02566
C 2.44224 11.39623 -0.00094
C 3.65774 10.71984 0.02322
C 2.40297 19.90863 0.01465
C 6.19233 17.71972 -0.00494
C 4.85626 17.03208 0.00054
C 4.89499 15.62867 0.03007
C 8.5869 23.4925 0.00438
C 8.67998 22.04168 0.01291
C 7.38429 21.34113 0.00093
C 7.44085 19.88929 0.00057
C 8.71049 19.14002 -0.01634
C 8.66511 17.67826 -0.00334
C 7.40659 16.99884 0.02339
C 7.32977 15.56723 0.01641
C 8.55423 14.87529 -0.00719
C 7.35433 24.13879 -0.00191
C 8.57353 13.48854 0.01364
C 7.35334 11.4047 -0.00033
C 8.58499 10.65161 0.03589
C 8.54649 9.28526 -0.02759
C 7.3116 8.5628 0.0402
C 7.36926 7.16946 0.00572
C 8.58088 6.38665 0.03592
C 8.59875 4.9984 0.00406
C 7.35156 4.31009 0.00943
C 7.40184 2.83702 0.02841
C 7.34947 12.79836 -0.01062
C 17.10598 8.6359 -0.00703
C 7.40066 25.54326 0.00373
C 8.67887 27.74333 -0.014
C 6.12663 14.94419 -0.00095
C 6.16707 13.54213 0.01572
C 4.99351 12.85561 -0.04848
C 4.85771 11.4609 -0.00892
C 6.10463 10.73714 -0.01362
C 6.12806 9.29453 -0.0008
C 4.87352 8.52483 0.0288
C 4.91246 7.1198 0.00393
C 6.13988 6.4357 0.00895
C 8.65846 26.31396 0.02147
C 6.12675 4.97526 0.00685
C 4.86013 2.91731 -0.00482
C 6.15184 2.20152 -0.01384
C 6.07332 0.72713 0.03693
C 4.86207 0.05217 0.01745
C 7.27027 32.71225 0.00488
C 8.57139 31.99736 -0.01004
C 8.64911 30.59841 -0.02896
C 7.36013 29.83189 -0.00131
C 7.38664 28.4764 -0.01118
C 4.85475 4.36458 0.02888
C 3.70503 31.89838 -0.01509
C 17.09093 7.14795 -0.04076
C 18.29854 4.97334 0.0058
C 30.62017 6.37923 0.00716
C 30.66827 4.98005 0.00307
C 29.48322 4.31422 0.00346
C 29.49112 2.835 0.01713
C 30.70511 2.17154 -0.01694
C 30.66614 0.71052 0.01428
C 29.49893 0.0119 -0.02142
C 32.04648 32.68902 0.0544
C 33.13703 32.07825 0.00026
C 33.17448 26.26992 0.00682
C 32.11347 25.63265 -0.01779
C 31.94335 24.19464 0.03794
C 33.18891 23.52547 0.01927
C 33.14208 22.0624 0.01574
C 31.9318 21.32 -0.02383
C 31.98218 19.90216 -0.01429
C 33.22463 19.13006 -0.0136
C 33.23204 17.71269 0.00594
C 31.98172 17.00871 -0.02474
C 29.40149 7.13857 0.02108
C 29.46319 8.57128 0.0103
C 30.69676 9.23651 0.07705
C 30.75322 10.6408 0.01908
C 28.20391 6.43177 0.02326
C 28.27585 4.97257 0.00261
C 27.08681 4.21804 0.03265
C 27.07012 2.82182 -0.02049
C 28.32669 2.09947 -0.01854
C 28.34108 0.66301 -0.01415
C 27.01918 0.00621 -0.03039
C 29.5323 24.17651 0.01836
C 30.69883 23.49365 0.03531
C 31.98678 15.65728 0.00369
C 30.69135 22.02551 -0.00669
C 29.51781 19.88471 0.01705
C 30.74078 19.18995 -0.0405
C 30.72275 17.77112 -0.01303
C 29.53715 17.02829 -0.01461
C 29.63042 15.63794 -0.02155
C 30.79484 14.87288 -0.00944
C 30.74008 13.43543 -0.03735
C 29.53981 12.77994 -0.00971
C 29.50251 11.30492 0.01518
C 29.47666 21.30465 0.0101
C 26.96666 7.06478 0.00924
C 33.18734 14.9362 0.00455
C 32.04828 12.79573 -0.01839
C 34.41129 19.8497 0.01951
C 1.15937 19.14533 -0.01678
C 1.25579 17.83366 0.01223
C 0.04458 17.07495 0.00648
C 0.02668 15.65967 0.02114
C 1.24215 14.97949 -0.02957
C 1.2886 13.55146 0.00343
C 0.03684 12.81861 -0.02656
C 0.00636 11.36278 -0.02442
C 1.24683 10.66466 -0.00027
C 1.25389 9.23569 -0.00583
C 0.02087 8.57825 -0.02302
C 34.42361 7.11981 -0.02849
C 1.20298 6.36365 0.02931
C 1.20719 4.90889 0.00628
C 34.42256 4.21774 -0.0345
C 34.3772 2.82098 -0.00931
C 1.20441 2.07551 -0.00939
C 1.222 0.66159 -0.00468
C 34.3443 21.29513 -0.02213
C 1.1337 21.95237 0.02712
C 1.17091 23.4512 0.00723
C 34.41933 24.23891 0.03076
C 31.98351 11.39495 0.00137
C 33.21142 10.67534 0.00199
C 33.17151 9.20918 0.04381
C 31.89556 8.50719 0.02806
C 31.8848 7.03197 0.01504
C 33.18224 6.41777 -0.00069
C 33.19532 4.98882 0.04926
C 31.9299 4.3198 -0.03838
C 31.91783 2.84186 0.00349
C 33.24435 13.50177 -0.00644
C 33.174 2.16811 -0.00323
C 31.91322 34.05145 0.0001
C 34.41954 32.65411 -0.02927
C 1.21448 31.96115 -0.01404
C 1.21775 30.58039 0.01027
C 0.11458 29.67982 0.01831
C 34.4048 28.4959 -0.01037
C 1.12354 27.7137 -0.00439
C 1.24964 26.29478 -0.00598
C 0.01592 25.66608 -0.05239
C 33.16683 0.75197 -0.00841
C 26.97358 8.48296 0.0014
C 28.24616 9.22226 0.01324
C 28.24489 10.63263 0.04266
C 19.73604 34.0332 -0.02845
C 22.10144 32.60473 -0.03213
C 23.31853 31.87712 0.02239
C 23.28617 30.52295 0.01153
C 22.17051 29.8174 0.02734
C 22.1896 28.35336 -0.0055
C 23.33138 27.63229 0.01515
C 23.41122 26.23207 -0.00225
C 22.20219 25.42613 0.00071
C 22.31686 24.07342 -0.01107
C 23.28754 23.3805 -0.01586
C 22.14988 11.30592 -0.01971
C 23.32716 10.65904 -0.02118
C 23.38727 9.20285 0.00733
C 22.13941 8.56479 -0.00178
C 22.10146 7.10242 0.00768
C 23.26549 6.30395 -0.0276
C 23.27635 4.93936 0.03005
C 22.09178 4.24717 -0.04078
C 20.99819 0.68003 0.03374
C 20.91616 2.10826 0.0296
C 19.66951 2.83541 0.03046
C 19.60163 4.28274 -0.00381
C 17.19214 4.21001 -0.00865
C 17.20204 2.75402 0.00675
C 18.51437 2.05019 -0.00311
C 18.51715 0.65609 0.00742
C 17.25533 0.05705 -0.01594
C 19.68037 32.62685 0.0106
C 20.86756 31.8021 -0.01154
C 20.87801 30.41949 -0.01721
C 19.70134 29.69881 -0.02422
C 22.1725 2.77277 0.02117
C 19.6788 28.31398 0.01277
C 20.93524 26.16483 -0.01527
C 19.72963 25.5397 0.01087
C 19.69584 11.25718 0.00199
C 20.90433 10.72497 0.01511
C 20.93833 9.20183 -0.00478
C 19.64935 8.52355 -0.01662
C 19.63958 7.10504 -0.01185
C 20.83171 6.3971 0.01126
C 20.84798 4.96949 0.01852
C 20.9622 27.62923 0.00096
C 23.36651 2.16309 0.02737
C 23.33601 0.70336 -0.00498
C 22.14511 34.03108 0.00135
C 24.51686 4.31144 -0.00942
C 24.59992 2.92701 0.00487
C 25.84204 2.13272 0.00826
C 25.81632 0.73016 -0.00294
C 24.5838 0.02275 0.00152
C 26.8798 32.70076 0.01257
C 26.99448 25.56369 0.02316
C 27.03767 24.20657 0.04185
C 28.31473 23.51414 0.00194
C 25.81427 4.89109 -0.02815
C 28.29108 22.0366 -0.00621
C 27.10732 19.92933 0.02198
C 28.26122 19.11965 0.01094
C 28.29799 17.69416 0.00235
C 26.99318 16.9862 0.01495
C 27.09419 15.57363 0.01259
C 28.35939 14.90214 0.01799
C 28.32049 13.51891 0.01699
C 27.01595 12.80016 -0.00416
C 27.04715 11.36654 0.01177
C 27.09404 21.32425 0.02611
C 18.34785 6.41229 -0.00652
C 25.80035 6.2616 0.00622
C 24.575 8.45626 -0.00037
C 24.51664 32.67359 0.03102
C 25.88293 31.86557 0.02555
C 25.71129 30.42384 0.01423
C 24.54242 29.81552 -0.00285
C 24.52801 28.40468 -0.009
C 25.70421 27.75074 -0.01199
C 25.95333 26.34595 -0.00229
C 24.56681 25.50751 -0.00938
C 24.60986 24.08744 -0.0264
C 24.47021 6.99901 -0.0032
C 25.8065 23.49234 -0.01154
C 24.64494 21.332 -0.01052
C 25.90214 19.25065 -0.01679
C 26.09217 17.94769 0.00367
C 25.89128 14.84644 0.04306
C 25.67367 13.51859 0.00996
C 24.54628 12.71696 0.00195
C 24.49118 11.32894 -0.00802
C 25.78277 10.61293 -0.00218
C 25.77203 9.21164 -0.01654
C 25.72826 22.01658 0.00684
C 2.44145 32.6406 0.00643
