423
Graphene
C 34.39931 34.01284 0.01295
C 13.52455 13.54574 0.03592
C 12.30238 12.83696 0.00406
C 12.2734 11.41136 0.00943
C 13.52182 10.69305 0.02841
C 13.48302 9.16424 -0.01111
C 12.23328 8.51779 -0.01275
C 12.25833 7.13039 0.00985
C 13.53526 6.38168 -0.02245
C 13.40436 4.94632 -0.00428
C 12.17715 4.23777 0.03101
C 13.55683 14.91633 0.00572
C 12.21007 2.89318 -0.01536
C 13.47779 0.52152 -0.01046
C 12.1913 33.92954 -0.00891
C 14.54621 24.20672 0.02819
C 15.99529 23.70646 0.00165
C 16.02084 22.2347 -0.02971
C 14.83061 21.51423 0.02894
C 14.81273 20.07131 -0.01789
C 16.05457 19.21039 0.00444
C 15.99565 17.77993 -0.00925
C 14.77716 17.1096 0.01877
C 13.49979 2.00259 -0.02689
C 12.373 15.6874 0.0402
C 12.27072 17.16216 -0.02759
C 13.6064 17.84705 0.03589
C 9.8393 15.70126 0.03693
C 11.01587 14.96346 0.01745
C 11.05033 13.56716 0.00488
C 9.85913 12.89067 -0.01004
C 9.79784 11.46159 -0.02896
C 10.97715 10.69949 -0.00131
C 10.99447 9.26832 -0.01118
C 9.80944 8.51147 -0.014
C 9.81496 7.15153 0.02147
C 10.99114 6.41344 0.00373
C 10.99507 4.98298 -0.00191
C 9.75358 4.30609 0.00438
C 9.79933 2.85864 0.01291
C 11.03939 2.14646 0.00093
C 10.95138 0.76571 0.00057
C 9.7685 0.04836 -0.01634
C 12.12354 32.56901 -0.00334
C 11.76726 23.82559 0.02339
C 13.28874 23.6683 0.01641
C 13.58133 22.24057 -0.00719
C 12.40352 21.44985 0.01364
C 12.3206 20.01217 -0.01062
C 13.61897 19.34806 -0.00033
C 14.80416 15.72457 0.01363
C 9.8038 17.10055 -0.01384
C 15.95924 14.98728 -0.02162
C 14.79678 12.77456 -0.0014
C 18.44318 10.6309 -0.03113
C 18.41433 9.29393 0.02098
C 17.10302 8.455 0.01848
C 17.13557 7.03543 -0.00619
C 18.38192 6.32021 -0.02162
C 18.35781 4.92596 0.00889
C 17.14285 4.2405 -0.00481
C 17.17135 2.69359 0.00979
C 18.42995 2.06492 0.01443
C 18.3909 0.63943 0.03505
C 17.19951 11.40743 0.0351
C 17.12275 33.9043 -0.02815
C 20.89612 32.00126 -0.05302
C 20.93496 30.59104 0.00213
C 19.74784 29.931 -0.00066
C 19.65812 28.54693 -0.00289
C 20.78698 27.69553 0.00028
C 20.69661 26.24104 -0.02213
C 19.50754 25.48954 0.03698
C 19.58396 24.09762 -0.00109
C 20.88728 23.39965 -0.00491
C 20.84317 21.95931 0.03338
C 19.62056 32.63606 -0.04147
C 17.21883 12.84984 0.00422
C 18.52594 13.4776 0.00798
C 18.44837 14.88492 0.00228
C 14.70274 11.35604 0.02162
C 15.94748 10.69502 0.0076
C 15.94768 9.25846 0.01241
C 14.74964 8.52545 -0.01454
C 14.6928 7.11857 0.01945
C 15.91904 6.29299 0.01416
C 15.85708 4.83902 0.03542
C 14.54963 4.15023 0.02299
C 14.68352 2.71184 0.00244
C 15.86761 2.03883 -0.01717
C 15.84424 0.58852 0.05265
C 14.66024 33.91911 -0.01952
C 17.24925 32.5097 -0.02813
C 18.51845 31.88494 0.00374
C 17.24827 24.20752 0.00052
C 18.49869 23.29423 -0.03682
C 18.38936 21.98174 0.01965
C 17.20924 21.36003 0.02058
C 17.17676 19.96909 -0.01957
C 18.34039 19.14541 -0.0108
C 18.41025 17.77732 -0.00368
C 17.18854 17.03609 -0.02696
C 17.23619 15.62508 -0.00114
C 15.99934 13.53529 0.00415
C 19.64817 21.23275 -0.0258
C 11.04705 17.84555 -0.00482
C 9.9165 20.1595 0.00685
C 3.67077 2.13217 0.02784
C 3.59187 0.71159 -0.01977
C 2.35089 0.02237 -0.00561
C 4.88073 32.72316 0.00208
C 6.0704 31.98489 0.01707
C 6.16699 30.58268 0.02769
C 4.94447 29.90031 -0.03291
C 4.96608 28.48856 -0.04999
C 6.09827 27.77617 0.04505
C 6.13511 26.30952 0.03284
C 2.45681 2.85186 -0.01979
C 4.94617 25.58137 -0.04307
C 6.20486 23.56932 0.00031
C 6.22816 22.15255 -0.003
C 4.97184 21.27657 0.01402
C 4.98493 19.87424 0.02379
C 6.21559 19.23849 0.00907
C 6.17877 17.81997 0.00643
C 4.9265 17.13142 -0.01509
C 4.88636 15.73768 0.03267
C 6.05883 14.94955 0.02374
C 6.13902 13.55855 0.00402
C 4.98657 24.08895 0.03189
C 2.33007 4.27739 -0.00449
C 3.54655 5.07126 0.00211
C 3.59365 6.43026 0.0064
C 3.65267 30.5805 0.01078
C 2.45586 29.74999 -0.00112
C 2.44025 28.39045 0.03345
C 3.71692 27.73977 0.00748
C 3.74752 26.28966 0.00662
C 2.48337 25.58287 -0.0154
C 2.49276 24.09152 -0.01299
C 3.70056 23.38216 -0.00407
C 3.67108 22.01605 0.01138
C 2.5003 21.3047 0.03278
C 2.44769 19.86743 -0.00177
C 3.71591 19.20815 0.04421
C 3.63603 17.75508 0.00088
C 2.41405 17.03321 0.00828
C 2.38113 15.60785 -0.02375
C 3.65175 15.04585 0.00558
C 3.65079 13.5885 -0.0059
C 2.50845 12.77035 -0.01386
C 2.3639 11.42362 -0.02805
C 3.59766 10.7483 0.00081
C 3.62264 9.22077 0.00245
C 2.38429 8.47264 0.02728
C 2.34198 7.08162 -0.00039
C 4.84632 12.82255 0.0073
C 11.0485 19.24868 0.02888
C 4.84571 11.45011 0.0174
C 6.12983 9.25174 0.01226
C 8.63345 13.55463 -0.00049
C 7.31765 12.85806 0.00848
C 7.35197 11.45597 -0.01303
C 8.61118 10.77466 -0.01378
C 8.55776 9.36614 0.02635
C 7.35323 8.61773 0.0127
C 7.35948 7.18339 0.01396
C 8.53732 6.4725 0.01849
C 8.57639 5.04762 -0.01142
C 7.36247 4.31674 -0.00562
C 8.61903 14.97205 0.00873
C 7.35522 2.89565 -0.00494
C 8.43959 0.7484 0.03007
C 7.25901 0.1714 -0.00095
C 9.8025 32.68078 0.01572
C 10.8723 31.89014 -0.04848
C 9.7961 29.96863 -0.00892
C 9.7108 28.58102 -0.01362
C 11.20073 24.79341 -0.0008
C 9.69585 24.93027 0.0288
C 11.31136 22.40911 0.00393
C 10.07431 21.65409 0.00895
C 8.52628 2.08407 0.00054
C 7.44776 15.71153 0.01227
C 7.35542 17.13868 -0.03337
C 8.57153 17.98451 -0.00966
C 4.8524 8.58805 -0.00279
C 4.86681 7.20277 0.01996
C 6.02005 6.5409 -0.03996
C 6.07769 5.03206 0.01465
C 4.79461 4.39602 -0.00074
C 4.86474 2.95149 -0.00518
C 6.06133 2.29585 0.0086
C 6.05621 0.80457 -0.00643
C 4.87478 0.13496 0.017
C 7.30518 32.78114 -0.03113
C 8.58424 32.06336 -0.02566
C 8.66517 30.66239 -0.00094
C 7.46524 29.86194 0.02322
C 7.37595 28.43238 -0.00725
C 8.71102 27.60499 -0.05697
C 8.70755 26.15968 0.01087
C 7.38611 25.6529 -0.01343
C 7.37168 24.34622 0.00988
C 8.79063 23.8608 0.0276
C 8.77206 22.40005 0.01305
C 7.41528 21.50985 -0.00077
C 7.41071 20.04223 0.03368
C 8.72368 19.37267 -0.02929
C 6.0954 10.71935 0.03828
C 3.64317 31.94348 -0.02827
C 19.62436 19.84831 -0.0331
C 20.91387 17.79669 0.02188
C 29.55077 11.38317 -0.02155
C 30.68001 10.59488 -0.00944
C 30.658 9.17794 -0.03735
C 29.44118 8.4874 -0.00971
C 29.47697 7.09006 0.01518
C 30.71883 6.35048 0.01908
C 30.65757 4.93977 0.07705
C 29.42098 4.12261 0.0103
C 29.48027 2.77345 0.02108
C 30.74549 2.00581 0.00716
C 29.5639 12.79906 -0.01461
C 30.70822 0.63709 0.00307
C 31.98597 32.55242 0.01713
C 33.19472 31.82209 -0.01694
C 33.19519 30.44229 0.01428
C 31.94929 29.72211 -0.02142
C 32.02947 28.2886 0.0544
C 33.20679 27.56339 0.00026
C 33.13057 26.24897 0.00682
C 31.9066 25.51433 -0.01779
C 31.89552 24.13883 0.03794
C 33.16969 23.40389 0.01927
C 29.48387 34.01662 0.00346
C 30.75474 13.50351 -0.01303
C 30.78147 14.95319 -0.0405
C 29.54131 15.58425 0.01705
C 28.26547 6.41226 0.01094
C 28.14484 4.92604 0.00235
C 26.94559 4.26935 0.01495
C 26.93609 2.82843 0.01259
C 28.22366 2.14137 0.01799
C 28.20812 0.69919 0.01699
C 26.97802 0.01186 -0.00416
C 29.57101 32.5787 0.01177
C 30.78323 31.82124 0.04266
C 30.73013 30.43509 0.01324
C 29.50531 29.68276 0.0014
C 29.4735 28.34025 0.00924
C 30.77846 27.62521 0.02326
C 30.71448 26.18212 0.00261
C 29.45134 25.48445 0.03265
C 29.4301 24.12203 -0.02049
C 30.72804 23.43176 -0.01854
C 30.67551 21.99799 -0.01415
C 29.48408 21.22722 -0.03039
C 29.42031 19.87762 0.01836
C 30.61472 19.19072 0.03531
C 30.68077 17.79572 -0.00669
C 29.5044 17.06386 0.0101
C 33.11651 21.95792 0.01574
C 27.05496 7.06035 0.02198
C 31.92199 21.25029 -0.02383
C 33.19388 19.19755 -0.0136
C 1.17872 23.4383 0.00723
C 1.24849 21.97194 0.02712
C 0.04006 21.27416 -0.02213
C 34.43226 19.86907 0.01951
C 1.26426 19.13902 -0.01678
C 1.22951 17.74064 0.01223
C 0.00376 17.08345 0.00648
C 34.40172 15.66683 0.02114
C 1.16966 14.96924 -0.02957
C 1.16168 13.51968 0.00343
C 34.40805 24.13542 0.03076
C 34.36023 12.79103 -0.02656
C 1.10301 10.68956 -0.00027
C 1.1736 9.20747 -0.00583
C 34.37402 8.51083 -0.02302
C 34.26836 6.99516 -0.02849
C 1.14922 6.333 0.02931
C 1.09199 4.9588 0.00628
C 34.33946 4.25642 -0.0345
C 34.3912 2.82393 -0.00931
C 1.1808 2.07733 -0.00939
C 1.14508 0.69016 -0.00468
C 34.3223 11.38923 -0.02442
C 34.36164 25.54975 -0.05239
C 1.15427 26.2928 -0.00598
C 1.24235 27.68763 -0.00439
C 33.19879 17.77988 0.00594
C 31.98814 17.11758 -0.02474
C 31.96949 15.75333 0.00369
C 33.20475 14.99129 0.00455
C 33.18029 13.57067 -0.00644
C 31.94057 12.82028 -0.01839
C 31.9092 11.44788 0.00137
C 33.13806 10.62389 0.00199
C 33.20823 9.22994 0.04381
C 31.96777 8.47156 0.02806
C 31.91296 7.13711 0.01504
C 33.09273 6.31244 -0.00069
C 33.07557 4.94436 0.04926
C 31.88705 4.16816 -0.03838
C 32.00589 2.73392 0.00349
C 33.17999 2.04842 -0.00323
C 33.1334 0.63394 -0.00841
C 31.93351 33.99477 0.0001
C 34.4107 32.60387 -0.02927
C 1.22953 31.90566 -0.01404
C 1.27685 30.45285 0.01027
C 0.04914 29.7283 0.01831
C 0.04086 28.34941 -0.01037
C 31.91411 19.874 -0.01429
C 20.90566 19.13428 -0.00316
C 27.04687 8.53944 0.02611
C 28.20837 10.69281 0.00194
C 23.28275 22.0835 -0.01594
C 22.08228 21.26383 0.0106
C 22.06921 19.79894 -0.01154
C 23.2775 19.11714 -0.01721
C 23.30931 17.68413 -0.02422
C 22.15481 17.01987 0.01277
C 22.13453 15.56742 0.00096
C 23.35664 14.9441 -0.01527
C 23.41025 13.4781 0.01087
C 22.16922 12.81765 0.00199
C 23.29907 23.43317 0.00742
C 22.16275 11.43051 0.01511
C 23.35129 9.30532 -0.01662
C 22.03481 8.52759 -0.01185
C 22.07182 7.03443 0.01126
C 23.35651 6.42921 0.01852
C 23.33998 5.00599 -0.00381
C 22.06159 4.2563 0.03046
C 22.09509 2.80059 0.0296
C 23.24907 2.11104 0.03374
C 23.29543 0.65809 -0.02845
C 22.04991 0.05592 -0.03213
C 23.41692 10.66335 -0.00478
C 22.04082 24.12808 -0.00311
C 21.97251 25.57 0.00675
C 23.30999 26.33328 -0.00865
C 19.68908 17.02084 -0.01979
C 19.68138 15.66602 0.02691
C 20.78684 14.91545 -0.01581
C 20.9201 13.4867 0.01452
C 19.66201 12.72223 0.04892
C 19.63161 11.32984 -0.00111
C 20.96341 10.60869 -0.03557
C 20.88474 9.24348 0.03754
C 19.65838 8.58243 0.01739
C 19.6206 7.17092 0.00755
C 20.74543 6.40327 -0.0054
C 20.79984 4.98945 0.00667
C 19.56976 4.22151 0.00143
C 19.62069 2.82203 -0.017
C 20.85668 2.12625 0.00364
C 20.8762 0.66804 -0.00831
C 19.68421 34.02697 -0.02957
C 22.13345 32.65945 -0.04422
C 23.39386 31.90786 0.00654
C 23.29231 30.57983 -0.00703
C 22.05863 29.7975 -0.04076
C 22.10839 28.36656 -0.00652
C 23.36609 27.70335 0.0058
C 24.53851 32.5982 0.02239
C 28.31594 9.234 -0.00621
C 25.81508 31.90403 0.01153
C 24.50078 29.84417 -0.0055
C 24.48591 34.06198 0.00684
C 27.03841 32.61001 -0.01052
C 28.29544 31.93898 -0.01679
C 28.1841 30.48644 0.00367
C 26.96029 29.78813 0.04306
C 27.01166 28.37161 0.00996
C 28.27259 27.62405 0.00195
C 28.28927 26.17386 -0.00802
C 27.04652 25.51927 -0.00218
C 26.99 24.13306 -0.01654
C 25.7282 0.70928 -0.01154
C 28.16084 23.38633 -0.00037
C 27.02826 21.33351 0.00622
C 27.05012 19.89589 -0.02815
C 28.24232 19.16346 -0.00942
C 28.32393 17.71449 0.00487
C 27.0633 17.02847 0.00826
C 27.1537 15.63522 -0.00294
C 28.35184 14.89983 0.00152
C 28.31609 13.45609 0.01257
C 27.0926 12.75716 0.02316
C 27.01471 11.4185 0.04185
C 28.2404 21.9673 -0.0032
C 25.57582 2.09145 -0.0264
C 24.49548 2.8706 -0.00938
C 24.5393 4.33031 -0.00229
C 24.54113 28.43122 0.01515
C 25.77213 27.67559 -0.00225
C 25.71834 26.23784 0.00071
C 24.50131 25.53704 -0.01107
C 24.49082 24.08842 -0.01586
C 25.77478 23.41313 -0.01971
C 25.79253 21.92187 -0.02118
C 24.48343 21.34415 0.00733
C 24.53592 19.83144 -0.00178
C 25.7888 19.16874 0.00768
C 25.85845 17.7829 -0.0276
C 24.59218 17.01747 0.03005
C 24.53919 15.62798 -0.04078
C 25.75792 14.87519 0.02117
C 25.84109 13.52236 0.02737
C 24.62613 12.74999 -0.00498
C 24.5684 11.36473 0.00135
C 25.79483 10.76639 0.03102
C 25.80447 9.23867 0.02555
C 24.52389 8.55007 0.01423
C 24.55125 7.14555 -0.00285
C 25.76524 6.43843 -0.009
C 25.77789 5.04784 -0.01199
C 25.69905 30.46784 0.02734
C 2.42244 32.64035 -0.01471
