318
Graphene
C 0.00683 0.00808 0.01295
C 13.4771 14.96127 -0.00109
C 13.58391 13.58094 -0.00491
C 12.34418 12.80416 0.03338
C 12.23629 11.36338 -0.0258
C 13.44574 10.71333 -0.0331
C 13.49016 9.25491 -0.00316
C 12.26161 8.48669 0.02188
C 12.30584 7.0879 -0.01979
C 13.55641 6.36713 0.02691
C 13.51178 4.9902 -0.01581
C 12.28103 4.27875 0.01452
C 12.27079 2.80958 0.04892
C 13.50368 2.07598 -0.00111
C 13.55099 0.72706 -0.03557
C 12.36014 34.07122 0.03754
C 12.21087 15.61704 0.03698
C 12.2174 17.08829 -0.02213
C 13.46285 17.77925 0.00028
C 13.4694 19.16514 -0.00289
C 9.73707 4.24649 0.0351
C 9.77725 2.83525 -0.03113
C 11.05355 2.02753 0.02098
C 11.20866 0.67838 0.01848
C 9.87366 0.10351 -0.00619
C 12.40679 32.6414 -0.02162
C 13.55949 31.90978 0.00889
C 14.77645 32.618 0.01739
C 13.47943 30.51412 -0.00481
C 12.33088 28.46564 0.01443
C 13.42112 27.60205 0.03505
C 13.63013 26.13625 -0.02815
C 13.30591 23.65429 -0.04147
C 13.1584 22.21373 -0.05302
C 12.30374 21.25105 0.00213
C 12.23581 19.84546 -0.00066
C 12.21812 29.85629 0.00979
C 16.03948 31.94347 0.00755
C 15.96917 30.50348 -0.0054
C 14.65871 29.7234 0.00667
C 14.69663 4.26185 0.01277
C 14.81415 2.84709 0.00096
C 16.03266 2.16969 -0.01527
C 15.94415 0.77295 0.01087
C 14.74366 34.05813 0.00199
C 17.29094 32.65489 0.01511
C 18.48359 31.90442 -0.00478
C 15.91312 4.98151 -0.02422
C 18.43003 30.48583 -0.01662
C 17.19131 28.35177 0.01126
C 18.4695 27.6487 0.01852
C 18.44984 26.28987 -0.00381
C 17.29681 25.45107 0.03046
C 17.08449 23.9769 0.0296
C 17.38643 12.74992 0.03374
C 17.16077 11.38513 -0.02845
C 17.22568 29.80947 -0.01185
C 11.04946 4.91918 0.00422
C 15.97732 6.37114 -0.01721
C 14.68008 8.54299 0.0106
C 14.75758 28.33829 0.00143
C 15.9988 27.72259 -0.017
C 16.07639 26.24262 0.00364
C 14.85504 25.5582 -0.00831
C 14.63429 24.0615 -0.02957
C 15.97637 23.39045 -0.04422
C 14.30515 21.24909 0.00654
C 14.78065 7.1033 -0.01154
C 14.59238 20.12545 -0.00703
C 14.80167 15.68744 -0.00652
C 15.98935 14.93246 0.0058
C 16.17932 13.4914 -0.00865
C 14.90118 12.78339 0.00675
C 14.71779 11.41013 -0.00311
C 15.89709 10.65181 0.00742
C 15.94801 9.23822 -0.01594
C 14.63642 17.1128 -0.04076
C 11.09392 6.39895 0.00798
C 9.80651 7.03329 0.00228
C 9.81 8.49655 -0.00114
C 4.91652 32.55454 -0.00719
C 6.18386 31.94402 0.01364
C 5.6079 19.26149 -0.01062
C 5.94682 17.89257 -0.00033
C 4.86758 16.92963 0.03589
C 4.8655 15.58041 -0.02759
C 6.09298 14.91286 0.0402
C 2.46926 0.07314 0.01641
C 6.10327 13.48295 0.00572
C 4.84326 11.35842 0.00406
C 6.1182 10.66963 0.00943
C 6.16719 9.18361 0.02841
C 4.90917 8.52838 -0.01111
C 4.84667 7.05887 -0.01275
C 6.04837 6.36759 0.00985
C 6.12191 4.9636 -0.02245
C 4.82605 12.79946 0.03592
C 4.89926 4.27261 -0.00428
C 3.67801 0.75409 0.02339
C 2.46697 2.87332 -0.01634
C 2.47668 19.99875 -0.01384
C 3.74826 19.24613 0.03693
C 3.61334 17.7729 0.01745
C 2.40042 16.97071 0.00488
C 2.48088 15.63556 -0.01004
C 3.62672 14.93481 -0.02896
C 3.5836 13.50264 -0.00131
C 3.64819 2.15522 -0.00334
C 2.37143 12.8216 -0.01118
C 3.6474 10.65224 0.02147
C 3.65314 9.2553 0.00373
C 2.47081 8.48997 -0.00191
C 2.36139 7.08341 0.00438
C 3.62951 6.39413 0.01291
C 3.61966 5.00349 0.00093
C 2.4745 4.2744 0.00057
C 2.45884 11.36242 -0.014
C 18.41799 10.71317 -0.03213
C 4.90519 2.83711 0.03101
C 6.19576 0.65477 -0.02689
C 8.63702 0.69555 0.03542
C 7.38244 34.05468 0.02299
C 9.8944 32.78063 0.00244
C 11.14068 32.01626 -0.01717
C 11.08912 30.7217 0.05265
C 9.8363 19.70397 -0.01952
C 11.02856 19.17581 -0.02813
C 8.55232 2.08489 0.01416
C 10.95424 17.78029 0.00374
C 9.77321 15.59477 -0.03682
C 10.97363 14.84703 0.01965
C 11.05163 13.40796 0.02058
C 9.79941 12.81197 -0.01957
C 9.82963 11.2969 -0.0108
C 11.06792 10.60685 -0.00368
C 11.07025 9.20757 -0.02696
C 9.79811 17.07471 0.00052
C 6.10408 2.13598 -0.01536
C 7.32328 2.83902 0.01945
C 8.65175 4.97979 0.01241
C 4.94015 34.03067 -0.01046
C 7.44717 32.5282 -0.00891
C 8.7704 31.95948 0.02819
C 8.71873 19.23005 0.00165
C 8.47151 17.7531 -0.02971
C 7.2758 17.12983 0.02894
C 7.28555 15.69218 -0.01789
C 7.40063 4.37002 -0.01454
C 8.43783 14.9228 0.00444
C 7.34324 12.7049 0.01877
C 7.38941 11.30683 0.01363
C 8.62469 10.58005 -0.02162
C 8.6316 9.1755 0.00415
C 7.34256 8.50265 -0.0014
C 7.27096 7.0615 0.02162
C 8.57106 6.38333 0.0076
C 8.50136 13.54185 -0.00925
C 18.3909 9.22779 0.02239
C 17.14631 8.53957 0.01153
C 17.16829 7.11098 0.02734
C 30.68695 2.1721 -0.01779
C 30.69046 0.75325 0.03794
C 29.47457 0.0632 0.01927
C 31.95638 32.71134 0.01574
C 33.26303 31.92745 -0.02383
C 33.28992 30.56742 -0.01429
C 32.04853 29.82465 -0.0136
C 29.45349 2.8874 0.00682
C 31.97802 28.4221 0.00594
C 33.10132 26.30446 0.00369
C 31.92483 25.5356 0.00455
C 31.93424 24.16513 -0.00644
C 33.20704 23.39545 -0.01839
C 33.11876 21.99315 0.00137
C 31.92467 21.23141 0.00199
C 31.86275 19.8844 0.04381
C 33.26601 27.73116 -0.02474
C 33.13885 19.23568 0.02806
C 29.37074 4.40998 0.00026
C 28.90362 15.87111 -0.02142
C 29.4587 32.67266 -0.01461
C 30.71777 31.9867 -0.02155
C 30.77488 30.57864 -0.00944
C 29.53864 29.86219 -0.03735
C 29.48188 28.42921 -0.00971
C 30.70313 27.71582 0.01518
C 30.73777 26.31826 0.01908
C 30.7555 5.07385 0.0544
C 29.55576 25.63215 0.07705
C 30.78314 23.4627 0.02108
C 30.71137 22.07146 0.00716
C 29.4456 21.28436 0.00307
C 29.44679 20.1177 0.00346
C 30.65403 19.25351 0.01713
C 30.58761 17.77948 -0.01694
C 29.5201 16.91851 0.01428
C 29.60548 24.15811 0.0103
C 27.01166 34.03502 -0.01303
C 33.15858 17.81588 0.01504
C 32.03629 15.78679 0.04926
C 34.34251 17.06452 0.00648
C 34.39254 15.6229 0.02114
C 1.23363 15.00426 -0.02957
C 1.18839 13.6092 0.00343
C 0.01038 12.83214 -0.02656
C 0.08769 11.59019 -0.02442
C 1.18158 10.59847 -0.00027
C 1.17626 17.69004 0.01223
C 1.14484 9.20636 -0.00583
C 34.34345 7.1682 -0.02849
C 1.16163 6.43238 0.02931
C 1.19275 4.98054 0.00628
C 0.01423 4.22121 -0.0345
C 0.03891 2.81671 -0.00931
C 1.24267 2.17774 -0.00939
C 1.22291 0.72919 -0.00468
C 34.37854 8.5728 -0.02302
C 31.93446 17.10681 -0.00069
C 1.1947 19.17458 -0.01678
C 34.40215 21.32769 -0.02213
C 33.1475 15.08683 -0.03838
C 33.13585 6.24971 0.00349
C 33.23162 4.91765 -0.00323
C 31.94184 4.25372 -0.00841
C 31.95406 2.75288 0.0001
C 33.20947 2.13926 -0.02927
C 33.24043 0.70677 -0.01404
C 34.36095 19.85784 0.01951
C 31.94482 0.04677 0.01027
C 1.25662 32.0162 -0.01037
C 1.33277 30.67333 -0.00439
C 0.11249 29.80651 -0.00598
C 34.39845 28.4437 -0.05239
C 34.31412 25.4847 0.03076
C 34.26376 24.26727 0.00723
C 1.39361 21.74236 0.02712
C 0.06294 32.67875 0.01831
C 3.54235 31.86442 -0.00482
C 28.20772 0.66358 -0.0405
C 26.9879 2.75962 0.0101
C 20.8508 6.3727 0.01423
C 20.84856 4.9856 -0.00285
C 19.6259 4.27138 -0.009
C 19.64449 2.90947 -0.01199
C 20.91509 2.21742 -0.00229
C 20.83282 0.793 -0.00938
C 19.67791 0.03676 -0.0264
C 19.62228 7.15156 0.02555
C 22.13518 32.61401 -0.01154
C 23.38836 30.53646 -0.01052
C 22.09195 29.89858 -0.01679
C 22.14669 28.47549 0.00367
C 23.31805 27.70509 0.04306
C 23.43551 26.27057 0.00996
C 22.10683 11.47129 0.00195
C 23.22753 10.79548 -0.00802
C 23.39227 31.88449 0.00684
C 23.31312 9.2722 -0.00218
C 19.59007 8.5831 0.03102
C 20.73855 10.93134 -0.00498
C 18.34596 6.4695 -0.0055
C 18.4263 5.03623 0.01515
C 17.21206 4.3163 -0.00225
C 17.28148 2.86412 0.00071
C 18.47346 2.15845 -0.01107
C 18.4451 0.73765 -0.01586
C 17.22633 0.00109 -0.01971
C 20.80245 9.36355 0.00135
C 19.67908 32.66819 -0.02118
C 20.86892 30.5289 -0.00178
C 19.64097 29.8023 0.00768
C 19.66119 28.35305 -0.0276
C 20.92538 27.7303 0.03005
C 20.82308 26.36863 -0.04078
C 19.75578 25.64936 0.02117
C 19.52126 11.49673 0.02737
C 20.95972 31.94502 0.00733
C 28.22311 2.07673 0.01705
C 22.01513 8.60913 -0.01654
C 23.3585 6.50676 -0.0032
C 24.47125 2.75693 -0.00416
C 25.78376 2.08473 0.01177
C 25.7481 0.71718 0.04266
C 24.54941 34.05386 0.01324
C 27.01148 32.62259 0.0014
C 28.21425 31.9971 0.00924
C 28.24902 30.61012 0.02326
C 24.4388 4.18475 0.01699
C 27.06862 29.79251 0.00261
C 28.19894 27.69909 -0.02049
C 28.30957 26.20664 -0.01854
C 27.1327 25.4739 -0.01415
C 27.25442 24.0334 -0.03039
C 28.34075 23.32851 0.01836
C 28.02155 4.96645 0.03531
C 26.88424 4.20395 -0.00669
C 26.98887 28.36296 0.03265
C 22.09651 7.09872 -0.00037
C 25.65913 4.91659 0.01799
C 24.58098 7.18787 0.01495
C 23.28301 5.03503 0.00622
C 22.07563 4.28325 -0.02815
C 22.07252 2.88358 -0.00942
C 23.222 2.11013 0.00487
C 23.3303 0.70173 0.00826
C 22.11621 0.00033 -0.00294
C 24.55414 32.61215 0.00152
C 25.82037 6.27278 0.01259
C 25.77713 31.84674 0.01257
C 24.48141 29.76115 0.04185
C 24.57212 28.33453 0.00194
C 25.80145 27.6518 -0.00621
C 25.84173 26.25237 0.02611
C 24.57461 25.49942 0.02198
C 24.72922 10.36992 0.01094
C 24.48342 8.73283 0.00235
C 25.74377 30.45229 0.02316
C 2.52233 32.74973 0.02888
