354
Graphene
C 34.39278 0.01534 0.01295
C 11.06088 14.90914 -0.02696
C 11.03256 13.50586 -0.00114
C 9.82463 12.77466 0.00228
C 9.86528 11.29905 0.00798
C 11.01238 10.63319 0.00422
C 11.03998 9.2056 0.0351
C 9.83215 8.51393 -0.03113
C 9.79534 7.14827 0.02098
C 9.76502 15.61545 -0.00368
C 11.0087 6.4015 0.01848
C 9.8518 4.30426 -0.02162
C 9.80203 2.86335 0.00889
C 11.02891 2.20681 -0.00481
C 11.05978 0.70832 0.00979
C 9.78202 0.12146 0.01443
C 12.2653 32.59376 0.03505
C 13.45342 31.8683 -0.02815
C 13.51171 30.49706 -0.04147
C 11.0633 4.95894 -0.00619
C 12.25739 29.80972 -0.05302
C 9.86007 17.08675 -0.0108
C 11.09577 19.112 0.02058
C 7.37633 4.36968 -0.0014
C 7.34337 2.96653 0.02162
C 8.58178 2.22574 0.0076
C 8.56416 0.84053 0.01241
C 7.35505 0.14254 -0.01454
C 9.85514 32.70424 0.01945
C 11.02641 31.99486 0.01416
C 11.01423 30.51553 0.03542
C 11.08256 17.7328 -0.01957
C 9.81247 29.87305 0.02299
C 10.99701 27.69426 -0.01717
C 11.08782 26.29951 0.05265
C 9.83118 25.4825 -0.01952
C 9.85586 24.09746 -0.02813
C 11.09564 23.3939 0.00374
C 11.0524 21.97461 0.00052
C 9.86906 21.2848 -0.03682
C 9.8646 19.8882 0.01965
C 9.81874 28.43389 0.00244
C 8.59429 4.98186 0.00415
C 12.26584 28.35027 0.00213
C 13.53132 26.30684 -0.00289
C 13.56618 2.11314 0.00143
C 13.48249 0.65686 -0.017
C 12.21782 0.01519 0.00364
C 14.69473 32.58998 -0.00831
C 15.94676 31.87725 -0.02957
C 15.96461 30.45878 -0.04422
C 14.75447 29.7801 0.00654
C 14.73431 28.26007 -0.00703
C 12.29766 2.85634 0.00667
C 16.03139 27.58398 -0.04076
C 14.77849 25.52716 0.0058
C 14.70942 24.1335 -0.00865
C 15.9577 23.42708 0.00675
C 16.09824 22.05929 -0.00311
C 14.82238 21.41897 0.00742
C 14.77834 19.91097 -0.01594
C 15.9757 19.20815 0.0106
C 16.00016 17.8018 -0.01154
C 16.14222 26.17361 -0.00652
C 13.49616 27.66199 -0.00066
C 12.26821 4.28106 -0.0054
C 13.45709 6.37687 0.01739
C 12.34261 25.56468 0.00028
C 12.35426 24.13263 -0.02213
C 13.51691 23.47207 0.03698
C 13.56761 22.05366 -0.00109
C 12.358 21.33724 -0.00491
C 12.3226 19.94143 0.03338
C 13.54676 19.17779 -0.0258
C 13.52523 17.72795 -0.0331
C 13.4752 4.97376 0.00755
C 12.2755 17.05637 -0.00316
C 13.53455 14.87287 -0.01979
C 13.53674 13.51952 0.02691
C 12.3429 12.74269 -0.01581
C 12.26752 11.30233 0.01452
C 13.50675 10.61576 0.04892
C 13.51791 9.22612 -0.00111
C 12.20759 8.49141 -0.03557
C 12.27449 7.09284 0.03754
C 12.24655 15.62944 0.02188
C 8.60998 6.42342 -0.02162
C 7.34138 7.13729 0.01363
C 7.37207 8.555 0.01877
C 2.48446 7.15916 0.00054
C 3.6298 6.45091 0.03007
C 3.70523 5.042 -0.00095
C 2.43473 4.33979 0.01572
C 2.34824 2.85491 -0.04848
C 3.66848 2.16275 -0.00892
C 3.62309 0.76704 -0.01362
C 2.4003 0.05754 -0.0008
C 2.48901 8.53291 -0.00494
C 4.85573 32.70033 0.0288
C 6.13372 30.56085 0.00895
C 4.84818 29.88706 0.00685
C 4.93143 28.45704 0.02888
C 6.15554 27.78142 -0.00482
C 6.19322 26.28171 -0.01384
C 4.9783 25.5956 0.03693
C 4.9189 24.18453 0.01745
C 6.15081 23.41682 0.00488
C 6.08913 32.01257 0.00393
C 6.1384 22.03676 -0.01004
C 3.63672 9.26431 -0.00562
C 2.45878 11.40619 0.01849
C 3.62683 30.59307 -0.01343
C 2.36717 29.86145 0.00988
C 2.41318 28.43779 0.0276
C 3.68671 27.7295 0.01305
C 3.64912 26.25811 -0.00077
C 2.40621 25.62527 0.03368
C 2.43266 24.19682 -0.02929
C 3.68959 23.51275 -0.00966
C 3.67647 10.62298 -0.01142
C 3.65834 22.03443 -0.03337
C 2.39728 19.90751 0.00873
C 3.62591 19.21831 -0.00049
C 3.62436 17.79904 0.00848
C 2.45749 17.037 -0.01303
C 2.45356 15.64591 -0.01378
C 3.64737 14.91596 0.02635
C 3.72709 13.52796 0.0127
C 2.44219 12.74653 0.01396
C 2.45676 21.29946 0.01227
C 4.93789 21.33258 -0.02896
C 4.8693 19.90289 -0.00131
C 6.09945 19.2216 -0.01118
C 8.57639 27.7244 0.02841
C 8.60805 26.25995 -0.01111
C 7.42833 25.52628 -0.01275
C 7.42771 24.10083 0.00985
C 8.64579 23.41159 -0.02245
C 8.63947 22.02222 -0.00428
C 7.38964 21.31053 0.03101
C 7.34437 19.84275 -0.01536
C 7.38827 28.4426 0.00943
C 8.59838 19.1408 -0.02689
C 7.40148 17.07917 -0.00891
C 7.34437 15.57737 0.02819
C 8.60879 14.89608 0.00165
C 8.59653 13.44741 -0.02971
C 7.35441 12.78571 0.02894
C 7.38831 11.36673 -0.01789
C 8.65045 10.65364 0.00444
C 8.62263 9.25729 -0.00925
C 8.62233 17.68895 -0.01046
C 7.36927 29.85364 0.00406
C 8.55308 30.61152 0.03592
C 8.5547 32.03551 0.00572
C 6.07973 17.77146 -0.014
C 4.84132 17.10968 0.02147
C 4.91676 15.62093 0.00373
C 6.1684 14.91612 -0.00191
C 6.17325 13.47254 0.00438
C 4.89587 12.79106 0.01291
C 4.88102 11.34899 0.00093
C 6.146 10.64196 0.00057
C 6.07715 9.24264 -0.01634
C 4.84732 8.52347 -0.00334
C 4.8284 7.16922 0.02339
C 6.04173 6.46972 0.01641
C 6.12257 5.03258 -0.00719
C 4.83605 4.32592 0.01364
C 4.89138 2.91934 -0.01062
C 6.16283 2.24469 -0.00033
C 6.07729 0.83119 0.03589
C 4.94125 0.05368 -0.02759
C 7.30453 32.7805 0.0402
C 14.75033 17.01341 -0.01721
C 14.68063 15.63814 -0.02422
C 15.94212 14.95591 0.01277
C 15.92649 13.52116 0.00096
C 30.66618 0.71886 0.01713
C 29.46851 0.04093 -0.01694
C 31.87316 32.72164 0.01428
C 33.13176 31.95213 -0.02142
C 33.06484 30.52351 0.0544
C 31.67745 29.84108 0.00026
C 32.16693 28.61242 0.00682
C 33.021 27.53177 -0.01779
C 30.71228 2.10949 0.00346
C 33.14498 26.07962 0.03794
C 33.05954 22.13334 0.01574
C 31.87979 21.42713 -0.02383
C 31.81852 19.99414 -0.01429
C 33.0679 19.25099 -0.0136
C 33.10202 17.81527 0.00594
C 31.94006 17.08206 -0.02474
C 31.94983 15.54545 0.00369
C 33.21993 14.93014 0.00455
C 33.26353 23.5214 0.01927
C 33.15743 13.52623 -0.00644
C 29.46495 2.82207 0.00307
C 30.77013 4.92021 0.02108
C 28.22504 0.75073 -0.01415
C 27.01139 0.01384 -0.03039
C 29.50992 32.7076 0.01836
C 30.668 31.99362 0.03531
C 30.50568 30.62429 -0.00669
C 30.8226 19.15715 0.0101
C 30.63308 17.70053 0.01705
C 29.44493 16.935 -0.0405
C 29.47541 4.26599 0.00716
C 29.53318 15.54641 -0.01303
C 30.74303 13.42627 -0.02155
C 29.4824 12.70994 -0.00944
C 29.43973 11.31465 -0.03735
C 30.7492 10.61494 -0.00971
C 30.83499 9.22156 0.01518
C 29.63019 8.49568 0.01908
C 29.64482 7.05311 0.07705
C 30.85286 6.39254 0.0103
C 30.73991 14.83815 -0.01461
C 31.94533 12.8168 -0.01839
C 31.99878 11.38415 0.00137
C 33.24031 10.61059 0.00199
C 1.11304 19.19512 -0.01678
C 1.23712 17.78797 0.01223
C 34.41726 17.05096 0.00648
C 34.36817 15.65175 0.02114
C 1.16812 14.949 -0.02957
C 1.22392 13.49463 0.00343
C 34.39785 12.79689 -0.02656
C 34.41212 11.42475 -0.02442
C 34.3064 19.92622 0.01951
C 1.23332 10.60762 -0.00027
C 0.02486 8.48705 -0.02302
C 0.06281 7.05718 -0.02849
C 1.22382 6.39947 0.02931
C 1.23796 4.96076 0.00628
C 34.39874 4.25476 -0.0345
C 34.4003 2.85121 -0.00931
C 1.18303 2.15758 -0.00939
C 1.1763 0.72015 -0.00468
C 1.29282 9.21153 -0.00583
C 34.2945 21.35149 -0.02213
C 1.18797 22.04109 0.02712
C 1.25239 23.48631 0.00723
C 33.24883 9.26549 0.04381
C 32.07482 8.5505 0.02806
C 32.07185 7.16541 0.01504
C 33.24436 6.42946 -0.00069
C 33.15463 4.94347 0.04926
C 31.96395 4.23211 -0.03838
C 31.92695 2.84013 0.00349
C 33.17446 2.14394 -0.00323
C 33.11894 0.69399 -0.00841
C 31.93733 0.06774 0.0001
C 34.35453 32.64961 -0.02927
C 1.16728 31.94687 -0.01404
C 1.13273 30.49359 0.01027
C 34.29784 29.79303 0.01831
C 34.32181 28.3809 -0.01037
C 1.18211 27.66489 -0.00439
C 1.19987 26.25971 -0.00598
C 0.01005 25.58703 -0.05239
C 0.04943 24.19976 0.03076
C 28.17048 2.14796 -0.01854
C 3.61201 31.99123 0.01087
C 27.01591 2.90125 -0.02049
C 28.27493 5.01824 0.00261
C 17.29921 17.09853 -0.01107
C 17.22296 15.70328 -0.01586
C 18.39789 14.96683 -0.01971
C 18.36335 13.60273 -0.02118
C 17.15074 12.87089 0.00733
C 17.28205 11.34974 -0.00178
C 18.57718 10.52527 0.00768
C 18.32901 9.22218 -0.0276
C 18.60037 17.76919 0.00071
C 17.11951 8.51317 0.03005
C 18.39295 6.40638 0.02117
C 18.44176 5.00459 0.02737
C 17.23125 4.21741 -0.00498
C 17.13046 2.7809 0.00135
C 18.40437 2.17673 0.03102
C 18.34993 0.68999 0.02555
C 17.15911 34.07511 0.01423
C 19.63497 32.66162 -0.00285
C 17.12596 7.07738 -0.04078
C 20.89528 32.13962 -0.009
C 18.47725 19.113 -0.00225
C 17.15825 21.13952 -0.0055
C 14.71763 12.84343 -0.01527
C 14.77917 11.36671 0.01087
C 16.00493 10.65327 0.00199
C 15.90668 9.2101 0.01511
C 14.68885 8.51681 -0.00478
C 14.67487 7.09591 -0.01662
C 15.93641 6.39028 -0.01185
C 15.99534 4.91009 0.01126
C 17.25149 19.79022 0.01515
C 14.73578 4.27488 0.01852
C 15.94606 2.08978 0.03046
C 15.91274 0.65647 0.0296
C 14.67092 34.01275 0.03374
C 17.1636 32.61937 -0.02845
C 18.43849 31.91767 -0.03213
C 18.62887 30.56198 0.02239
C 17.38618 29.79966 0.01153
C 16.91146 28.56748 0.02734
C 14.73105 2.79945 -0.00381
C 19.74828 16.95945 -0.01199
C 19.58726 15.61217 -0.00229
C 20.89287 14.88378 -0.00938
C 24.67172 12.77328 0.04185
C 25.71324 4.89699 0.00194
C 24.61719 4.17203 -0.00621
C 24.53854 2.80187 0.02611
C 25.75246 2.12206 0.02198
C 25.73554 0.68702 0.01094
C 24.52533 33.97159 0.00235
C 27.20231 32.60634 0.01495
C 25.81354 13.375 0.02316
C 28.23936 31.98962 0.01259
C 28.24788 14.88498 0.01699
C 28.30683 13.48672 -0.00416
C 27.12014 12.72597 0.01177
C 27.07134 11.2503 0.04266
C 28.1257 10.41281 0.01324
C 28.31963 8.98317 0.0014
C 27.28971 7.46463 0.00924
C 28.35236 6.44737 0.02326
C 27.04223 15.51548 0.01799
C 25.89079 15.00749 0.01257
C 24.59899 15.38058 0.00152
C 24.64517 32.55597 -0.00294
C 20.85619 13.46621 -0.0264
C 19.61934 12.88275 -0.01154
C 19.58794 11.50219 0.00684
C 21.03195 4.85484 -0.01052
C 19.79906 4.40148 -0.01679
C 19.67457 2.96692 0.00367
C 20.98029 2.24432 0.04306
C 20.94865 0.74177 0.00996
C 19.64343 0.04701 0.00195
C 22.15048 32.683 -0.00802
C 22.15093 15.53384 -0.00218
C 23.32679 15.22198 -0.01654
C 23.35616 12.82366 -0.00037
C 22.07608 12.82899 -0.0032
C 22.33479 4.33803 0.00622
C 22.22045 2.9015 -0.02815
C 23.33315 2.14296 -0.00942
C 23.37262 0.72104 0.00487
C 22.16835 0.003 0.00826
C 26.98794 4.37439 0.03265
C 2.40233 32.67091 -0.05697
