378
Graphene
C 34.39576 34.06652 0.01295
C 12.25361 2.88971 0.01416
C 13.60622 2.1332 0.03542
C 13.53841 0.77934 0.02299
C 12.33524 0.01492 0.00244
C 14.78386 32.75969 -0.01717
C 15.8865 31.87971 0.05265
C 15.97325 30.50752 -0.01952
C 14.63082 16.82086 -0.02813
C 14.8219 15.58845 0.00374
C 16.0139 14.86783 0.00052
C 16.00461 13.40635 -0.03682
C 14.82995 12.72858 0.01965
C 14.80673 11.30868 0.02058
C 15.99764 10.66479 -0.01957
C 15.93638 9.13529 -0.0108
C 14.71103 8.44246 -0.00368
C 14.73045 7.05292 -0.02696
C 16.03476 6.30503 -0.00114
C 15.9021 4.93035 0.00228
C 12.27199 4.29198 0.01945
C 13.46451 4.92848 -0.01454
C 13.43364 6.41923 0.01241
C 12.25371 7.07825 0.0076
C 11.05363 6.45045 -0.02245
C 11.0642 5.04683 -0.00428
C 9.90208 4.30131 0.03101
C 9.8609 2.85247 -0.01536
C 11.07 2.10577 -0.02689
C 11.07446 0.65567 -0.01046
C 9.8261 34.04537 -0.00891
C 12.50479 32.67972 0.02819
C 12.39708 21.45561 0.00165
C 14.70225 4.26551 0.00798
C 12.1012 20.19871 -0.02971
C 12.40318 17.1122 -0.01789
C 12.36045 15.61626 0.00444
C 13.52911 14.7639 -0.00925
C 13.54821 13.40406 0.01877
C 12.33015 12.86103 0.01363
C 12.3772 11.32264 -0.02162
C 13.57926 10.61952 0.00415
C 13.56655 9.1635 -0.0014
C 12.24073 8.53022 0.02162
C 13.59136 17.64903 0.02894
C 9.76463 7.15524 0.00985
C 14.74212 2.909 0.00422
C 15.98985 0.7759 -0.03113
C 19.68907 32.71039 0.02188
C 20.91163 31.93128 -0.01979
C 20.97603 30.44907 0.02691
C 19.66847 29.78056 -0.01581
C 19.63684 28.46427 0.01452
C 20.91421 27.73189 0.04892
C 20.6654 26.33145 -0.00111
C 19.63484 15.44755 -0.03557
C 20.90743 14.9907 0.03754
C 20.94456 13.50958 0.01739
C 19.7062 12.74463 0.00755
C 19.70231 11.31238 -0.0054
C 20.88261 10.61674 0.00667
C 20.90409 9.14912 0.00143
C 19.60128 8.44292 -0.017
C 19.65263 7.00646 0.00364
C 20.91257 6.38752 -0.00831
C 20.87186 4.90626 -0.02957
C 19.6454 4.25735 -0.04422
C 17.17448 0.08675 -0.00316
C 18.38183 0.77463 -0.0331
C 18.39363 2.15885 -0.0258
C 17.18518 2.87205 0.03338
C 14.75232 0.14774 0.02098
C 17.17035 32.73364 0.01848
C 18.44283 32.03048 -0.00619
C 18.47329 30.60384 -0.02162
C 17.1457 29.81033 0.00889
C 17.34205 28.42584 -0.00481
C 18.4073 27.61103 0.00979
C 18.54074 26.14213 0.01443
C 17.17324 15.60252 0.03505
C 15.95286 2.21838 0.0351
C 18.41623 15.01817 -0.02815
C 17.27169 12.76361 -0.05302
C 17.27795 11.35655 0.00213
C 18.446 10.66991 -0.00066
C 18.40657 9.21649 -0.00289
C 17.12287 8.46224 0.00028
C 17.1445 7.05521 -0.02213
C 18.44597 6.32134 0.03698
C 18.39186 4.97011 -0.00109
C 17.22142 4.23253 -0.00491
C 18.47908 13.45999 -0.04147
C 9.83573 8.59747 -0.01275
C 11.04243 9.25408 -0.01111
C 11.09803 10.63925 0.02841
C 3.70189 4.95394 -0.01343
C 2.44387 4.27672 0.00988
C 2.37878 2.81817 0.0276
C 3.62953 2.18027 0.01305
C 3.64465 0.73281 -0.00077
C 2.44298 0.03678 0.03368
C 4.80557 32.70485 -0.02929
C 6.09617 32.01698 -0.00966
C 6.26808 30.57961 -0.03337
C 4.99603 29.83362 0.01227
C 4.9383 28.42277 0.00873
C 6.0838 27.76759 -0.00049
C 6.14028 26.34278 0.00848
C 4.94382 25.63108 -0.01303
C 4.85259 24.21742 -0.01378
C 6.11287 23.47041 0.02635
C 6.05545 22.1379 0.0127
C 4.88888 21.31809 0.01396
C 4.95546 19.89618 0.01849
C 3.65369 6.39876 0.01087
C 2.33093 7.14292 -0.05697
C 2.39768 8.52162 -0.00725
C 3.69786 9.30323 0.02322
C 3.65176 30.52702 -0.01509
C 2.44225 29.84328 0.03267
C 2.4532 28.48689 0.02374
C 3.68521 27.72661 0.00402
C 3.74875 26.39178 0.0073
C 2.52147 25.63105 0.0174
C 2.50737 24.14234 0.03828
C 3.63137 23.37525 0.01226
C 3.60786 21.94247 -0.00279
C 6.1604 19.22188 -0.01142
C 2.36423 21.28056 0.01996
C 3.67596 19.18059 0.01465
C 3.70772 17.78765 -0.00074
C 2.45986 17.11308 -0.00518
C 2.48671 15.66538 0.0086
C 3.75044 14.95493 -0.00643
C 3.72 13.5174 0.017
C 2.50495 12.79745 -0.03113
C 2.42787 11.40566 -0.02566
C 3.66795 10.75685 -0.00094
C 2.37119 19.89903 -0.03996
C 6.14142 17.79542 -0.00562
C 4.88147 17.04126 -0.00494
C 4.95339 15.62404 0.00054
C 8.55505 9.23816 -0.00191
C 7.30401 8.57164 0.00438
C 7.37534 7.1714 0.01291
C 8.52417 6.4559 0.00093
C 8.63834 4.99101 0.00057
C 7.42993 4.22129 -0.01634
C 7.36928 2.88204 -0.00334
C 8.61927 2.12305 0.02339
C 8.6253 0.6574 0.01641
C 8.68285 10.71853 0.00373
C 7.31985 0.02543 -0.00719
C 9.62941 21.25706 -0.01062
C 9.92761 19.97578 -0.00033
C 11.16027 19.33528 0.03589
C 11.1499 17.72914 -0.02759
C 9.91767 17.04641 0.0402
C 11.0736 14.99719 0.00572
C 10.99559 13.5964 0.03592
C 9.81387 12.76553 0.00406
C 9.85115 11.33643 0.00943
C 9.68047 32.65257 0.01364
C 19.63254 2.83411 0.00654
C 7.40413 11.39202 0.02147
C 8.6091 17.66811 -0.01118
C 5.01632 12.87274 0.03007
C 4.87766 11.47452 -0.00095
C 6.1774 10.78189 0.01572
C 6.1407 9.37688 -0.04848
C 4.90898 8.60057 -0.00892
C 4.91233 7.15596 -0.01362
C 6.13184 6.42111 -0.0008
C 6.18178 5.02392 0.0288
C 4.90805 4.35996 0.00393
C 7.38932 17.1292 -0.014
C 4.86707 2.87717 0.00895
C 6.06707 0.71757 0.02888
C 4.89559 0.06983 -0.00482
C 7.35891 32.63469 -0.01384
C 8.57072 31.95265 0.03693
C 7.37051 29.84682 0.01745
C 8.56293 22.08035 0.00488
C 7.38393 21.46881 -0.01004
C 7.40959 19.91264 -0.02896
C 8.6799 19.27115 -0.00131
C 6.04156 2.12719 0.00685
C 20.8655 2.14742 -0.00703
C 20.82067 0.73482 -0.04076
C 19.58655 0.06929 -0.00652
C 29.45284 2.86044 0.02108
C 30.64176 2.15449 0.00716
C 30.69614 0.7949 0.00307
C 29.47613 34.06568 0.00346
C 31.9649 32.65985 0.01713
C 33.18071 31.96494 -0.01694
C 33.16993 30.61191 0.01428
C 31.94227 29.8636 -0.02142
C 31.9648 28.42995 0.0544
C 33.15508 27.75729 0.00026
C 33.20701 26.30764 0.00682
C 32.04278 25.59611 -0.01779
C 31.94189 24.16819 0.03794
C 33.18211 23.55044 0.01927
C 33.15593 22.07374 0.01574
C 31.92376 21.25405 -0.02383
C 32.02992 19.84813 -0.01429
C 33.22098 19.18334 -0.0136
C 33.17736 17.71368 0.00594
C 29.5445 4.25101 0.0103
C 30.74653 4.96953 0.07705
C 30.73424 6.39305 0.01908
C 29.48849 7.12148 0.01518
C 29.50852 28.3499 0.00924
C 30.70908 27.65158 0.02326
C 30.79702 26.32127 0.00261
C 29.54172 25.60897 0.03265
C 29.54523 24.12424 -0.02049
C 30.76122 23.34997 -0.01854
C 30.71703 21.97172 -0.01415
C 29.5184 21.26807 -0.03039
C 29.47557 19.9109 0.01836
C 31.96201 17.00998 -0.02474
C 30.81742 19.10728 0.03531
C 29.46491 17.09037 0.0101
C 29.46586 15.6023 0.01705
C 30.65751 14.85644 -0.0405
C 30.78754 13.49743 -0.01303
C 29.55658 12.774 -0.01461
C 29.56343 11.31082 -0.02155
C 30.71595 10.60103 -0.00944
C 30.72829 9.20674 -0.03735
C 29.45467 8.48969 -0.00971
C 30.67492 17.72617 -0.00669
C 31.92743 15.55443 0.00369
C 33.18568 14.92617 0.00455
C 33.25647 13.4842 -0.00644
C 34.3371 21.40537 -0.02213
C 34.39012 19.90632 0.01951
C 1.16853 19.19026 -0.01678
C 1.14615 17.75785 0.01223
C 0.02165 17.05861 0.00648
C 0.01085 15.67076 0.02114
C 1.28558 15.00238 -0.02957
C 1.27873 13.55278 0.00343
C 0.05046 12.84433 -0.02656
C 1.13018 22.12147 0.02712
C 34.42839 11.36318 -0.02442
C 1.23667 9.25899 -0.00583
C 34.40322 8.49392 -0.02302
C 0.00137 7.15934 -0.02849
C 1.19463 6.36879 0.02931
C 1.24203 4.93457 0.00628
C 34.36445 4.22573 -0.0345
C 34.3456 2.84786 -0.00931
C 1.14687 2.07856 -0.00939
C 1.21187 0.71633 -0.00468
C 1.23467 10.69292 -0.00027
C 29.49533 29.82093 0.0014
C 1.19223 23.46938 0.00723
C 0.01414 25.63489 -0.05239
C 32.03183 12.76434 -0.01839
C 31.9666 11.36191 0.00137
C 33.23161 10.67936 0.00199
C 33.23298 9.21388 0.04381
C 31.96944 8.41996 0.02806
C 31.93569 7.07048 0.01504
C 33.20568 6.36095 -0.00069
C 33.2287 4.90926 0.04926
C 31.95009 4.23118 -0.03838
C 34.40928 24.21021 0.03076
C 31.86162 2.83 0.00349
C 33.16315 0.69941 -0.00841
C 31.90952 34.05729 0.0001
C 34.41578 32.67398 -0.02927
C 1.18093 31.9178 -0.01404
C 1.23273 30.54715 0.01027
C 34.42086 29.85256 0.01831
C 34.42359 28.43941 -0.01037
C 1.20629 27.65881 -0.00439
C 1.27274 26.34949 -0.00598
C 33.05976 2.13132 -0.00323
C 3.66588 31.92332 0.00643
C 30.67782 30.50704 0.01324
C 29.45656 32.68071 0.01177
C 23.32066 2.07006 0.03374
C 23.37238 0.62392 -0.02845
C 22.06144 34.00791 -0.03213
C 24.61367 32.61577 0.02239
C 25.89991 31.95159 0.01153
C 25.84576 30.59212 0.02734
C 24.67336 29.79198 -0.0055
C 24.60531 28.32673 0.01515
C 25.84869 27.58287 -0.00225
C 25.86304 26.20719 0.00071
C 24.60927 25.49581 -0.01107
C 24.65462 24.08221 -0.01586
C 25.85998 23.39397 -0.01971
C 25.83013 22.02891 -0.02118
C 24.55466 21.20879 0.00733
C 24.49174 19.83696 -0.00178
C 25.71123 19.18056 0.00768
C 25.67399 17.75042 -0.0276
C 24.49529 16.94448 0.03005
C 22.03679 2.80664 0.0296
C 22.01476 4.18509 0.03046
C 23.38148 4.88625 -0.00381
C 23.32963 6.39458 0.01852
C 22.11614 32.58453 0.0058
C 23.36507 31.86114 -0.00865
C 23.42305 30.47973 0.00675
C 22.19616 29.74071 -0.00311
C 22.15929 28.34013 0.00742
C 23.39509 27.60595 -0.01594
C 23.30983 26.26118 0.0106
C 21.95108 25.55211 -0.01154
C 22.18216 24.15385 -0.01721
C 24.56867 15.63474 -0.04078
C 23.2307 23.45317 -0.02422
C 22.26319 15.59772 0.00096
C 23.44964 14.85799 -0.01527
C 23.35356 13.42821 0.01087
C 22.15674 12.78995 0.00199
C 22.09185 11.31827 0.01511
C 23.34595 10.60962 -0.00478
C 23.3381 9.19562 -0.01662
C 22.08573 8.52375 -0.01185
C 22.08938 7.10814 0.01126
C 23.53685 22.0663 0.01277
C 25.83443 14.84942 0.02117
C 25.79729 13.49577 0.02737
C 24.553 12.70225 -0.00498
C 26.95207 19.91145 -0.02815
C 28.25047 19.20147 -0.00942
C 28.25615 17.82681 0.00487
C 26.98595 17.05061 0.00826
C 27.06779 15.62605 -0.00294
C 28.24442 14.94578 0.00152
C 28.32645 13.49938 0.01257
C 27.12872 12.73178 0.02316
C 27.05106 11.39937 0.04185
C 27.0353 21.29382 0.00622
C 28.25236 10.6482 0.00194
C 26.94687 8.49879 0.02611
C 27.01993 7.07796 0.02198
C 28.23703 6.42092 0.01094
C 28.39049 5.0634 0.00235
C 27.00138 4.26718 0.01495
C 27.04652 2.84841 0.01259
C 28.19035 2.123 0.01799
C 28.22765 0.74135 0.01699
C 27.09488 0.04781 -0.00416
C 28.29139 9.21236 -0.00621
C 30.76293 31.93119 0.04266
C 28.32887 22.0284 -0.0032
C 27.09658 24.13197 -0.01654
C 24.57972 11.32786 0.00135
C 25.76793 10.63986 0.03102
C 25.78358 9.18729 0.02555
C 24.55901 8.50758 0.01423
C 24.53156 7.0345 -0.00285
C 25.7275 6.35409 -0.009
C 25.80991 4.94272 -0.01199
C 24.55102 4.13674 -0.00229
C 24.52097 2.78914 -0.00938
C 28.32244 23.4374 -0.00037
C 25.78708 2.13348 -0.0264
C 24.55996 34.00784 0.00684
C 27.02814 32.66328 -0.01052
C 28.29127 31.93178 -0.01679
C 28.27248 30.5144 0.00367
C 27.04612 29.78904 0.04306
C 27.00359 28.31665 0.00996
C 28.30478 27.66146 0.00195
C 28.32418 26.28889 -0.00802
C 27.09433 25.47024 -0.00218
C 25.75428 0.70647 -0.01154
C 2.43458 32.5885 0.00907
