377
Graphene
C 34.39817 34.0555 0.01295
C 12.30828 21.3396 0.03542
C 12.32005 19.9803 0.02299
C 13.58155 19.25579 0.00244
C 13.53615 17.89715 -0.01717
C 12.37994 17.13301 0.05265
C 12.14915 15.75888 -0.01952
C 12.3183 2.64325 -0.02813
C 13.29976 2.0024 0.00374
C 13.6114 0.51138 0.00052
C 12.36821 34.04473 -0.03682
C 14.81232 32.62647 0.01965
C 16.0573 31.91194 0.02058
C 16.00692 30.49527 -0.01957
C 14.77462 29.77106 -0.0108
C 14.71389 28.34214 -0.00368
C 15.92058 27.57934 -0.02696
C 15.94067 26.23415 -0.00114
C 14.70546 25.54515 0.00228
C 14.74444 24.0451 0.00798
C 13.51857 22.04004 0.01416
C 13.46284 23.44535 0.01945
C 12.27702 24.11623 -0.01454
C 12.24426 25.5833 0.01241
C 9.80517 21.34476 -0.00428
C 9.79377 19.88059 0.03101
C 11.05143 19.19586 -0.01536
C 11.07017 17.78485 -0.02689
C 9.88326 17.1121 -0.01046
C 9.88239 15.63054 -0.00891
C 11.08033 14.98529 0.02819
C 9.91378 12.80386 0.00165
C 9.94654 4.26962 -0.02971
C 15.96609 23.42873 0.00422
C 9.81841 2.8649 0.02894
C 11.04824 0.73814 0.00444
C 9.79465 0.07048 -0.00925
C 12.3494 32.60527 0.01877
C 13.62912 31.93956 0.01363
C 13.61574 30.54758 -0.02162
C 12.37616 29.87046 0.00415
C 12.30405 28.43777 -0.0014
C 13.47111 27.66343 0.02162
C 13.52346 26.22551 0.0076
C 11.00244 2.14768 -0.01789
C 11.07033 22.07716 -0.02245
C 16.05011 21.96208 0.0351
C 14.77639 19.928 0.02098
C 19.62011 32.68017 -0.01979
C 20.79604 31.93053 0.02691
C 20.89367 30.47353 -0.01581
C 19.68617 29.78821 0.01452
C 19.64464 28.31145 0.04892
C 20.91505 27.6517 -0.00111
C 20.90611 26.20138 -0.03557
C 19.68 25.53574 0.03754
C 19.65496 24.10474 0.01739
C 20.87487 23.37171 0.00755
C 20.94948 21.95148 -0.0054
C 19.67532 21.25503 0.00667
C 19.6925 19.81159 0.00143
C 20.82404 19.02805 -0.017
C 20.8613 17.63466 0.00364
C 19.64554 16.90477 -0.00831
C 19.81174 15.4562 -0.02957
C 20.97604 14.90084 -0.04422
C 19.51294 2.72953 0.00654
C 17.16147 0.06262 0.02188
C 18.3287 0.77917 -0.00316
C 18.41994 2.20907 -0.0331
C 17.26066 16.99368 -0.0258
C 15.99773 19.17889 0.01848
C 16.00233 17.62628 -0.00619
C 14.67743 17.09691 -0.02162
C 15.94121 0.79616 0.00889
C 14.81865 34.00947 -0.00481
C 17.20923 32.74446 0.00979
C 18.41813 31.96657 0.01443
C 18.4391 30.48189 0.03505
C 17.24972 29.7173 -0.02815
C 14.81738 21.28803 -0.03113
C 17.18031 28.31394 -0.04147
C 18.42015 26.23497 0.00213
C 17.16355 25.55923 -0.00066
C 17.25225 24.1406 -0.00289
C 18.48572 23.37078 0.00028
C 18.50302 21.97171 -0.02213
C 17.27932 21.27275 0.03698
C 17.22068 19.82525 -0.00109
C 18.44695 19.11267 -0.00491
C 18.42029 17.69706 0.03338
C 18.40918 27.65855 -0.05302
C 11.02848 23.50282 0.00985
C 9.81419 24.22976 -0.01275
C 9.7629 25.57436 -0.01111
C 3.64318 0.76829 0.00988
C 2.4158 34.07912 0.0276
C 4.93489 32.74203 0.01305
C 6.15047 32.03151 -0.00077
C 6.12933 30.61357 0.03368
C 4.86351 29.85617 -0.02929
C 4.87664 28.48341 -0.00966
C 6.08987 27.7373 -0.03337
C 6.10859 26.2943 0.01227
C 4.87464 25.62862 0.00873
C 4.78991 24.17145 -0.00049
C 6.10489 23.50448 0.00848
C 6.09603 22.08065 -0.01303
C 4.8126 21.3974 -0.01378
C 4.89362 19.93466 0.02635
C 6.15303 19.33829 0.0127
C 6.15377 17.84583 0.01396
C 6.10521 10.58051 0.01849
C 6.34134 9.20889 -0.01142
C 3.66527 2.16758 -0.01343
C 2.40768 2.82813 0.01087
C 2.35704 4.30135 -0.05697
C 3.60828 5.02188 -0.00725
C 3.65292 30.56665 0.03267
C 2.43653 29.89855 0.02374
C 2.41699 28.39955 0.00402
C 3.64246 27.75652 0.0073
C 3.59101 26.32153 0.0174
C 2.41174 25.60367 0.03828
C 2.48509 24.21617 0.01226
C 3.55092 23.46173 -0.00279
C 3.61727 22.09153 0.01996
C 5.02487 8.50251 -0.00562
C 2.43759 21.36846 -0.03996
C 3.64624 19.29284 -0.00074
C 3.5483 17.9058 -0.00518
C 2.47167 17.25422 0.0086
C 2.5893 11.27576 -0.00643
C 3.7008 10.50349 0.017
C 3.73103 9.11052 -0.03113
C 2.46875 8.479 -0.02566
C 2.48369 7.14658 -0.00094
C 3.69662 6.44578 0.02322
C 2.38409 19.93584 0.01465
C 4.93279 7.12885 -0.00494
C 6.14141 6.45602 0.00054
C 6.14157 5.0257 0.03007
C 7.31448 12.88977 0.00438
C 7.17807 11.45112 0.01291
C 8.35908 10.72616 0.00093
C 8.7471 9.42538 0.00057
C 7.59714 8.59551 -0.01634
C 7.37692 7.15975 -0.00334
C 8.40168 6.24757 0.02339
C 8.69706 4.94842 0.01641
C 7.39697 4.30828 -0.00719
C 8.69292 13.55202 -0.00191
C 7.39957 2.85354 0.01364
C 8.5699 0.76839 -0.00033
C 7.33496 0.09601 0.03589
C 9.81392 32.68974 -0.02759
C 11.09098 31.93522 0.0402
C 11.12812 30.47845 0.00572
C 9.83157 29.89273 0.03592
C 9.78049 28.45954 0.00406
C 11.01042 27.7037 0.00943
C 11.0076 26.27696 0.02841
C 8.65464 2.20667 -0.01062
C 20.88228 2.19064 -0.00703
C 8.64342 14.92698 0.00373
C 7.25839 17.07513 -0.014
C 4.86555 4.38957 -0.00095
C 4.882 2.94849 0.01572
C 6.07681 2.20072 -0.04848
C 6.10823 0.77631 -0.00892
C 4.87575 0.05521 -0.01362
C 7.32257 32.77171 -0.0008
C 8.58456 32.0138 0.0288
C 8.6033 30.58595 0.00393
C 7.38316 29.84943 0.00895
C 7.52226 15.7287 0.02147
C 7.36562 28.459 0.00685
C 8.58572 26.36261 -0.00482
C 7.37709 25.63553 -0.01384
C 7.35678 24.29279 0.03693
C 8.54401 23.50449 0.01745
C 8.60758 22.11356 0.00488
C 7.31046 21.36753 -0.01004
C 7.39072 19.94239 -0.02896
C 8.57886 19.23369 -0.00131
C 8.61242 17.7988 -0.01118
C 8.59805 27.7238 0.02888
C 3.67811 31.99285 -0.01509
C 20.71996 0.81131 -0.04076
C 22.0423 32.62353 0.0058
C 29.5103 4.29533 0.00716
C 29.5253 2.88457 0.00307
C 30.70413 2.16473 0.00346
C 30.7046 0.72244 0.01713
C 29.49689 34.04994 -0.01694
C 31.94426 32.68573 0.01428
C 33.15148 31.98403 -0.02142
C 33.14315 30.60492 0.0544
C 31.92738 29.84577 0.00026
C 31.96551 28.40504 0.00682
C 33.16321 27.66357 -0.01779
C 33.21974 26.27819 0.03794
C 31.92278 25.57486 0.01927
C 31.90355 24.1241 0.01574
C 33.16754 23.42604 -0.02383
C 33.14495 22.00087 -0.01429
C 31.94333 21.25518 -0.0136
C 31.97286 19.8446 0.00594
C 33.20248 19.17216 -0.02474
C 30.76899 4.9922 0.02108
C 30.70088 6.36932 0.0103
C 29.53404 7.11146 0.07705
C 29.44579 8.5304 0.01908
C 29.53251 29.77915 0.02326
C 29.47859 28.38719 0.00261
C 30.6985 27.75777 0.03265
C 30.69432 26.29891 -0.02049
C 29.48064 25.51611 -0.01854
C 29.43825 24.08812 -0.01415
C 30.72364 23.38845 -0.03039
C 30.7458 21.96431 0.01836
C 29.55225 21.24976 0.03531
C 33.21621 17.69102 0.00369
C 29.51912 19.85531 -0.00669
C 30.6562 17.73116 0.01705
C 29.51038 17.05375 -0.0405
C 29.53729 15.66771 -0.01303
C 30.71325 14.92185 -0.01461
C 30.80239 13.48373 -0.02155
C 29.53215 12.74235 -0.00944
C 29.49538 11.38641 -0.03735
C 30.71089 10.64063 -0.00971
C 30.74565 9.22011 0.01518
C 30.73075 19.16689 0.0101
C 30.71394 30.53805 0.00924
C 31.9284 17.03262 0.00455
C 33.18665 14.90216 -0.01839
C 1.15782 22.03604 0.01951
C 34.36084 21.33015 -0.01678
C 34.37901 19.85796 0.01223
C 1.20127 19.16387 0.00648
C 1.14276 17.72044 0.02114
C 34.43034 16.99798 -0.02957
C 0.00331 15.61179 0.00343
C 0.04888 12.83668 -0.02656
C 0.0668 11.49494 -0.02442
C 1.31436 10.83901 -0.00027
C 1.31187 9.29598 -0.00583
C 0.05689 8.53726 -0.02302
C 0.0099 7.12005 -0.02849
C 1.25588 6.43917 0.02931
C 1.19046 5.0415 0.00628
C 34.41112 4.2719 -0.0345
C 34.35349 2.84011 -0.00931
C 1.14872 2.13104 -0.00939
C 1.20889 0.68276 -0.00468
C 1.22737 23.4659 -0.02213
C 34.38886 24.19052 0.02712
C 34.42806 25.57584 0.00723
C 1.17314 26.26203 0.03076
C 33.25007 13.48524 0.00137
C 32.0186 12.79432 0.00199
C 31.99781 11.38564 0.04381
C 33.3184 10.67294 0.02806
C 33.25221 9.27531 0.01504
C 31.99597 8.52431 -0.00069
C 31.96259 7.07133 0.04926
C 33.18581 6.36505 -0.03838
C 33.17782 4.99489 0.00349
C 31.98716 15.62563 -0.00644
C 31.92677 4.2787 -0.00323
C 33.08711 2.17307 0.0001
C 33.13138 0.70541 -0.02927
C 31.93364 34.0738 -0.01404
C 34.38225 32.64336 0.01027
C 1.1986 31.96456 0.01831
C 1.21786 30.6137 -0.01037
C 34.39844 29.8987 -0.00439
C 34.37769 28.43602 -0.00598
C 1.17544 27.72026 -0.05239
C 31.89698 2.87834 -0.00841
C 30.73078 31.97205 0.0014
C 29.47179 32.63123 0.01324
C 27.02028 34.07961 0.04266
C 22.13567 2.8938 -0.02845
C 23.31551 2.08123 -0.03213
C 23.23747 0.71928 0.02239
C 21.92791 34.06991 0.01153
C 24.57958 32.64263 0.02734
C 25.77461 31.93777 -0.0055
C 25.80692 30.53748 0.01515
C 24.57363 29.76267 -0.00225
C 24.60859 28.34831 0.00071
C 25.84258 27.55091 -0.01107
C 25.82244 26.14679 -0.01586
C 24.57806 25.48849 -0.01971
C 24.6207 24.05505 -0.02118
C 25.81804 23.36974 0.00733
C 25.8264 21.89822 -0.00178
C 24.57811 21.20108 0.00768
C 24.596 19.82632 -0.0276
C 25.81445 19.19795 0.03005
C 25.76023 17.75929 -0.04078
C 22.11966 4.22358 0.03374
C 23.23058 5.01276 0.0296
C 23.4515 6.35296 0.03046
C 23.17142 9.22968 -0.00381
C 23.36877 31.92453 -0.00865
C 23.38742 30.47016 0.00675
C 22.09696 29.76663 -0.00311
C 22.13197 28.33101 0.00742
C 23.36907 27.59513 -0.01594
C 23.37455 26.19236 0.0106
C 22.12688 25.52034 -0.01154
C 22.1468 24.1089 -0.01721
C 23.36209 23.39809 -0.02422
C 24.57552 17.03496 0.02117
C 23.41738 21.90993 0.01277
C 22.04701 19.80672 -0.01527
C 23.32168 19.14087 0.01087
C 23.33609 17.69706 0.00199
C 22.09832 16.95795 0.01511
C 22.22767 15.58971 -0.00478
C 23.38675 14.84609 -0.01662
C 23.34106 13.46924 -0.01185
C 22.13738 12.85398 0.01126
C 23.36074 10.62544 0.01852
C 22.10171 21.22969 0.00096
C 24.5823 15.56333 0.02737
C 25.81604 14.90615 -0.00498
C 25.7989 13.4937 0.00135
C 27.0371 21.28092 -0.00942
C 27.01788 19.87725 0.00487
C 28.2367 19.17483 0.00826
C 28.2245 17.74354 -0.00294
C 26.98006 17.05582 0.00152
C 27.01949 15.63504 0.01257
C 28.27366 14.96275 0.02316
C 28.33445 13.53242 0.04185
C 27.03822 12.78082 0.00194
C 28.29083 21.9512 -0.02815
C 27.03843 11.32823 -0.00621
C 28.17281 9.22731 0.02198
C 26.9274 8.56454 0.01094
C 27.03103 7.14325 0.00235
C 28.29214 6.44459 0.01495
C 28.23451 4.97149 0.01259
C 27.04096 4.28615 0.01799
C 26.98594 2.84333 0.01699
C 28.292 2.17511 -0.00416
C 28.23759 0.73183 0.01177
C 28.25252 10.62112 0.02611
C 19.5714 0.06881 -0.00652
C 28.22278 23.37417 0.00622
C 27.03614 25.49386 -0.00037
C 24.57562 12.82609 0.03102
C 24.5699 11.36148 0.02555
C 25.80248 10.65284 0.01423
C 25.68887 9.24923 -0.00285
C 24.45572 8.5981 -0.009
C 24.59303 7.10506 -0.01199
C 25.81224 6.44464 -0.00229
C 25.7383 4.97268 -0.00938
C 24.5236 4.21296 -0.0264
C 27.0788 24.09187 -0.0032
C 24.57902 2.83516 -0.01154
C 25.76721 0.72304 -0.01052
C 24.5947 34.06238 -0.01679
C 26.99401 32.65893 0.00367
C 28.25538 31.96186 0.04306
C 28.24921 30.49964 0.00996
C 27.00591 29.78061 0.00195
C 27.11171 28.32941 -0.00802
C 28.3188 27.62481 -0.00218
C 28.28561 26.19519 -0.01654
C 25.78754 2.16172 0.00684
C 2.46834 32.65466 0.00643
