432
Graphene
C 0.02411 34.01376 0.01295
C 13.48075 17.80833 0.01364
C 12.29905 17.07419 -0.01062
C 12.24676 15.67932 -0.00033
C 13.50467 14.9452 0.03589
C 13.53956 13.52765 -0.02759
C 12.28675 12.88894 0.0402
C 12.29054 11.42529 0.00572
C 13.55164 10.65389 0.03592
C 13.47376 9.22257 0.00406
C 12.22198 8.56438 0.00943
C 12.22745 7.11396 0.02841
C 13.47369 6.38845 -0.01111
C 13.4689 4.82568 -0.01275
C 12.18724 4.2209 0.00985
C 12.26613 2.73512 -0.02245
C 13.59239 2.03268 -0.00428
C 13.54352 0.55924 0.03101
C 12.26242 0.04731 -0.01536
C 14.78976 32.49297 -0.02689
C 16.02466 31.79898 -0.01046
C 14.63749 24.32093 -0.00891
C 15.94744 23.64726 0.02819
C 15.88435 22.16968 0.00165
C 13.56432 19.20551 -0.00719
C 14.69664 21.36186 -0.02971
C 12.24839 19.9585 0.01641
C 13.49902 22.03828 -0.00334
C 11.01584 17.84472 0.0288
C 9.80531 17.14254 0.00393
C 9.76599 15.7477 0.00895
C 11.00919 14.96725 0.00685
C 11.03667 13.54251 0.02888
C 9.78787 12.86818 -0.00482
C 9.82244 11.41511 -0.01384
C 11.02364 10.65833 0.03693
C 11.03953 9.28916 0.01745
C 9.83409 8.58436 0.00488
C 9.80738 7.16263 -0.01004
C 10.99684 6.39431 -0.02896
C 11.00918 4.95238 -0.00131
C 9.78916 4.33477 -0.01118
C 9.81987 2.9038 -0.014
C 10.96368 2.15973 0.02147
C 10.96885 0.74843 0.00373
C 9.72927 0.03269 -0.00191
C 12.2573 32.72705 0.00438
C 13.52361 31.90673 0.01291
C 12.30707 25.6433 0.00093
C 12.18076 24.23422 0.00057
C 13.50142 23.50398 -0.01634
C 12.27758 21.38298 0.02339
C 11.08251 19.23562 -0.0008
C 14.77132 19.98269 0.02894
C 15.90319 17.7632 0.00444
C 18.39839 19.22593 -0.02696
C 18.40472 17.73229 -0.00114
C 17.14186 17.0712 0.00228
C 17.16148 15.57498 0.00798
C 18.44223 14.86297 0.00422
C 18.3676 13.51308 0.0351
C 17.15767 12.72847 -0.03113
C 17.16197 11.32564 0.02098
C 18.38115 10.63473 0.01848
C 18.41135 9.22669 -0.00619
C 17.21994 8.53396 -0.02162
C 17.09156 7.09419 0.00889
C 18.31713 6.35256 -0.00481
C 18.47691 4.92355 0.00979
C 17.1083 4.19931 0.01443
C 17.22899 2.85445 0.03505
C 18.48931 2.27434 -0.02815
C 18.45844 0.80948 -0.04147
C 17.28142 34.06665 -0.05302
C 19.76782 32.75383 0.00213
C 20.8144 31.93325 -0.00066
C 20.77439 30.41054 -0.00289
C 19.44816 29.70037 0.00028
C 17.22876 19.94391 -0.00368
C 15.98157 19.18746 -0.01789
C 17.07196 21.44625 -0.0108
C 18.38505 23.63703 0.02058
C 14.71361 17.07229 -0.00925
C 14.74033 15.59563 0.01877
C 15.91477 14.81588 0.01363
C 15.90182 13.41677 -0.02162
C 14.72226 12.78162 0.00415
C 14.71343 11.40638 -0.0014
C 15.94503 10.61048 0.02162
C 15.94482 9.26278 0.0076
C 14.72918 8.47401 0.01241
C 14.73505 7.08429 -0.01454
C 15.93858 6.28756 0.01945
C 15.91339 4.92024 0.01416
C 14.70827 4.2278 0.03542
C 14.83874 2.79417 0.02299
C 16.02701 2.03121 0.00244
C 16.01364 0.59136 -0.01717
C 14.78481 34.0039 0.05265
C 17.21456 32.64585 -0.01952
C 18.48706 31.98306 -0.02813
C 18.3375 30.54336 0.00374
C 18.61249 26.4451 0.00052
C 17.40394 25.79665 -0.03682
C 17.24459 24.29189 0.01965
C 18.356 22.17769 -0.01957
C 19.51376 28.20923 -0.02213
C 9.82251 19.95 -0.01362
C 11.07691 22.09317 -0.04848
C 3.64782 2.13861 -0.02805
C 3.71931 0.6904 0.00081
C 2.49368 34.03144 0.00245
C 4.88021 32.72305 0.02728
C 6.11007 32.02382 -0.00039
C 6.10129 30.54135 0.0064
C 4.93145 29.84091 0.00211
C 4.90054 28.42666 -0.00449
C 6.15124 27.78005 -0.01979
C 6.11454 26.35936 0.02784
C 4.93583 25.49138 -0.01977
C 4.9704 24.12773 -0.00561
C 6.15968 23.37389 0.00208
C 6.20664 21.97385 0.01707
C 4.86847 21.26921 0.02769
C 4.88106 19.91685 -0.03291
C 6.0816 19.21072 -0.04999
C 6.10059 17.84893 0.04505
C 4.85507 17.08429 0.03284
C 4.87791 15.63813 -0.04307
C 6.07799 14.92767 0.03189
C 6.10546 13.49008 0.00031
C 4.79817 12.79205 -0.003
C 2.43017 2.82299 -0.01386
C 4.75584 11.4232 0.01402
C 2.39741 4.23987 -0.0059
C 3.64988 6.40255 -0.02375
C 3.73141 30.56861 -0.04306
C 2.46815 29.86082 -0.03672
C 2.49118 28.38417 0.01913
C 3.70895 27.69984 0.00267
C 3.65934 26.2221 0.00787
C 2.44973 25.52053 0.02426
C 2.53091 24.05823 0.01218
C 3.75141 23.41716 -0.01471
C 3.70595 22.03466 -0.02827
C 2.39271 21.34946 0.01078
C 2.37909 19.93769 -0.00112
C 3.59765 19.21626 0.03345
C 3.61708 17.77553 0.00748
C 2.36623 17.0361 0.00662
C 2.40192 15.59035 -0.0154
C 3.57753 14.92845 -0.01299
C 3.55469 13.50319 -0.00407
C 2.32828 12.75135 0.01138
C 2.31629 11.35462 0.03278
C 3.56213 10.68716 -0.00177
C 3.67883 9.25726 0.04421
C 2.42822 8.56307 0.00088
C 2.41299 7.12514 0.00828
C 3.69217 5.06625 0.00558
C 9.8348 21.44067 -0.00892
C 6.03265 10.7611 0.02379
C 4.8803 8.61923 0.00643
C 7.40852 12.80466 0.01305
C 7.36852 11.43734 -0.00077
C 8.57387 10.67641 0.03368
C 8.57099 9.31618 -0.02929
C 7.37032 8.57342 -0.00966
C 7.40924 7.1645 -0.03337
C 8.6097 6.39751 0.01227
C 8.53765 4.96257 0.00873
C 7.37906 4.3301 -0.00049
C 7.36142 2.95709 0.00848
C 8.55838 2.24575 -0.01303
C 8.55045 0.83577 -0.01378
C 7.38622 0.09965 0.02635
C 9.73265 32.67718 0.0127
C 11.07279 31.98399 0.01396
C 11.07 30.55269 0.01849
C 9.77562 29.89005 -0.01142
C 9.80556 28.51687 -0.00562
C 10.9856 27.96088 -0.00494
C 11.20056 26.57291 0.00054
C 9.94747 25.66825 0.03007
C 9.85424 24.23858 -0.00095
C 11.01954 23.48282 0.01572
C 8.59325 13.55761 0.0276
C 6.13322 9.31305 0.00907
C 8.58328 15.02744 0.00988
C 7.29256 17.05001 0.01087
C 4.95952 7.21893 -0.01509
C 6.1298 6.53575 0.03267
C 6.18164 5.105 0.02374
C 4.89589 4.39442 0.00402
C 4.89279 2.95732 0.0073
C 6.12653 2.21248 0.0174
C 6.13492 0.81308 0.03828
C 4.89482 0.04567 0.01226
C 7.31733 32.72302 -0.00279
C 8.47157 32.02979 0.01996
C 8.52244 30.59633 -0.03996
C 7.30539 29.89063 0.01465
C 7.35057 28.42935 -0.00074
C 8.58634 27.68829 -0.00518
C 8.67712 26.30337 0.0086
C 7.42257 25.68867 -0.00643
C 7.38317 24.21759 0.017
C 8.57019 23.53041 -0.03113
C 8.6033 22.0645 -0.02566
C 7.44228 21.29519 -0.00094
C 7.33713 19.91409 0.02322
C 8.53868 19.27182 -0.00725
C 8.52411 17.81098 -0.05697
C 7.29649 15.69552 -0.01343
C 20.82411 27.68518 0.03698
C 20.94443 26.33968 -0.00109
C 19.72334 25.55276 -0.00491
C 30.67974 13.46185 -0.01303
C 29.38753 12.69277 -0.01461
C 29.40056 11.26426 -0.02155
C 30.68857 10.61624 -0.00944
C 30.67361 9.15044 -0.03735
C 29.471 8.4788 -0.00971
C 29.49519 6.98357 0.01518
C 30.73103 6.27793 0.01908
C 30.79833 4.84949 0.07705
C 29.54586 4.24175 0.0103
C 29.56907 2.73287 0.02108
C 30.72849 1.96911 0.00716
C 30.7188 0.56382 0.00307
C 29.48065 33.98162 0.00346
C 31.98127 32.66459 0.01713
C 33.17885 31.87188 -0.01694
C 33.27508 30.49466 0.01428
C 32.02986 29.83782 -0.02142
C 31.93421 28.3753 0.0544
C 33.23027 27.63007 0.00026
C 33.17377 26.24585 0.00682
C 31.92053 25.56036 -0.01779
C 31.95091 24.11259 0.03794
C 30.62859 14.90215 -0.0405
C 33.19218 23.41125 0.01927
C 29.506 15.68056 0.01705
C 30.70479 17.79161 -0.00669
C 26.95973 8.51044 0.02611
C 27.09939 7.07263 0.02198
C 28.28793 6.36222 0.01094
C 28.28602 4.92516 0.00235
C 27.13647 4.18759 0.01495
C 27.10337 2.76542 0.01259
C 28.33708 2.12541 0.01799
C 28.29377 0.69478 0.01699
C 27.12005 34.06114 -0.00416
C 29.49654 32.57922 0.01177
C 30.72644 31.96798 0.04266
C 30.74802 30.54497 0.01324
C 29.52054 29.87725 0.0014
C 29.51643 28.44019 0.00924
C 30.68782 27.73421 0.02326
C 30.73097 26.24185 0.00261
C 29.5075 25.53657 0.03265
C 29.46106 24.18922 -0.02049
C 30.72179 23.4454 -0.01854
C 30.7924 22.09517 -0.01415
C 29.56461 21.34056 -0.03039
C 29.42429 19.93112 0.01836
C 30.694 19.24078 0.03531
C 29.52409 17.0732 0.0101
C 28.20779 9.20511 -0.00621
C 33.19108 21.99444 0.01574
C 31.92244 19.8844 -0.01429
C 0.00445 24.13666 0.03076
C 1.2412 23.42991 0.00723
C 1.16897 21.98073 0.02712
C 34.40095 21.31067 -0.02213
C 34.37079 19.86172 0.01951
C 1.13274 19.16308 -0.01678
C 1.16795 17.77889 0.01223
C 34.40885 17.09344 0.00648
C 34.31818 15.55479 0.02114
C 1.15417 14.9172 -0.02957
C 1.09516 13.40188 0.00343
C 34.26788 12.79836 -0.02656
C 34.27321 11.29742 -0.02442
C 1.10261 10.5347 -0.00027
C 1.15401 9.1675 -0.00583
C 34.33008 8.41836 -0.02302
C 34.31131 7.04063 -0.02849
C 1.14731 6.41481 0.02931
C 1.15342 4.91154 0.00628
C 34.34738 4.27611 -0.0345
C 34.41025 2.80954 -0.00931
C 1.18778 2.05576 -0.00939
C 1.28744 0.62659 -0.00468
C 34.40115 25.55528 -0.05239
C 31.90596 21.39155 -0.02383
C 1.22489 26.25897 -0.00598
C 0.01899 28.37814 -0.01037
C 33.1663 19.21094 -0.0136
C 33.2219 17.74446 0.00594
C 31.94659 17.04478 -0.02474
C 31.89866 15.65968 0.00369
C 33.03127 14.88066 0.00455
C 33.02186 13.42512 -0.00644
C 31.90424 12.67962 -0.01839
C 31.86231 11.34772 0.00137
C 33.10896 10.49054 0.00199
C 33.14814 9.13127 0.04381
C 31.89257 8.47685 0.02806
C 31.87875 7.04417 0.01504
C 33.07836 6.36329 -0.00069
C 33.14946 4.92086 0.04926
C 31.9794 4.11296 -0.03838
C 31.9542 2.63893 0.00349
C 33.19576 2.0845 -0.00323
C 33.27214 0.72034 -0.00841
C 32.0038 34.02036 0.0001
C 34.40523 32.6329 -0.02927
C 1.17804 31.88464 -0.01404
C 1.22663 30.47913 0.01027
C 0.04439 29.75484 0.01831
C 1.18264 27.69125 -0.00439
C 28.19758 10.60021 0.00194
C 27.01941 11.37501 0.04185
C 27.03637 12.84052 0.02316
C 22.12312 28.37307 0.0058
C 23.37942 27.63255 -0.00865
C 23.38099 26.25674 0.00675
C 22.16379 25.58055 -0.00311
C 22.16408 24.16114 0.00742
C 23.36243 23.48378 -0.01594
C 23.27963 21.97639 0.0106
C 22.06713 21.31687 -0.01154
C 22.1318 19.90126 -0.01721
C 23.35154 19.20799 -0.02422
C 23.35446 17.77975 0.01277
C 22.11702 17.10829 0.00096
C 22.11659 15.61331 -0.01527
C 23.30892 14.93466 0.01087
C 23.3367 13.45343 0.00199
C 22.10725 12.78983 0.01511
C 22.01438 11.34398 -0.00478
C 23.25422 10.6294 -0.01662
C 23.306 9.18555 -0.01185
C 22.02029 8.28682 0.01126
C 21.99446 6.81598 0.01852
C 23.22105 6.08341 -0.00381
C 23.21527 4.59988 0.03046
C 21.99053 29.74597 -0.00652
C 22.38079 3.12751 0.0296
C 23.30547 30.50107 -0.04076
C 22.04734 32.59107 0.00654
C 19.67703 24.15831 0.03338
C 20.85103 23.48347 -0.0258
C 20.87562 22.02671 -0.0331
C 19.56927 21.35499 -0.00316
C 19.64159 19.9448 0.02188
C 20.81117 19.25005 -0.01979
C 20.80541 17.7154 0.02691
C 19.5733 17.02396 -0.01581
C 19.59226 15.59971 0.01452
C 20.84619 14.93817 0.04892
C 20.86731 13.49389 -0.00111
C 19.68628 12.81613 -0.03557
C 19.5779 11.33725 0.03754
C 20.81493 10.61576 0.01739
C 20.82242 9.13383 0.00755
C 19.61007 8.502 -0.0054
C 19.60833 7.01512 0.00667
C 20.59529 6.06892 0.00143
C 19.86044 4.67514 -0.017
C 19.78424 3.08594 0.00364
C 21.01515 2.46373 -0.00831
C 20.96406 0.90295 -0.02957
C 19.72063 0.12616 -0.04422
C 23.24965 31.93673 -0.00703
C 23.43516 2.24154 0.03374
C 23.41641 0.74716 -0.02845
C 22.08754 0.07431 -0.03213
C 24.69498 2.7913 -0.00938
C 25.86203 2.0571 -0.0264
C 25.84183 0.5707 -0.01154
C 24.59107 0.02024 0.00684
C 27.07829 32.72303 -0.01052
C 28.23601 31.90924 -0.01679
C 28.23971 30.49443 0.00367
C 26.99745 29.83083 0.04306
C 27.04925 28.41128 0.00996
C 28.2577 27.69612 0.00195
C 28.30505 26.26876 -0.00802
C 27.02468 25.53244 -0.00218
C 27.01228 24.16702 -0.01654
C 28.2033 23.45693 -0.00037
C 28.259 22.00153 -0.0032
C 27.11118 21.30594 0.00622
C 27.0087 19.89934 -0.02815
C 28.25328 19.165 -0.00942
C 28.26006 17.74343 0.00487
C 27.00528 17.04069 0.00826
C 26.95446 15.58797 -0.00294
C 28.22114 14.96052 0.00152
C 28.20214 13.49804 0.01257
C 24.57529 4.17225 -0.00229
C 25.8138 4.85312 -0.01199
C 25.81981 6.29026 -0.009
C 24.50845 7.01592 -0.00285
C 24.51483 32.66513 0.02239
C 25.71181 31.98193 0.01153
C 25.81713 30.58426 0.02734
C 24.5086 29.81812 -0.0055
C 24.53899 28.41112 0.01515
C 25.75596 27.7371 -0.00225
C 25.81691 26.23876 0.00071
C 24.56081 25.53801 -0.01107
C 24.57717 24.14214 -0.01586
C 25.77623 23.50149 -0.01971
C 25.79086 21.9988 -0.02118
C 3.69447 31.98276 -0.00012
C 24.49491 21.34044 0.00733
C 25.81986 19.25827 0.00768
C 25.78403 17.80347 -0.0276
C 24.6001 17.06098 0.03005
C 24.52131 15.68131 -0.04078
C 25.69232 14.94394 0.02117
C 25.79637 13.52395 0.02737
C 24.56858 12.79943 -0.00498
C 24.46625 11.33794 0.00135
C 25.72198 10.68494 0.03102
C 25.77958 9.24739 0.02555
C 24.57119 8.43229 0.01423
C 24.53075 19.93611 -0.00178
C 2.46369 32.60432 -0.00198
