332
Graphene
C 34.37313 34.07111 0.01295
C 16.14683 4.99955 0.03505
C 14.86382 4.52931 -0.02815
C 14.798 2.90411 -0.04147
C 15.97339 2.16784 -0.05302
C 16.05488 0.62452 0.00213
C 14.82046 0.00507 -0.00066
C 17.17102 32.47715 -0.00289
C 15.93862 13.28459 0.01443
C 18.28333 31.7406 0.00028
C 18.47105 13.21394 0.03698
C 17.23114 13.15311 -0.00109
C 18.61262 10.51101 -0.00491
C 18.56091 9.19983 0.03338
C 17.15794 7.07199 -0.0258
C 18.52672 6.42191 -0.0331
C 18.5291 4.99715 -0.00316
C 18.41099 30.3497 -0.02213
C 16.01077 31.80385 0.00979
C 14.77234 32.47946 -0.00481
C 12.33742 0.07824 0.00889
C 11.15314 31.83536 -0.03682
C 11.07999 30.55412 0.01965
C 9.78336 30.05544 0.02058
C 9.64469 12.88902 -0.01957
C 10.98335 5.0667 -0.0108
C 9.86741 4.30293 -0.00368
C 9.87709 2.88966 -0.02696
C 11.07058 2.14842 -0.00114
C 11.049 0.71053 0.00228
C 9.80964 34.07685 0.00798
C 12.2397 32.69186 0.00422
C 13.53432 32.24973 0.0351
C 13.53618 4.98535 -0.03113
C 12.2657 4.43078 0.02098
C 12.31919 2.90521 0.01848
C 13.57735 2.18605 -0.00619
C 13.5633 0.6745 -0.02162
C 17.27151 4.19093 0.02188
C 17.26357 2.79762 -0.01979
C 18.43824 2.00896 0.02691
C 18.42314 0.63465 -0.01581
C 23.36599 31.95218 0.00675
C 23.36622 30.56344 -0.00311
C 22.10235 29.85505 0.00742
C 22.15207 28.49603 -0.01594
C 23.31684 27.82398 0.0106
C 23.37126 26.41032 -0.01154
C 23.39057 19.11111 -0.01721
C 23.25891 17.85206 -0.02422
C 22.21836 16.96277 0.01277
C 21.9608 15.57935 0.00096
C 23.3192 14.93439 -0.01527
C 23.31111 13.48004 0.01087
C 22.07696 12.81447 0.00199
C 22.20339 11.43254 0.01511
C 23.4155 10.61842 -0.00478
C 23.40152 9.26382 -0.01662
C 22.14805 8.54794 -0.01185
C 22.08944 32.68088 -0.00865
C 9.85599 32.66747 0.00052
C 19.72091 33.98864 0.0058
C 20.86812 2.14195 -0.04076
C 17.23342 33.97026 0.01452
C 19.53028 32.56562 0.04892
C 20.85793 31.86532 -0.00111
C 20.95095 30.47128 -0.03557
C 19.74919 29.87389 0.03754
C 20.71693 14.97017 0.01739
C 20.84338 13.57789 0.00755
C 19.69294 12.78733 -0.0054
C 19.65165 11.35464 0.00667
C 20.95983 10.67756 0.00143
C 20.94209 9.23239 -0.017
C 19.74462 8.50357 0.00364
C 19.71983 7.1204 -0.00831
C 20.90151 6.35981 -0.02957
C 20.87663 4.9846 -0.04422
C 19.71454 4.23676 0.00654
C 19.63451 2.77805 -0.00703
C 20.84169 0.65804 -0.00652
C 22.15306 7.1157 0.01126
C 7.42659 0.03207 0.00374
C 8.69454 2.19696 -0.01952
C 2.47362 8.46669 -0.01118
C 2.46613 7.05119 -0.014
C 3.67019 6.35959 0.02147
C 3.65553 4.97123 0.00373
C 2.47286 4.21105 -0.00191
C 2.4076 2.81542 0.00438
C 3.67995 2.11995 0.01291
C 3.63448 9.25307 -0.00131
C 3.66961 0.68954 0.00093
C 4.88714 32.72685 -0.01634
C 6.10152 31.96362 -0.00334
C 6.16642 30.49864 0.02339
C 4.88211 29.89028 0.01641
C 4.95021 28.4494 -0.00719
C 6.30121 27.73411 0.01364
C 6.02792 26.43301 -0.01062
C 2.37278 0.01126 0.00057
C 3.62805 10.62329 -0.02896
C 2.40635 11.29919 -0.01004
C 2.36193 12.74877 0.00488
C 3.69211 30.58334 0.00054
C 2.45559 29.85458 0.03007
C 2.44657 28.52251 -0.00095
C 3.68611 27.73444 0.01572
C 3.69941 26.34875 -0.04848
C 2.43376 25.69137 -0.00892
C 2.49665 24.18297 -0.01362
C 3.68996 23.48041 -0.0008
C 3.70401 22.05413 0.0288
C 2.47758 21.28412 0.00393
C 2.47767 19.81979 0.00895
C 3.68766 19.21041 0.00685
C 3.67093 17.68884 0.02888
C 2.47365 17.04374 -0.00482
C 2.40954 15.62739 -0.01384
C 3.63103 14.8382 0.03693
C 3.60639 13.41985 0.01745
C 5.02759 25.5529 -0.00033
C 4.81261 24.2634 0.03589
C 4.85999 21.38298 -0.02759
C 5.0336 19.91967 0.0402
C 8.52212 30.51298 -0.00925
C 7.39367 29.81694 0.01877
C 7.44251 28.44521 0.01363
C 7.06592 16.90199 -0.02162
C 7.34084 15.61047 0.00415
C 8.57458 14.99928 -0.0014
C 8.44708 13.6334 0.02162
C 7.24553 12.70848 0.0076
C 7.41 11.41374 0.01241
C 8.67206 10.74368 -0.01454
C 8.56222 9.38879 0.01945
C 7.5323 8.51436 0.01416
C 7.45201 7.1396 0.03542
C 8.48026 6.27784 0.02299
C 8.65051 4.94351 0.00244
C 7.35406 4.23938 -0.01717
C 7.37177 2.86695 0.05265
C 8.64499 31.91318 0.00444
C 8.62788 0.72644 -0.02813
C 7.44093 32.69973 -0.01789
C 6.07673 0.73311 -0.02971
C 6.17378 19.2846 0.00572
C 6.14376 17.92216 0.03592
C 4.89613 17.00953 0.00406
C 4.8816 15.49417 0.00943
C 6.12869 14.80115 0.02841
C 6.09822 13.45312 -0.01111
C 4.79583 12.75607 -0.01275
C 4.84633 11.29601 0.00985
C 6.16123 10.60803 -0.02245
C 6.17215 9.26276 -0.00428
C 4.93163 8.54415 0.03101
C 4.91772 7.12951 -0.01536
C 6.13519 6.41626 -0.02689
C 6.18969 5.00236 -0.01046
C 4.91861 4.2703 -0.00891
C 4.88652 2.8016 0.02819
C 6.14069 2.13562 0.00165
C 4.90978 34.06482 0.02894
C 23.31744 6.43513 0.01852
C 23.3837 4.98047 -0.00381
C 22.13039 4.28862 0.03046
C 33.20635 27.79766 0.00026
C 33.22093 26.34372 0.00682
C 31.96795 25.62743 -0.01779
C 31.86605 24.18292 0.03794
C 33.20568 23.51519 0.01927
C 33.17339 22.04073 0.01574
C 31.95745 21.36601 -0.02383
C 31.93639 28.46427 0.0544
C 31.94595 19.92071 -0.01429
C 33.16044 17.77222 0.00594
C 31.90251 17.09579 -0.02474
C 31.89719 15.67406 0.00369
C 33.15361 14.94911 0.00455
C 33.12216 13.57103 -0.00644
C 31.85891 12.86041 -0.01839
C 31.89461 11.39003 0.00137
C 33.13602 19.19743 -0.0136
C 31.9161 29.79748 -0.02142
C 33.22807 30.60799 0.01428
C 33.23887 31.94636 -0.01694
C 29.46197 15.65549 0.01705
C 30.60439 14.9356 -0.0405
C 30.67158 13.48528 -0.01303
C 29.50977 12.82451 -0.01461
C 29.49462 11.4216 -0.02155
C 30.67609 10.71184 -0.00944
C 30.73972 9.16618 -0.03735
C 29.53453 8.53778 -0.00971
C 29.54557 7.07552 0.01518
C 30.7789 6.38725 0.01908
C 30.80768 4.92529 0.07705
C 29.561 4.18158 0.0103
C 29.51737 2.81351 0.02108
C 30.76638 2.08128 0.00716
C 30.72343 0.73332 0.00307
C 29.51339 34.05583 0.00346
C 31.98941 32.63211 0.01713
C 33.19588 10.69928 0.00199
C 33.20116 9.31225 0.04381
C 32.01782 8.51997 0.02806
C 31.99718 7.05897 0.01504
C 1.23233 17.7506 0.01223
C 34.40413 17.11401 0.00648
C 34.38799 15.68306 0.02114
C 1.23596 14.95932 -0.02957
C 1.16599 13.54219 0.00343
C 34.36953 12.7968 -0.02656
C 34.38641 11.33918 -0.02442
C 1.20345 10.64022 -0.00027
C 1.23733 9.20434 -0.00583
C 0.01377 8.53608 -0.02302
C 0.01207 7.11218 -0.02849
C 1.17576 6.39683 0.02931
C 1.26665 4.90518 0.00628
C 34.42771 4.18298 -0.0345
C 0.00219 2.77986 -0.00931
C 1.19807 2.02501 -0.00939
C 1.20398 0.66628 -0.00468
C 1.21368 19.14122 -0.01678
C 29.51468 17.05852 0.0101
C 34.34743 19.91128 0.01951
C 1.19878 21.99316 0.02712
C 33.29165 6.30501 -0.00069
C 33.22196 4.92856 0.04926
C 32.04677 4.26286 -0.03838
C 32.02122 2.79543 0.00349
C 33.17333 2.06075 -0.00323
C 33.17119 0.66769 -0.00841
C 31.92162 34.06736 0.0001
C 34.4007 32.70284 -0.02927
C 1.20251 32.02902 -0.01404
C 1.24281 30.58795 0.01027
C 0.07655 29.9139 0.01831
C 0.03284 28.49159 -0.01037
C 1.26873 27.74207 -0.00439
C 1.15183 26.35857 -0.00598
C 34.38224 25.64388 -0.05239
C 34.3815 24.15379 0.03076
C 1.20198 23.46712 0.00723
C 0.00296 21.32398 -0.02213
C 30.71325 17.78539 -0.00669
C 30.72949 19.22048 0.03531
C 29.47879 19.81515 0.01836
C 25.82409 14.88177 0.02117
C 25.79917 13.421 0.02737
C 24.53574 12.75528 -0.00498
C 24.60214 11.3536 0.00135
C 25.92831 10.63941 0.03102
C 25.84794 9.13206 0.02555
C 24.58952 8.4977 0.01423
C 24.6459 7.06323 -0.00285
C 25.8813 6.44462 -0.009
C 25.8668 4.9215 -0.01199
C 24.59735 4.24679 -0.00229
C 24.58041 2.87028 -0.00938
C 25.77658 2.10334 -0.0264
C 25.7613 0.70185 -0.01154
C 24.51737 34.03624 0.00684
C 27.01336 32.63754 -0.01052
C 28.26242 31.98574 -0.01679
C 24.55866 15.59018 -0.04078
C 28.21421 30.46217 0.00367
C 24.5372 16.9702 0.03005
C 25.79347 19.10529 0.00768
C 22.08998 2.89176 0.0296
C 23.31453 2.23737 0.03374
C 23.33752 0.77483 -0.02845
C 22.11461 0.02211 -0.03213
C 24.51948 32.61084 0.02239
C 25.82576 31.94665 0.01153
C 25.86251 30.52952 0.02734
C 24.65495 29.87087 -0.0055
C 24.66515 28.39746 0.01515
C 25.81637 27.62541 -0.00225
C 25.76343 26.15785 0.00071
C 24.31156 25.48852 -0.01107
C 24.69783 24.14749 -0.01586
C 25.72776 23.32196 -0.01971
C 25.83681 21.92756 -0.02118
C 24.55295 21.35335 0.00733
C 24.41584 19.94512 -0.00178
C 25.79664 17.76629 -0.0276
C 3.71866 31.96183 -0.00494
C 27.00299 29.74138 0.04306
C 28.27844 27.58069 0.00195
C 27.04888 4.21163 0.01495
C 27.09465 2.79784 0.01259
C 28.29469 2.10772 0.01799
C 28.22479 0.65654 0.01699
C 26.98048 34.06092 -0.00416
C 29.53275 32.65675 0.01177
C 30.75986 31.9299 0.04266
C 30.70027 30.48333 0.01324
C 29.5146 29.79772 0.0014
C 29.51077 28.40132 0.00924
C 30.7029 27.76586 0.02326
C 30.7344 26.2914 0.00261
C 29.45682 25.56998 0.03265
C 29.42435 24.14482 -0.02049
C 30.74733 23.40854 -0.01854
C 30.75157 22.03023 -0.01415
C 29.49914 21.28414 -0.03039
C 28.34695 4.93292 0.00235
C 27.02169 28.31364 0.00996
C 28.34123 6.36723 0.01094
C 27.03004 8.45658 0.02611
C 28.24788 26.17255 -0.00802
C 26.99628 25.47704 -0.00218
C 27.06502 24.03817 -0.01654
C 28.27632 23.36702 -0.00037
C 28.25626 21.98688 -0.0032
C 27.02865 21.25056 0.00622
C 27.09611 19.84348 -0.02815
C 28.31041 19.16649 -0.00942
C 28.27359 17.74299 0.00487
C 27.04187 17.03151 0.00826
C 26.95516 15.57372 -0.00294
C 28.23634 14.92478 0.00152
C 28.24161 13.51751 0.01257
C 26.98206 12.76524 0.02316
C 27.0213 11.34946 0.04185
C 28.21967 10.63804 0.00194
C 28.23903 9.23098 -0.00621
C 27.10063 7.08386 0.02198
C 2.4453 32.6408 -0.00562
