315
Graphene
C 34.33266 34.02085 0.01295
C 13.6173 21.94744 0.03338
C 12.40022 21.15713 -0.0258
C 12.40096 19.64586 -0.0331
C 13.64211 19.19693 -0.00316
C 11.95925 2.78597 0.02188
C 13.27779 2.25272 -0.01979
C 13.49413 0.88146 0.02691
C 12.24819 0.19901 -0.01581
C 14.63649 32.79671 0.01452
C 15.93521 31.98497 0.04892
C 15.8884 30.49237 -0.00111
C 14.63466 29.82735 -0.03557
C 14.71328 28.48911 0.03754
C 15.98411 27.77213 0.01739
C 15.95792 26.27422 0.00755
C 13.56151 23.35294 -0.00491
C 12.38173 24.07788 -0.00109
C 12.32957 25.56865 0.03698
C 13.60036 26.26472 -0.02213
C 9.84808 24.13495 0.02098
C 11.17075 23.41404 0.01848
C 11.21958 21.84468 -0.00619
C 9.83882 21.30492 -0.02162
C 9.82593 19.73375 0.00889
C 11.09126 19.00819 -0.00481
C 9.53355 3.15263 0.00979
C 14.70725 25.50585 -0.0054
C 10.74248 2.44916 0.01443
C 9.75565 34.06873 -0.02815
C 12.23632 32.74113 -0.04147
C 13.49983 32.08272 -0.05302
C 13.48552 30.66622 0.00213
C 12.25175 29.92714 -0.00066
C 12.25117 28.52669 -0.00289
C 13.58881 27.70993 0.00028
C 10.91731 0.89156 0.03505
C 14.81467 24.08839 0.00667
C 16.06386 23.36341 0.00143
C 16.09687 21.95832 -0.017
C 19.63397 32.73122 -0.01527
C 20.86051 31.93637 0.01087
C 20.86867 30.51746 0.00199
C 19.64931 29.79029 0.01511
C 19.59975 28.38411 -0.00478
C 20.81074 27.72609 -0.01662
C 20.77951 26.26489 -0.01185
C 17.11501 33.93983 0.00096
C 19.53356 25.6179 0.01126
C 20.79062 23.40924 -0.00381
C 20.81042 0.77759 0.03046
C 19.69551 0.03204 0.0296
C 22.1478 32.70527 0.03374
C 23.36233 31.91423 -0.02845
C 23.30928 30.5343 -0.03213
C 22.15679 29.75869 0.02239
C 19.63343 24.16672 0.01852
C 9.943 25.5702 -0.03113
C 17.43478 19.69925 0.01277
C 18.58639 21.90804 -0.01721
C 14.87725 21.27215 0.00364
C 14.84966 19.71368 -0.00831
C 16.12623 19.2291 -0.02957
C 16.44282 17.88138 -0.04422
C 16.02606 0.64644 0.00654
C 14.73597 0.14444 -0.00703
C 17.23577 32.56968 -0.04076
C 17.44375 21.11262 -0.02422
C 18.40013 31.92448 -0.00652
C 17.14378 29.80474 -0.00865
C 17.19365 28.33633 0.00675
C 18.40847 27.68968 -0.00311
C 18.37853 26.28929 0.00742
C 17.24882 25.45848 -0.01594
C 17.23135 24.01964 0.0106
C 18.44759 23.33751 -0.01154
C 18.38011 30.50647 0.0058
C 22.05818 28.37828 0.01153
C 11.12742 26.30708 0.0351
C 9.87522 28.45861 0.00798
C 3.43515 9.4083 -0.00033
C 2.44648 8.46895 0.03589
C 2.62445 7.11799 -0.02759
C 3.75091 6.3302 0.0402
C 3.77484 4.89516 0.00572
C 2.48475 4.23958 0.03592
C 2.38949 2.84864 0.00406
C 3.54958 2.02263 0.00943
C 3.54456 0.62343 0.02841
C 2.32273 33.98938 -0.01111
C 4.82488 32.61553 -0.01275
C 6.15608 31.98164 0.00985
C 6.04126 30.55942 -0.02245
C 4.85155 29.80148 -0.00428
C 4.8485 28.39282 0.03101
C 3.50626 10.70875 -0.01062
C 2.43303 11.46546 0.01364
C 2.43109 12.93469 -0.00719
C 3.62669 13.5913 0.01641
C 3.55999 30.46052 0.00488
C 2.33225 29.80547 -0.01004
C 2.3874 28.38724 -0.02896
C 3.62751 27.73655 -0.00131
C 3.58061 26.25774 -0.01118
C 2.35252 25.54287 -0.014
C 2.36145 24.21299 0.02147
C 6.09407 27.71616 -0.01536
C 3.63932 23.5312 0.00373
C 2.34345 21.39557 0.00438
C 2.37338 19.92023 0.01291
C 3.61201 19.23696 0.00093
C 3.77488 17.83254 0.00057
C 2.45859 17.12069 -0.01634
C 2.45263 15.70232 -0.00334
C 3.74443 14.94882 0.02339
C 3.64013 22.05821 -0.00191
C 6.20923 26.3229 -0.02689
C 4.94573 25.61709 -0.01046
C 4.89958 24.22216 -0.00891
C 8.75431 26.28053 0.00244
C 7.46123 25.61584 -0.01717
C 7.47042 24.23371 0.05265
C 8.7168 23.3841 -0.01952
C 8.65224 21.93795 -0.02813
C 7.36302 21.34651 0.00374
C 7.35696 19.97364 0.00052
C 8.58187 27.68735 0.02299
C 8.53694 19.31187 -0.03682
C 8.38124 2.27365 0.02058
C 8.50413 0.64385 -0.01957
C 7.21701 34.07918 -0.0108
C 9.7683 32.70584 -0.00368
C 11.01459 32.10792 -0.02696
C 10.98298 30.61309 -0.00114
C 9.80596 29.92011 0.00228
C 7.11253 2.9217 0.01965
C 11.08157 27.76923 0.00422
C 7.34929 28.44219 0.03542
C 8.54679 30.63388 0.01945
C 6.1835 23.51949 0.02819
C 6.16518 22.0953 0.00165
C 4.90837 21.35346 -0.02971
C 4.87771 19.98276 0.02894
C 6.13274 19.21367 -0.01789
C 6.31251 17.83398 0.00444
C 5.14961 17.02025 -0.00925
C 7.34276 29.8753 0.01416
C 4.92254 15.658 0.01877
C 4.96674 4.12148 -0.02162
C 4.81261 2.65969 0.00415
C 5.95245 1.94516 -0.0014
C 5.96739 0.52385 0.02162
C 4.74262 34.02571 0.0076
C 7.39258 32.75152 0.01241
C 8.55876 32.07102 -0.01454
C 6.38339 4.29491 0.01363
C 3.57955 31.91616 0.01745
C 23.25294 27.62702 0.02734
C 22.05629 25.55179 0.01515
C 31.89484 24.21118 0.03794
C 33.07117 23.44179 0.01927
C 33.15879 22.01787 0.01574
C 31.86314 21.35831 -0.02383
C 31.9438 19.94995 -0.01429
C 33.20935 19.24827 -0.0136
C 33.23899 17.83439 0.00594
C 31.95932 17.05819 -0.02474
C 31.94806 15.64243 0.00369
C 33.1339 15.00778 0.00455
C 33.1683 13.61282 -0.00644
C 31.96129 12.85114 -0.01839
C 31.89892 11.40063 0.00137
C 33.13737 10.72716 0.00199
C 33.164 9.22361 0.04381
C 31.93803 25.60998 -0.01779
C 33.10489 26.24579 0.00682
C 33.06028 27.65272 0.00026
C 31.88836 28.32993 0.0544
C 29.41897 11.54387 -0.02155
C 30.66937 10.79263 -0.00944
C 30.75674 9.30869 -0.03735
C 29.54346 8.6848 -0.00971
C 29.48559 7.19955 0.01518
C 30.74016 6.4301 0.01908
C 30.74898 4.98476 0.07705
C 31.93196 8.52517 0.02806
C 29.45499 4.27987 0.0103
C 30.64198 2.14775 0.00716
C 30.66188 0.77953 0.00307
C 29.42693 34.07455 0.00346
C 31.86538 32.62896 0.01713
C 33.11501 31.88861 -0.01694
C 33.13664 30.44196 0.01428
C 31.87887 29.80079 -0.02142
C 29.38553 2.82096 0.02108
C 31.98732 7.15002 0.01504
C 33.17734 6.40675 -0.00069
C 33.14859 5.00716 0.04926
C 34.40499 17.09662 0.00648
C 34.35875 15.68912 0.02114
C 1.19454 15.02892 -0.02957
C 1.17984 13.55571 0.00343
C 34.40242 12.87811 -0.02656
C 34.33244 11.46087 -0.02442
C 1.12958 10.76643 -0.00027
C 1.21024 17.77639 0.01223
C 1.23561 9.14925 -0.00583
C 0.03053 7.0999 -0.02849
C 1.27842 6.42345 0.02931
C 1.25249 4.98051 0.00628
C 34.40386 4.24422 -0.0345
C 34.29126 2.82163 -0.00931
C 1.10201 2.09031 -0.00939
C 1.08761 0.6755 -0.00468
C 34.40158 8.59008 -0.02302
C 29.36835 12.94125 -0.01461
C 1.13903 19.1601 -0.01678
C 34.30422 21.24515 -0.02213
C 31.9633 4.31787 -0.03838
C 31.84697 2.8236 0.00349
C 33.06625 2.15572 -0.00323
C 33.12077 0.64906 -0.00841
C 31.85699 34.03089 0.0001
C 34.30021 32.60549 -0.02927
C 1.08503 31.87071 -0.01404
C 34.35708 19.85563 0.01951
C 1.07352 30.51244 0.01027
C 34.32673 28.32938 -0.01037
C 1.16522 27.6915 -0.00439
C 1.0724 26.22175 -0.00598
C 34.27381 25.49262 -0.05239
C 34.32175 24.06379 0.03076
C 1.0986 23.43985 0.00723
C 1.13571 21.99746 0.02712
C 34.34354 29.78115 0.01831
C 23.2965 26.17135 -0.0055
C 30.64491 13.65117 -0.01303
C 29.34707 15.68751 0.01705
C 25.68927 9.29631 -0.009
C 24.58501 8.26775 -0.01199
C 24.54996 6.92209 -0.00229
C 25.83221 6.43929 -0.00938
C 25.75679 4.99286 -0.0264
C 24.46714 4.328 -0.01154
C 24.44793 2.95178 0.00684
C 25.69272 2.21052 -0.01052
C 25.67121 0.7684 -0.01679
C 24.46712 0.09899 0.00367
C 26.97798 32.62458 0.04306
C 28.17913 31.96149 0.00996
C 28.19668 30.48014 0.00195
C 26.98873 29.82922 -0.00802
C 26.93789 28.34339 -0.00218
C 25.46851 10.66179 -0.00285
C 24.19134 11.35422 0.01423
C 25.92437 21.98041 0.02555
C 25.76589 23.3842 0.03102
C 22.03539 23.94434 -0.00225
C 23.29287 23.31223 0.00071
C 21.78019 12.03313 -0.01107
C 23.06284 11.84472 -0.01586
C 23.24351 2.19324 -0.01971
C 23.25286 0.85573 -0.02118
C 21.99963 0.09138 0.00733
C 28.21416 27.72196 -0.01654
C 24.56368 32.72392 -0.00178
C 25.7234 30.43048 -0.0276
C 24.47631 29.73314 0.03005
C 24.41591 28.38835 -0.04078
C 25.70294 27.63094 0.02117
C 25.76877 26.24684 0.02737
C 24.49803 25.50673 -0.00498
C 24.48532 24.04946 0.00135
C 25.80163 31.93102 0.00768
C 28.22977 26.28122 -0.00037
C 27.00129 25.58233 -0.0032
C 26.99265 24.15693 0.00622
C 29.39794 32.62655 0.01177
C 30.59359 31.89392 0.04266
C 30.63219 30.54458 0.01324
C 29.39438 29.79226 0.0014
C 29.4587 28.40047 0.00924
C 30.59968 27.61665 0.02326
C 30.67261 26.25246 0.00261
C 26.97583 34.03034 -0.00416
C 29.40615 25.50646 0.03265
C 30.66724 23.48157 -0.01854
C 30.64787 22.06798 -0.01415
C 29.43443 21.31876 -0.03039
C 29.49894 20.00599 0.01836
C 30.74428 19.26901 0.03531
C 30.71809 17.80756 -0.00669
C 29.43574 17.09694 0.0101
C 29.40206 24.13053 -0.02049
C 30.66711 14.96134 -0.0405
C 28.2469 0.70793 0.01699
C 26.90837 2.84205 0.01259
C 28.19292 23.37441 -0.02815
C 28.22761 21.92526 -0.00942
C 26.93874 21.22594 0.00487
C 28.40488 19.1809 0.00826
C 28.30057 17.93124 -0.00294
C 28.16889 15.08207 0.00152
C 28.04978 13.65345 0.01257
C 28.22221 2.1441 0.01799
C 26.97942 12.69669 0.02316
C 28.18174 10.77386 0.00194
C 28.22847 9.31131 -0.00621
C 27.02725 8.62525 0.02611
C 27.05417 7.16711 0.02198
C 28.29793 6.37613 0.01094
C 28.25541 4.90003 0.00235
C 26.9696 4.26673 0.01495
C 26.78475 11.35648 0.04185
C 2.31415 32.56154 0.03693
