310
Graphene
C 0.05818 34.05687 0.01295
C 9.98331 29.79847 -0.00316
C 9.6018 28.50055 0.02188
C 9.72524 21.3023 -0.01979
C 9.91921 19.95972 0.02691
C 11.18355 19.21478 -0.01581
C 9.95025 17.12714 0.01452
C 9.94164 15.74402 0.04892
C 10.701 14.73125 -0.00111
C 11.07873 13.32894 -0.03557
C 9.84672 12.72096 0.03754
C 9.84082 11.30203 0.01739
C 11.07839 10.68687 0.00755
C 11.1312 9.27059 -0.0054
C 9.83339 8.61078 0.00667
C 9.85999 7.10196 0.00143
C 11.22192 30.45099 -0.0331
C 10.99823 6.41899 -0.017
C 11.06287 31.88039 -0.0258
C 7.423 0.00264 -0.00491
C 7.37651 15.63572 0.00889
C 8.5908 14.89629 -0.00481
C 8.60409 13.47995 0.00979
C 7.39356 12.76878 0.01443
C 7.39451 11.30507 0.03505
C 8.57848 10.68248 -0.02815
C 8.64781 9.31891 -0.04147
C 7.4159 8.55277 -0.05302
C 7.38355 7.13279 0.00213
C 8.63612 6.44219 -0.00066
C 8.65061 5.0422 -0.00289
C 7.41747 4.33995 0.00028
C 7.40419 2.85442 -0.02213
C 8.67621 2.1884 0.03698
C 8.7094 0.68809 -0.00109
C 9.77061 32.7001 0.03338
C 11.08335 4.95711 0.00364
C 9.87168 4.21545 -0.00831
C 9.86624 2.81947 -0.02957
C 14.72414 7.09388 0.01511
C 15.91222 6.28874 -0.00478
C 15.92166 4.9629 -0.01662
C 14.73218 4.2974 -0.01185
C 14.79032 2.85854 0.01126
C 15.97577 2.20871 0.01852
C 15.98086 0.78672 -0.00381
C 14.75959 0.03667 0.03046
C 17.0205 32.77991 0.0296
C 18.41277 4.86798 0.03374
C 17.21319 4.30946 -0.02845
C 17.32633 2.87737 -0.03213
C 18.56302 2.1259 0.02239
C 18.39756 0.76849 0.01153
C 17.16733 0.09218 0.02734
C 14.76533 8.46127 0.00199
C 15.99422 8.97906 0.01087
C 14.73406 32.73663 -0.01527
C 12.32728 34.00022 0.00096
C 11.15146 2.05164 -0.04422
C 11.15162 0.64746 0.00654
C 9.84882 34.07339 -0.00703
C 12.3232 32.54572 -0.04076
C 13.55391 32.17036 -0.00652
C 12.32411 11.18017 0.0058
C 13.52213 10.58447 -0.00865
C 7.44781 17.00813 -0.02162
C 13.61799 9.24244 0.00675
C 12.20751 7.13899 0.00742
C 13.45819 6.38954 -0.01594
C 13.47757 4.9892 0.0106
C 12.31716 4.19767 -0.01154
C 12.38435 2.78894 -0.01721
C 13.58121 2.09483 -0.02422
C 13.55797 0.66809 0.01277
C 12.31878 8.5178 -0.00311
C 8.64331 17.73816 -0.00619
C 8.66403 19.15767 0.01848
C 7.42375 19.9631 0.02098
C 3.63439 9.26137 0.03592
C 2.39019 8.57165 0.00406
C 2.38044 7.10188 0.00943
C 3.63281 6.35133 0.02841
C 3.71046 4.90161 -0.01111
C 2.44827 4.27712 -0.01275
C 2.43795 2.84928 0.00985
C 3.74105 2.13464 -0.02245
C 3.73505 0.66136 -0.00428
C 2.48638 34.02796 0.03101
C 4.86855 32.61288 -0.01536
C 6.05566 31.84195 -0.02689
C 6.11266 30.4057 -0.01046
C 4.83934 29.70071 -0.00891
C 4.90932 28.3148 0.02819
C 3.69778 10.66885 0.00572
C 2.48555 11.40056 0.0402
C 2.52286 12.77653 -0.02759
C 3.73319 13.53961 0.03589
C 3.6225 30.48074 -0.014
C 2.39387 29.80593 0.02147
C 2.43806 28.4015 0.00373
C 3.62135 27.72308 -0.00191
C 3.64932 26.24426 0.00438
C 2.36507 25.56111 0.01291
C 2.42352 24.15724 0.00093
C 6.18343 27.67011 0.00165
C 3.65176 23.46929 0.00057
C 2.48106 21.28872 -0.00334
C 2.44162 19.83581 0.02339
C 3.66943 19.16104 0.01641
C 3.64981 17.75312 -0.00719
C 2.44545 17.03001 0.01364
C 2.46312 15.63955 -0.01062
C 3.65484 14.91637 -0.00033
C 3.6897 22.05762 -0.01634
C 19.52138 32.73875 -0.0055
C 6.15367 26.30811 -0.02971
C 4.83277 24.21785 -0.01789
C 6.23655 2.10594 0.00374
C 6.17592 0.6955 0.00052
C 4.99691 34.04276 -0.03682
C 7.32226 32.61849 0.01965
C 8.58687 31.87745 0.02058
C 8.6452 30.54397 -0.01957
C 7.39476 29.79452 -0.0108
C 7.43197 28.33256 -0.00368
C 8.6932 27.48291 -0.02696
C 8.60988 26.13731 -0.00114
C 7.31141 25.55085 0.00228
C 7.31946 24.10972 0.00798
C 8.50847 23.52834 0.00422
C 8.68911 22.17556 0.0351
C 7.38409 21.35563 -0.03113
C 4.92178 2.80132 -0.02813
C 4.95838 4.34311 -0.01952
C 6.13587 5.04556 0.05265
C 6.12229 6.43566 -0.01717
C 6.03847 23.36787 0.00444
C 6.08582 21.97549 -0.00925
C 4.89077 21.2953 0.01877
C 4.92964 19.8629 0.01363
C 6.15142 19.15445 -0.02162
C 6.13428 17.75429 0.00415
C 4.86403 17.03893 -0.0014
C 4.90555 25.6055 0.02894
C 4.86042 15.64222 0.02162
C 6.11224 13.57728 0.01241
C 4.93628 12.78104 -0.01454
C 4.94371 11.30867 0.01945
C 6.16624 10.62031 0.01416
C 6.10328 9.1191 0.03542
C 4.87271 8.42193 0.02299
C 4.87466 7.05983 0.00244
C 6.07558 14.98567 0.0076
C 20.74295 32.10982 0.01515
C 19.5782 4.17609 -0.00225
C 19.76979 2.89487 0.00071
C 33.13523 23.49945 0.01927
C 33.1845 22.09206 0.01574
C 31.96398 21.27363 -0.02383
C 31.97536 19.86939 -0.01429
C 33.22655 19.21516 -0.0136
C 33.14463 17.77909 0.00594
C 31.9529 17.10904 -0.02474
C 32.01089 15.65685 0.00369
C 33.22875 15.03123 0.00455
C 33.21017 13.60303 -0.00644
C 31.9702 12.93629 -0.01839
C 31.90932 11.49319 0.00137
C 33.24662 10.76288 0.00199
C 33.16154 9.38469 0.04381
C 31.92275 8.63116 0.02806
C 31.88244 24.1636 0.03794
C 31.91208 25.54457 -0.01779
C 33.12245 26.27018 0.00682
C 33.10689 27.71577 0.00026
C 30.71146 10.75524 -0.00944
C 30.68876 9.34251 -0.03735
C 29.40642 8.55034 -0.00971
C 29.44464 7.14544 0.01518
C 30.6682 6.41396 0.01908
C 30.74521 5.01704 0.07705
C 29.47252 4.21576 0.0103
C 31.90622 7.13621 0.01504
C 29.42663 2.81188 0.02108
C 30.7653 0.74089 0.00307
C 29.5922 0.06725 0.00346
C 31.92445 32.67419 0.01713
C 33.19925 31.97309 -0.01694
C 33.13633 30.54402 0.01428
C 31.93782 29.77885 -0.02142
C 31.94813 28.40625 0.0544
C 30.73801 2.16369 0.00716
C 29.41467 11.42944 -0.02155
C 33.11876 6.38788 -0.00069
C 32.05075 4.25159 -0.03838
C 0.04157 15.68519 0.02114
C 1.24489 14.9719 -0.02957
C 1.26347 13.56833 0.00343
C 34.4302 12.84363 -0.02656
C 0.03759 11.46233 -0.02442
C 1.26905 10.67303 -0.00027
C 1.20712 9.29696 -0.00583
C 34.35628 8.63998 -0.02302
C 34.35015 7.2073 -0.02849
C 1.18516 6.4484 0.02931
C 1.17139 5.03578 0.00628
C 0.01289 4.27329 -0.0345
C 34.42352 2.82112 -0.00931
C 1.25598 2.08676 -0.00939
C 1.33292 0.65577 -0.00468
C 0.00875 17.0943 0.00648
C 1.2149 17.83921 0.01223
C 1.20419 19.2612 -0.01678
C 34.42544 19.96146 0.01951
C 31.95503 2.81242 0.00349
C 33.21082 2.13104 -0.00323
C 33.24316 0.70345 -0.00841
C 31.9906 0.0072 0.0001
C 34.41688 32.65013 -0.02927
C 1.1462 31.95724 -0.01404
C 1.17897 30.50639 0.01027
C 33.18038 5.00748 0.04926
C 34.3547 29.80791 0.01831
C 1.23171 27.67593 -0.00439
C 1.20078 26.32128 -0.00598
C 34.41375 25.54141 -0.05239
C 34.40563 24.11149 0.03076
C 1.19236 23.4488 0.00723
C 1.22888 22.0116 0.02712
C 34.43252 21.36226 -0.02213
C 34.34381 28.40467 -0.01037
C 3.67429 31.91516 -0.01118
C 29.44497 12.80014 -0.01461
C 30.74079 14.96989 -0.0405
C 25.85144 9.27582 -0.00229
C 25.81702 6.33408 -0.00938
C 25.6944 4.94486 -0.0264
C 24.42197 4.31516 -0.01154
C 24.52951 2.87123 0.00684
C 25.75023 2.17689 -0.01052
C 25.77641 0.71772 -0.01679
C 24.57242 0.00931 0.00367
C 26.99148 32.63502 0.04306
C 28.28336 31.95279 0.00996
C 28.31291 30.49003 0.00195
C 27.07712 29.76831 -0.00802
C 26.98938 28.38323 -0.00218
C 28.23632 27.72712 -0.01654
C 28.23431 26.32178 -0.00037
C 25.95003 10.59488 -0.01199
C 25.90946 23.17945 -0.009
C 25.81555 26.26942 -0.00285
C 25.55455 27.57944 0.01423
C 20.93714 2.12722 -0.01107
C 20.83754 0.67148 -0.01586
C 19.51127 0.02204 -0.01971
C 22.00676 32.53984 -0.02118
C 23.28103 31.83724 0.00733
C 23.34598 30.51442 -0.00178
C 22.2252 4.35083 0.00768
C 26.93744 25.56449 -0.0032
C 22.1911 3.00947 -0.0276
C 23.29233 0.77673 -0.04078
C 22.04939 34.01249 0.02117
C 24.53501 32.63737 0.02737
C 25.72581 31.90927 -0.00498
C 25.84394 30.55512 0.00135
C 24.56524 29.85094 0.03102
C 24.65317 28.48476 0.02555
C 23.34655 2.17369 0.03005
C 30.71414 13.5065 -0.01303
C 26.88275 24.11795 0.00622
C 28.26436 22.07591 -0.00942
C 30.73177 30.56367 0.01324
C 29.55002 29.84148 0.0014
C 29.45791 28.44777 0.00924
C 30.68807 27.72075 0.02326
C 30.70218 26.30763 0.00261
C 29.47361 25.64283 0.03265
C 29.41652 24.12764 -0.02049
C 30.62502 23.42502 -0.01854
C 30.66105 21.94081 -0.01415
C 29.48626 21.26277 -0.03039
C 29.4228 19.82138 0.01836
C 30.64628 19.15668 0.03531
C 30.70513 17.76822 -0.00669
C 29.42385 16.98913 0.0101
C 29.49291 15.57485 0.01705
C 30.74987 31.9897 0.04266
C 29.51955 32.70241 0.01177
C 27.02846 0.00952 -0.00416
C 28.30767 0.69202 0.01699
C 27.01187 21.35123 0.00487
C 28.3489 19.10329 0.00826
C 28.29162 17.7744 -0.00294
C 28.35788 14.8842 0.00152
C 28.14894 13.60358 0.01257
C 27.08653 12.75261 0.02316
C 26.92207 11.43049 0.04185
C 28.18938 23.50232 -0.02815
C 28.24738 10.58848 0.00194
C 26.90604 8.45453 0.02611
C 26.92949 7.09928 0.02198
C 28.24445 6.36801 0.01094
C 28.26248 4.9611 0.00235
C 27.00379 4.25824 0.01495
C 27.05839 2.87215 0.01259
C 28.22185 2.11419 0.01799
C 28.11784 9.1657 -0.00621
C 2.40809 32.60661 -0.00131
