375
Graphene
C 34.3273 0.06015 0.01295
C 9.74758 4.29578 0.02299
C 9.83785 2.8201 0.00244
C 11.06726 2.17478 -0.01717
C 11.10844 0.81142 0.05265
C 9.84001 0.06586 -0.01952
C 12.32554 32.69949 -0.02813
C 13.53363 31.88748 0.00374
C 13.22308 30.45691 0.00052
C 12.24658 29.60508 -0.03682
C 13.5923 17.60007 0.01965
C 12.37725 17.0461 0.02058
C 12.42507 15.60209 -0.01957
C 13.60594 14.83172 -0.0108
C 13.52307 13.4434 -0.00368
C 12.32824 12.7269 -0.02696
C 12.24621 11.33699 -0.00114
C 13.43735 10.58734 0.00228
C 13.51342 9.14575 0.00798
C 12.25758 8.44003 0.00422
C 11.05576 5.03509 0.03542
C 11.04423 6.35567 0.01416
C 9.8058 7.14772 0.01945
C 9.85289 8.49645 -0.01454
C 9.86243 32.71971 0.03101
C 11.06359 32.03386 -0.01536
C 11.10379 30.55373 -0.02689
C 9.81639 29.90576 -0.01046
C 9.92571 28.46702 -0.00891
C 11.10205 27.74869 0.02819
C 9.77861 25.60258 0.00165
C 9.84203 24.28429 -0.02971
C 9.83678 21.49406 0.02894
C 12.29931 7.01112 0.0351
C 10.1233 20.08169 -0.01789
C 11.1675 17.79917 -0.00925
C 9.89035 17.03549 0.01877
C 9.85882 15.57582 0.01363
C 11.10408 14.90285 -0.02162
C 11.0591 13.50532 0.00415
C 9.76235 12.71923 -0.0014
C 9.74298 11.35648 0.02162
C 11.08308 10.60815 0.0076
C 11.07113 9.16299 0.01241
C 11.15563 19.14455 0.00444
C 7.35295 34.07378 -0.00428
C 13.56415 6.41733 -0.03113
C 12.32096 4.3341 0.01848
C 18.39829 32.11644 0.02691
C 17.14653 15.40686 -0.01581
C 18.39938 15.02605 0.01452
C 18.44153 13.47493 0.04892
C 17.19362 12.80151 -0.00111
C 17.13892 11.35622 -0.03557
C 18.32034 10.61998 0.03754
C 18.50142 9.24583 0.01739
C 17.23589 8.48715 0.00755
C 17.27651 7.1118 -0.0054
C 18.50698 6.33099 0.00667
C 18.46094 4.92854 0.00143
C 17.19661 4.23221 -0.017
C 17.20128 2.75529 0.00364
C 18.38364 2.0283 -0.00831
C 18.47722 0.63702 -0.02957
C 17.19205 34.07768 -0.04422
C 19.68547 32.50777 0.00654
C 20.95301 31.95981 -0.00703
C 17.15523 32.56977 -0.01979
C 14.76406 0.0413 0.02188
C 15.9859 0.70266 -0.00316
C 15.92622 2.13626 -0.0331
C 12.26531 2.93419 -0.00619
C 13.46251 2.14033 -0.02162
C 13.48909 0.74443 0.00889
C 12.3327 0.02632 -0.00481
C 14.70105 32.68603 0.00979
C 15.89148 31.99619 0.01443
C 14.68908 16.88755 0.03505
C 14.82579 15.60493 -0.02815
C 15.96005 14.82935 -0.04147
C 13.53715 5.00766 0.02098
C 15.99066 13.40321 -0.05302
C 14.6842 11.29021 -0.00066
C 15.91695 10.63397 -0.00289
C 15.9213 9.23838 0.00028
C 14.74786 8.49862 -0.02213
C 14.81068 7.08507 0.03698
C 15.99768 6.38323 -0.00109
C 16.01165 4.90867 -0.00491
C 14.74804 4.24195 0.03338
C 14.72134 2.81629 -0.0258
C 14.75428 12.72919 0.00213
C 19.6691 15.49646 -0.04076
C 8.60262 0.73867 -0.02245
C 7.3681 2.83178 -0.01275
C 3.67574 4.97928 0.01305
C 2.41668 4.27487 -0.00077
C 2.46157 2.84016 0.03368
C 3.66157 2.18386 -0.02929
C 3.58488 0.73367 -0.00966
C 2.43805 34.06481 -0.03337
C 4.85812 32.73586 0.01227
C 6.0641 32.00474 0.00873
C 6.13936 30.62531 -0.00049
C 4.95997 29.8457 0.00848
C 4.93184 28.411 -0.01303
C 6.20377 27.76327 -0.01378
C 6.16308 26.30344 0.02635
C 4.90246 25.65114 0.0127
C 4.89088 24.22527 0.01396
C 6.1986 23.47904 0.01849
C 6.07354 22.07255 -0.01142
C 4.90839 21.31578 -0.00562
C 5.00015 19.89155 -0.00494
C 3.74922 6.39335 0.0276
C 2.44595 7.15168 0.00988
C 2.40173 8.50478 -0.01343
C 3.66232 9.29317 0.01087
C 3.65755 30.52943 0.00402
C 2.44808 29.84379 0.0073
C 2.4119 28.44762 0.0174
C 3.66001 27.76474 0.03828
C 3.71126 26.38984 0.01226
C 2.51021 25.55174 -0.00279
C 2.47006 24.07309 0.01996
C 3.64063 23.37515 -0.03996
C 3.60335 21.93266 0.01465
C 6.2271 19.15435 0.00054
C 2.37068 21.24522 -0.00074
C 3.63987 19.18886 0.0086
C 3.7042 17.80455 -0.00643
C 2.46867 17.10393 0.017
C 2.44361 15.65344 -0.03113
C 3.67618 14.95607 -0.02566
C 3.71598 13.50241 -0.00094
C 2.47032 12.84422 0.02322
C 2.44783 11.44285 -0.00725
C 3.65442 10.73395 -0.05697
C 2.36348 19.87947 -0.00518
C 8.63111 2.13051 0.00985
C 6.17167 17.70765 0.03007
C 4.90627 15.62202 0.01572
C 8.67663 23.57084 0.00093
C 8.60626 22.13369 0.00057
C 7.39793 21.35018 -0.01634
C 7.45429 19.90777 -0.00334
C 8.74487 19.22541 0.02339
C 8.6555 17.7074 0.01641
C 7.42193 17.03693 -0.00719
C 7.40295 15.57478 0.01364
C 8.6216 14.82664 -0.01062
C 8.58382 13.50415 -0.00033
C 7.3157 12.81044 0.03589
C 7.32559 11.38973 -0.02759
C 8.56031 10.62189 0.0402
C 8.55869 9.29265 0.00572
C 7.36418 8.54263 0.03592
C 7.37536 7.1298 0.00406
C 8.5766 6.40509 0.00943
C 8.61578 4.99865 0.02841
C 7.37425 4.29423 -0.01111
C 7.42234 24.22216 0.01291
C 7.40492 25.65861 0.00438
C 8.67735 26.32279 -0.00191
C 8.66918 27.76989 0.00373
C 6.15662 14.91801 -0.04848
C 6.17373 13.57616 -0.00892
C 4.95059 12.86586 -0.01362
C 4.89127 11.43172 -0.0008
C 6.05759 10.74762 0.0288
C 6.05276 9.31473 0.00393
C 4.91135 8.58379 0.00895
C 4.90539 7.13257 0.00685
C 6.10852 6.47612 0.02888
C 4.88945 17.07464 -0.00095
C 6.1453 4.99208 -0.00482
C 4.91406 2.86789 0.03693
C 6.13312 2.193 0.01745
C 6.14599 0.77336 0.00488
C 4.86737 0.06844 -0.01004
C 7.32725 32.68141 -0.02896
C 8.55258 32.02572 -0.00131
C 8.6038 30.57063 -0.01118
C 7.3731 29.92648 -0.014
C 7.44315 28.44129 0.02147
C 4.86679 4.36593 -0.01384
C 3.67747 31.91366 0.02374
C 20.83258 14.85243 -0.00652
C 19.65862 12.78428 -0.00865
C 30.68475 2.16495 0.00716
C 30.66116 0.77556 0.00307
C 29.48276 34.07631 0.00346
C 31.89815 32.74032 0.01713
C 33.13468 31.97635 -0.01694
C 33.24477 30.58392 0.01428
C 31.97939 29.79978 -0.02142
C 31.97444 28.42549 0.0544
C 33.21062 27.72209 0.00026
C 33.22678 26.30118 0.00682
C 31.99145 25.62977 -0.01779
C 31.98273 24.15501 0.03794
C 33.16939 23.44521 0.01927
C 33.10853 22.02899 0.01574
C 31.92202 21.29364 -0.02383
C 31.93861 19.83626 -0.01429
C 33.13572 19.17259 -0.0136
C 33.2182 17.76137 0.00594
C 31.97915 16.9608 -0.02474
C 29.47541 2.91812 0.02108
C 29.57605 4.30875 0.0103
C 30.79955 4.9153 0.07705
C 30.72071 6.31068 0.01908
C 30.80594 27.6817 0.02326
C 30.80637 26.25483 0.00261
C 29.49001 25.53096 0.03265
C 29.53167 24.18643 -0.02049
C 30.79066 23.4484 -0.01854
C 30.70262 21.99005 -0.01415
C 29.40282 21.29126 -0.03039
C 29.43793 19.92321 0.01836
C 30.73988 19.12363 0.03531
C 31.92148 15.5866 0.00369
C 30.79931 17.72471 -0.00669
C 29.49127 15.61119 0.01705
C 30.66979 14.9193 -0.0405
C 30.68122 13.47139 -0.01303
C 29.46117 12.74958 -0.01461
C 29.50988 11.37542 -0.02155
C 30.7689 10.70625 -0.00944
C 30.79983 9.20951 -0.03735
C 29.56046 8.49285 -0.00971
C 29.52525 7.12368 0.01518
C 29.54357 16.99549 0.0101
C 29.60304 28.42456 0.00924
C 33.26447 14.9314 0.00455
C 31.91922 12.87555 -0.01839
C 34.36955 19.90145 0.01951
C 1.14335 19.18749 -0.01678
C 1.20164 17.77235 0.01223
C 0.053 17.11962 0.00648
C 0.0036 15.65935 0.02114
C 1.27889 14.96964 -0.02957
C 1.23618 13.5672 0.00343
C 0.00443 12.86691 -0.02656
C 0.05824 11.36275 -0.02442
C 1.2635 10.62724 -0.00027
C 1.26158 9.24914 -0.00583
C 34.41012 8.53551 -0.02302
C 34.3841 7.13047 -0.02849
C 1.183 6.36386 0.02931
C 1.20991 4.96971 0.00628
C 34.39576 4.2546 -0.0345
C 0.03166 2.82292 -0.00931
C 1.19122 2.06597 -0.00939
C 1.2471 0.69049 -0.00468
C 34.35995 21.31536 -0.02213
C 1.1349 21.99351 0.02712
C 1.20838 23.38077 0.00723
C 34.39985 24.12421 0.03076
C 32.01092 11.42435 0.00137
C 33.26013 10.72447 0.00199
C 33.19807 9.29854 0.04381
C 31.97506 8.5283 0.02806
C 31.92661 7.09927 0.01504
C 33.18192 6.40862 -0.00069
C 33.16757 4.97967 0.04926
C 31.97893 4.25177 -0.03838
C 31.94903 2.82192 0.00349
C 33.18782 13.49626 -0.00644
C 33.20693 2.17823 -0.00323
C 31.86475 0.0415 0.0001
C 34.38447 32.73583 -0.02927
C 1.18181 31.99361 -0.01404
C 1.23813 30.54632 0.01027
C 0.01319 29.86158 0.01831
C 34.40035 28.41528 -0.01037
C 1.16913 27.67236 -0.00439
C 1.20067 26.20755 -0.00598
C 34.3961 25.48927 -0.05239
C 33.13739 0.77222 -0.00841
C 20.94651 13.43787 0.0058
C 29.62202 29.79963 0.0014
C 30.67706 31.96759 0.04266
C 22.13287 8.48837 -0.03213
C 22.11706 7.05316 0.02239
C 23.34661 6.35892 0.01153
C 23.33924 4.92379 0.02734
C 22.11211 4.17187 -0.0055
C 22.09506 2.81925 0.01515
C 23.30118 2.05549 -0.00225
C 23.39645 0.68473 0.00071
C 22.21881 34.01082 -0.01107
C 24.55993 32.60914 -0.01586
C 25.80578 31.87392 -0.01971
C 25.78718 30.43982 -0.02118
C 24.58866 29.80202 0.00733
C 25.84742 27.65928 -0.00178
C 25.90247 19.09241 0.00768
C 25.79365 17.77372 -0.0276
C 24.55459 17.10617 0.03005
C 24.53336 15.70917 -0.04078
C 25.7389 14.94234 0.02117
C 23.35982 9.23679 -0.02845
C 23.3894 10.59904 0.03374
C 22.05156 11.28939 0.0296
C 22.15933 12.72438 0.03046
C 19.58345 11.34027 0.00675
C 20.82293 10.64743 -0.00311
C 20.87373 9.18623 0.00742
C 19.70962 8.45654 -0.01594
C 19.75405 7.03556 0.0106
C 20.98306 6.31818 -0.01154
C 20.92572 4.88849 -0.01721
C 19.7165 4.19668 -0.02422
C 19.60192 2.82367 0.01277
C 25.78663 13.53312 0.02737
C 20.90984 2.05695 0.00096
C 19.73661 0.04671 0.01087
C 22.07247 32.58272 0.00199
C 23.38558 31.85717 0.01511
C 23.46186 30.45562 -0.00478
C 23.34853 17.67693 -0.01662
C 22.25841 16.96372 -0.01185
C 21.95763 15.65711 0.01126
C 23.2902 14.96172 0.01852
C 23.36398 13.47943 -0.00381
C 20.99004 0.6675 -0.01527
C 30.71406 30.52894 0.01324
C 24.52251 12.72464 -0.00498
C 25.77724 10.68407 0.03102
C 28.29103 17.7395 0.00487
C 27.07802 17.01248 0.00826
C 26.93157 15.6176 -0.00294
C 28.22535 14.93849 0.00152
C 28.26248 13.55236 0.01257
C 27.01472 12.83468 0.02316
C 27.04603 11.4019 0.04185
C 28.2711 10.65798 0.00194
C 28.31419 9.19433 -0.00621
C 27.02382 8.50733 0.02611
C 26.98886 7.1321 0.02198
C 28.21782 6.39926 0.01094
C 28.2908 5.01287 0.00235
C 27.06917 4.24375 0.01495
C 27.04524 2.82646 0.01259
C 28.23836 2.16299 0.01799
C 28.32705 0.81724 0.01699
C 27.00309 0.00059 -0.00416
C 29.42806 32.61974 0.01177
C 28.27136 19.09771 -0.00942
C 26.95312 19.93973 -0.02815
C 26.92319 21.31462 0.00622
C 28.11164 21.99262 -0.0032
C 25.79571 9.28236 0.02555
C 24.57839 8.41771 0.01423
C 24.49051 7.02539 -0.00285
C 25.82853 6.33845 -0.009
C 25.79494 4.88787 -0.01199
C 24.55693 4.21827 -0.00229
C 24.46425 2.8537 -0.00938
C 25.73014 2.10734 -0.0264
C 25.83848 0.71177 -0.01154
C 24.54151 11.36958 0.00135
C 24.6578 34.06314 0.00684
C 28.20212 31.92668 -0.01679
C 28.2928 30.38866 0.00367
C 27.04352 29.72911 0.04306
C 27.01495 28.29136 0.00996
C 28.31993 27.66205 0.00195
C 28.2616 26.2844 -0.00802
C 27.04943 25.51626 -0.00218
C 27.07257 24.18319 -0.01654
C 28.2039 23.39801 -0.00037
C 27.06741 32.64316 -0.01052
C 2.43401 32.61164 0.03267
