314
Graphene
C 34.37193 34.07178 0.01295
C 19.67516 21.13008 -0.0258
C 19.65721 19.70878 -0.0331
C 20.93319 19.17914 -0.00316
C 20.9143 17.74243 0.02188
C 19.57621 17.23112 -0.01979
C 19.61569 15.79755 0.02691
C 20.83174 14.93583 -0.01581
C 20.85444 13.56368 0.01452
C 19.53679 12.93822 0.04892
C 19.58896 11.50457 -0.00111
C 20.81854 10.68301 -0.03557
C 20.80659 9.17326 0.03754
C 19.60872 8.22036 0.01739
C 19.61021 6.78089 0.00755
C 20.91202 6.40129 -0.0054
C 20.88001 21.96306 0.03338
C 20.92333 23.3816 -0.00491
C 19.65281 24.13269 -0.00109
C 19.61286 25.57911 0.03698
C 18.54306 18.75452 0.01848
C 18.41683 14.94757 -0.00619
C 18.4744 10.40336 -0.02162
C 18.45387 9.14277 0.00889
C 18.62401 5.37173 -0.00481
C 17.16755 2.80858 0.00979
C 18.47933 2.19204 0.01443
C 20.9243 4.97586 0.00667
C 18.44834 0.72243 0.03505
C 19.69641 32.69548 -0.04147
C 20.95388 31.98702 -0.05302
C 20.85905 30.5598 0.00213
C 19.66847 29.77775 -0.00066
C 19.56159 28.29737 -0.00289
C 20.82409 27.71056 0.00028
C 20.84296 26.22054 -0.02213
C 17.22926 0.02191 -0.02815
C 18.50217 21.96095 0.02098
C 19.68928 4.33369 0.00143
C 20.86022 2.1976 0.00364
C 23.34251 13.49626 0.01087
C 22.11329 12.74129 0.00199
C 22.05601 11.34214 0.01511
C 23.40007 10.69381 -0.00478
C 23.32432 9.31932 -0.01662
C 22.02587 8.59485 -0.01185
C 22.19086 7.10831 0.01126
C 23.3736 6.43015 0.01852
C 23.3844 4.99236 -0.00381
C 22.15355 4.30595 0.03046
C 22.11262 2.93179 0.0296
C 23.29417 2.18186 0.03374
C 23.3648 0.69472 -0.02845
C 22.14299 0.01605 -0.03213
C 24.56602 32.72556 0.02239
C 23.30663 14.88286 -0.01527
C 22.08155 15.66223 0.00096
C 22.08913 17.013 0.01277
C 23.36146 17.75718 -0.02422
C 20.89449 0.70564 -0.00831
C 19.648 34.0446 -0.02957
C 22.16424 32.70181 -0.04422
C 23.38269 31.97652 0.00654
C 23.36533 30.50894 -0.00703
C 22.11026 29.8161 -0.04076
C 22.07161 28.44152 -0.00652
C 19.59755 2.94129 -0.017
C 23.29442 27.73848 0.0058
C 21.99631 25.56814 0.00675
C 22.13651 24.17872 -0.00311
C 23.32508 23.47 0.00742
C 23.36677 22.02052 -0.01594
C 22.15061 21.2792 0.0106
C 22.1606 19.87921 -0.01154
C 23.40586 19.18962 -0.01721
C 23.27781 26.2902 -0.00865
C 18.49803 23.38473 -0.03113
C 17.24502 24.07872 0.0351
C 17.19457 25.51099 0.00422
C 4.99083 8.6118 0.03589
C 4.94518 7.17633 -0.02759
C 6.08229 6.3665 0.0402
C 5.98087 4.97224 0.00572
C 4.84276 4.26605 0.03592
C 4.88325 2.78666 0.00406
C 6.11466 2.02457 0.00943
C 6.1051 0.50222 0.02841
C 4.86535 0.02125 -0.01111
C 7.20778 8.14353 -0.01275
C 7.57413 6.61003 0.00985
C 8.35197 5.10839 -0.02245
C 7.23632 4.3013 -0.00428
C 7.29551 2.86592 0.03101
C 8.59159 2.17251 -0.01536
C 6.38615 9.07954 -0.00033
C 4.41677 24.63902 -0.01062
C 2.37032 0.00353 0.01364
C 3.61434 0.74341 -0.00719
C 2.47813 24.05671 -0.01004
C 3.77862 23.34851 -0.02896
C 3.80542 21.9565 -0.00131
C 2.63078 21.25208 -0.01118
C 2.4333 19.95825 -0.014
C 2.20034 12.74198 0.02147
C 2.50403 11.43527 0.00373
C 8.54424 0.75483 -0.02689
C 3.72627 10.61915 -0.00191
C 2.46181 8.61188 0.01291
C 2.43216 7.15657 0.00093
C 3.69554 6.43401 0.00057
C 3.6345 5.0273 -0.01634
C 2.4474 4.30922 -0.00334
C 2.37168 2.81155 0.02339
C 3.62084 2.14821 0.01641
C 3.75239 9.35401 0.00438
C 7.4379 34.05343 -0.01046
C 10.1714 32.89166 -0.00891
C 11.03569 31.87848 0.02819
C 14.69701 29.81084 -0.01717
C 14.75158 28.35383 0.05265
C 15.92588 27.58729 -0.01952
C 15.95637 26.2122 -0.02813
C 14.67222 25.56255 0.00374
C 14.87186 24.11035 0.00052
C 15.86197 23.44654 -0.03682
C 15.9771 30.48283 0.00244
C 16.11484 0.89102 0.01965
C 17.26598 32.65923 -0.01957
C 18.40423 31.90505 -0.0108
C 18.46844 30.56459 -0.00368
C 17.19493 29.78404 -0.02696
C 17.19515 28.33372 -0.00114
C 18.40925 27.68386 0.00228
C 18.36064 26.26286 0.00798
C 14.86116 0.19524 0.02058
C 25.78185 31.99663 0.01153
C 15.94473 32.03825 0.02299
C 12.23921 0.12558 0.01416
C 11.03679 30.44531 0.00165
C 11.04131 27.68347 -0.02971
C 10.91879 26.26884 0.02894
C 9.93108 25.18855 -0.01789
C 9.84208 2.81051 0.00444
C 11.05933 0.88843 -0.00925
C 9.84182 0.10472 0.01877
C 14.75091 32.80389 0.03542
C 12.27674 32.6552 0.01363
C 13.43231 30.59599 0.00415
C 12.29744 29.79422 -0.0014
C 12.25092 28.37786 0.02162
C 13.45145 27.64243 0.0076
C 13.3484 26.21031 0.01241
C 12.16797 25.47808 -0.01454
C 13.49307 0.69702 0.01945
C 13.47271 31.99438 -0.02162
C 25.84507 30.5084 0.02734
C 24.5776 29.8668 -0.0055
C 24.59997 28.44414 0.01515
C 32.02239 24.14954 0.03794
C 33.18063 23.38615 0.01927
C 33.17898 21.98685 0.01574
C 31.98348 21.28824 -0.02383
C 32.00553 19.85669 -0.01429
C 33.21747 19.20768 -0.0136
C 33.10341 17.77775 0.00594
C 31.85701 17.09043 -0.02474
C 31.90465 15.66309 0.00369
C 33.15701 14.9423 0.00455
C 33.21275 13.58715 -0.00644
C 31.94335 12.88341 -0.01839
C 32.0104 11.40572 0.00137
C 33.20154 10.72475 0.00199
C 33.13417 9.28249 0.04381
C 31.99917 25.50574 -0.01779
C 33.24567 26.1745 0.00682
C 33.14731 27.64091 0.00026
C 31.93657 28.40437 0.0544
C 29.39789 11.32047 -0.02155
C 30.67243 10.67403 -0.00944
C 30.66243 9.30285 -0.03735
C 29.49935 8.51689 -0.00971
C 29.50343 7.08951 0.01518
C 30.74589 6.469 0.01908
C 30.75676 4.99071 0.07705
C 31.93635 8.56248 0.02806
C 29.49188 4.23963 0.0103
C 30.73056 2.13784 0.00716
C 30.68207 0.71359 0.00307
C 29.47596 0.0602 0.00346
C 31.96222 32.68396 0.01713
C 33.17408 31.93937 -0.01694
C 33.08391 30.53529 0.01428
C 31.90359 29.7568 -0.02142
C 29.55539 2.87147 0.02108
C 31.95509 7.12376 0.01504
C 33.22266 6.49727 -0.00069
C 33.1845 5.00556 0.04926
C 34.33699 17.11109 0.00648
C 34.33258 15.66502 0.02114
C 1.28533 15.12114 -0.02957
C 1.23238 13.67918 0.00343
C 0.05442 12.92515 -0.02656
C 0.06137 11.55203 -0.02442
C 1.22468 10.78403 -0.00027
C 1.23065 17.71015 0.01223
C 1.22295 9.31167 -0.00583
C 34.40043 7.17466 -0.02849
C 1.18804 6.45223 0.02931
C 1.17168 5.04624 0.00628
C 34.38474 4.32952 -0.0345
C 34.40175 2.89744 -0.00931
C 1.13289 2.14129 -0.00939
C 1.13425 0.6956 -0.00468
C 34.36247 8.61783 -0.02302
C 29.43593 12.84659 -0.01461
C 1.2677 19.13997 -0.01678
C 0.0051 21.27503 -0.02213
C 31.99953 4.27451 -0.03838
C 31.92495 2.87519 0.00349
C 33.15551 2.15962 -0.00323
C 33.12546 0.7587 -0.00841
C 31.9832 0.0024 0.0001
C 34.40326 32.60939 -0.02927
C 1.19481 31.93407 -0.01404
C 0.02244 19.86519 0.01951
C 1.02139 30.48169 0.01027
C 34.30765 28.42716 -0.01037
C 1.19393 27.78385 -0.00439
C 1.35311 26.32329 -0.00598
C 0.06913 25.61217 -0.05239
C 0.0219 24.15615 0.03076
C 1.21658 23.35858 0.00723
C 1.23362 22.02462 0.02712
C 34.26099 29.80734 0.01831
C 2.55107 25.39882 0.00488
C 30.6931 13.54483 -0.01303
C 29.51151 15.68387 0.01705
C 25.79856 6.32984 -0.009
C 25.81826 4.95215 -0.01199
C 24.58257 4.25166 -0.00229
C 24.57181 2.88908 -0.00938
C 25.78882 2.18092 -0.0264
C 25.8048 0.70895 -0.01154
C 24.56596 34.06363 0.00684
C 26.97817 32.69355 -0.01052
C 28.20901 31.99439 -0.01679
C 28.25976 30.52108 0.00367
C 27.03631 29.83742 0.04306
C 27.01741 28.34515 0.00996
C 28.19813 27.69654 0.00195
C 28.25688 26.23618 -0.00802
C 27.0555 25.56531 -0.00218
C 24.59386 7.10378 -0.00285
C 24.60551 8.58436 0.01423
C 25.82441 9.23501 0.02555
C 25.80108 10.66269 0.03102
C 25.78064 27.6578 -0.00225
C 25.78707 26.28136 0.00071
C 24.52097 25.54577 -0.01107
C 24.55997 24.19061 -0.01586
C 25.80378 23.43214 -0.01971
C 25.79127 21.98742 -0.02118
C 24.5617 21.34973 0.00733
C 26.99206 24.08191 -0.01654
C 24.58416 19.90639 -0.00178
C 25.85092 17.77237 -0.0276
C 24.63107 17.05609 0.03005
C 24.61418 15.62009 -0.04078
C 25.84457 14.9077 0.02117
C 25.76074 13.45673 0.02737
C 24.54924 12.76178 -0.00498
C 24.64312 11.34635 0.00135
C 25.84846 19.16876 0.00768
C 28.24021 23.37342 -0.00037
C 28.25907 21.98793 -0.0032
C 27.03784 21.28521 0.00622
C 29.42033 32.69614 0.01177
C 30.64967 31.94021 0.04266
C 30.67022 30.4893 0.01324
C 29.4166 29.81803 0.0014
C 29.39699 28.28703 0.00924
C 30.68228 27.67802 0.02326
C 30.68074 26.26124 0.00261
C 27.00403 0.03335 -0.00416
C 29.50611 25.55506 0.03265
C 30.68923 23.40386 -0.01854
C 30.69363 22.02759 -0.01415
C 29.48777 21.32898 -0.03039
C 29.45961 19.85035 0.01836
C 30.68502 19.21445 0.03531
C 30.68547 17.76701 -0.00669
C 29.44485 17.07326 0.0101
C 29.48957 24.11039 -0.02049
C 30.70787 14.96763 -0.0405
C 28.27335 0.69745 0.01699
C 27.07136 2.86256 0.01259
C 27.03996 19.88913 -0.02815
C 28.25127 19.18809 -0.00942
C 28.25418 17.74736 0.00487
C 27.04729 17.02987 0.00826
C 27.06882 15.5885 -0.00294
C 28.30779 14.94216 0.00152
C 28.19918 13.53049 0.01257
C 28.28411 2.18981 0.01799
C 27.00765 12.8219 0.02316
C 28.17239 10.65238 0.00194
C 28.24052 9.29124 -0.00621
C 27.07464 8.52846 0.02611
C 27.01842 7.15042 0.02198
C 28.22661 6.39702 0.01094
C 28.25931 4.97222 0.00235
C 27.0516 4.24216 0.01495
C 27.00202 11.41446 0.04185
C 2.44197 32.68576 0.01745
