305
Graphene
C 34.33975 0.13315 0.01295
C 18.52662 19.27491 -0.01581
C 18.70402 0.7335 0.01452
C 17.37406 0.75266 0.04892
C 19.51994 32.64277 -0.00111
C 20.57562 31.83157 -0.03557
C 20.66781 30.40173 0.03754
C 19.61434 29.51834 0.01739
C 19.65266 28.27822 0.00755
C 20.8777 27.56025 -0.0054
C 20.93377 26.21985 0.00667
C 19.75563 25.56107 0.00143
C 19.69001 24.16346 -0.017
C 20.92478 23.3992 0.00364
C 20.91945 21.984 -0.00831
C 19.60849 21.38252 -0.02957
C 17.24317 19.73364 0.02691
C 19.61001 19.90393 -0.04422
C 17.22258 21.29505 -0.01979
C 18.48541 23.4992 -0.00316
C 13.5431 19.49239 0.03505
C 13.54212 0.82485 -0.02815
C 12.41403 0.10769 -0.04147
C 14.81841 25.41559 -0.05302
C 14.76487 24.10105 0.00213
C 16.00718 23.37833 -0.00066
C 15.97682 22.00767 -0.00289
C 14.75126 21.29545 0.00028
C 14.83634 19.76088 -0.02213
C 15.9712 19.22277 0.03698
C 16.1878 1.03058 -0.00109
C 14.85746 0.70542 -0.00491
C 18.33507 26.16203 0.03338
C 17.30693 25.51381 -0.0258
C 17.22561 24.07943 -0.0331
C 18.44712 22.01466 0.02188
C 12.26659 20.09042 0.01443
C 20.83027 19.25509 0.00654
C 20.74895 1.9921 -0.04076
C 23.29074 14.8552 -0.01185
C 23.17794 13.44781 0.01126
C 23.18447 10.62335 0.01852
C 23.48395 9.34175 -0.00381
C 23.23668 6.43572 0.03046
C 23.09757 5.06464 0.0296
C 21.9851 4.10935 0.03374
C 21.91092 2.72767 -0.02845
C 23.35487 1.9803 -0.03213
C 23.41083 0.69004 0.02239
C 22.08718 34.07393 0.01153
C 24.54694 32.6681 0.02734
C 25.71999 31.9692 -0.0055
C 25.75531 30.52463 0.01515
C 24.53021 29.83038 -0.00225
C 22.08691 15.575 -0.01662
C 20.86937 17.82079 -0.00703
C 21.85251 16.93695 -0.00478
C 23.31296 19.10539 0.00199
C 20.8559 0.68933 -0.00652
C 19.74241 34.01246 0.0058
C 22.00911 32.66144 -0.00865
C 23.24783 31.97595 0.00675
C 23.26971 30.50757 -0.00311
C 21.96874 29.71301 0.00742
C 22.07473 28.33165 -0.01594
C 23.30115 27.7061 0.0106
C 23.3593 26.21492 -0.01154
C 22.11702 25.53184 -0.01721
C 22.15894 24.09056 -0.02422
C 23.36228 23.34734 0.01277
C 23.36865 22.0149 0.00096
C 22.15671 21.29877 -0.01527
C 22.06153 19.90118 0.01087
C 23.21885 17.78273 0.01511
C 12.10111 21.43898 0.00979
C 13.46197 22.07703 -0.00481
C 13.46745 23.49162 0.00889
C 3.66364 0.77293 -0.01111
C 2.33724 0.0892 -0.01275
C 4.87057 32.6863 0.00985
C 5.9639 31.9357 -0.02245
C 5.99821 30.45272 -0.00428
C 4.78516 29.76718 0.03101
C 4.76912 28.31358 -0.01536
C 6.0008 27.54123 -0.02689
C 6.07632 26.14561 -0.01046
C 4.83008 25.44201 -0.00891
C 4.73209 23.89692 0.02819
C 5.96086 23.38137 0.00165
C 5.2558 10.54639 -0.02971
C 4.88519 8.7571 0.02894
C 4.91191 7.28259 -0.01789
C 3.61397 2.15365 0.02841
C 6.04812 6.52448 0.00444
C 2.44955 2.88515 0.00943
C 3.6835 5.03487 0.03592
C 3.68708 30.54276 0.01291
C 2.39551 29.89575 0.00093
C 2.38233 28.42264 0.00057
C 3.59571 27.69838 -0.01634
C 3.63987 26.19798 -0.00334
C 2.35356 25.59246 0.02339
C 2.30605 24.17953 0.01641
C 3.43018 23.43173 -0.00719
C 2.52608 12.91417 0.01364
C 2.54242 11.52836 -0.01062
C 3.73004 10.62338 -0.00033
C 3.57715 9.24323 0.03589
C 2.39584 8.50729 -0.02759
C 2.4266 7.09347 0.0402
C 3.65484 6.50997 0.00572
C 2.46412 4.2844 0.00406
C 6.23427 5.11045 -0.00925
C 4.9917 4.28445 0.01877
C 4.93532 2.88788 0.01363
C 10.85318 30.40984 0.02058
C 9.66665 29.78786 -0.01957
C 9.57453 28.38252 -0.0108
C 10.89175 27.78743 -0.00368
C 11.16482 26.49529 -0.02696
C 9.84813 25.63525 -0.00114
C 9.81897 24.31778 0.00228
C 11.02443 23.5854 0.00798
C 10.97493 22.11388 0.00422
C 11.11884 0.2782 0.0351
C 9.88607 33.9323 -0.03113
C 12.11755 32.81682 0.02098
C 13.80818 26.35112 0.01848
C 12.41463 25.82978 -0.00619
C 12.26662 24.3605 -0.02162
C 11.05151 31.91352 0.01965
C 9.71289 32.51003 -0.03682
C 7.30566 34.05387 0.00052
C 8.58588 0.65316 0.00374
C 6.13449 2.07476 -0.02162
C 6.07581 0.70952 0.00415
C 4.82451 0.01693 -0.0014
C 7.16227 32.55975 0.02162
C 8.40366 31.79219 0.0076
C 8.38849 30.33769 0.01241
C 7.20708 29.64791 -0.01454
C 24.46675 28.41547 0.00071
C 7.23827 28.24676 0.01945
C 8.59743 26.23869 0.03542
C 7.32809 25.4157 0.02299
C 7.30359 23.94806 0.00244
C 8.66135 23.56494 -0.01717
C 7.28405 4.22407 0.05265
C 7.55543 2.84995 -0.01952
C 8.63726 2.09278 -0.02813
C 8.41164 27.6066 0.01416
C 3.62869 31.99718 0.00438
C 25.69056 27.72776 -0.01107
C 24.59148 25.50248 -0.01971
C 31.90299 24.1616 0.01574
C 33.158 23.4204 -0.02383
C 33.2182 22.08001 -0.01429
C 31.90399 21.38776 -0.0136
C 31.8715 20.00633 0.00594
C 33.05107 19.31652 -0.02474
C 33.04316 17.90315 0.00369
C 31.85689 17.13354 0.00455
C 31.93574 15.72193 -0.00644
C 33.26011 15.11705 -0.01839
C 33.24851 13.60059 0.00137
C 31.93645 12.99843 0.00199
C 31.86664 11.50418 0.04381
C 33.12458 10.79568 0.02806
C 33.07911 9.35199 0.01504
C 31.83926 25.52951 0.01927
C 31.85488 8.62847 -0.00069
C 33.07041 26.31446 0.03794
C 31.87218 28.44202 0.00682
C 30.69488 10.7284 -0.00971
C 30.63821 9.28854 0.01518
C 29.41024 8.56723 0.01908
C 29.4078 7.15408 0.07705
C 30.7511 6.4692 0.0103
C 30.72003 5.03334 0.02108
C 29.517 4.41282 0.00716
C 29.49374 2.95311 0.00307
C 30.69075 2.23273 0.00346
C 30.66448 0.83758 0.01713
C 29.47612 0.08049 -0.01694
C 31.86518 32.77171 0.01428
C 33.11348 32.00236 -0.02142
C 33.09097 30.57983 0.0544
C 31.84567 29.85172 0.00026
C 33.14894 27.79176 -0.01779
C 29.44751 11.41497 -0.03735
C 31.90511 7.16802 0.04926
C 33.1947 5.0817 0.00349
C 0.14111 15.94428 0.02114
C 1.19715 15.08209 -0.02957
C 1.33188 13.65853 0.00343
C 0.00618 12.87776 -0.02656
C 0.02224 11.36987 -0.02442
C 1.27862 10.7705 -0.00027
C 1.20957 9.31539 -0.00583
C 34.40315 8.56882 -0.02302
C 34.37614 7.16769 -0.02849
C 1.14451 6.4315 0.02931
C 1.20927 4.98189 0.00628
C 34.39108 4.32767 -0.0345
C 34.42231 2.98303 -0.00931
C 1.23869 2.24336 -0.00939
C 1.11713 0.85678 -0.00468
C 34.3514 17.28617 0.00648
C 33.15282 6.49182 -0.03838
C 34.34798 19.86265 0.01223
C 1.11813 22.09498 0.01951
C 31.97089 4.41742 -0.00323
C 31.99219 2.90759 -0.00841
C 33.19839 2.17774 0.0001
C 33.12845 0.78177 -0.02927
C 31.85311 0.01723 -0.01404
C 34.3355 32.75197 0.01027
C 1.14101 32.10998 0.01831
C 1.17462 30.6489 -0.01037
C 34.39799 29.95236 -0.00439
C 34.33675 28.56734 -0.00598
C 1.20165 27.72646 -0.05239
C 1.15313 26.31162 0.03076
C 34.36871 25.65091 0.00723
C 34.32651 24.2235 0.02712
C 1.0323 23.46706 -0.02213
C 0.09166 21.22889 -0.01678
C 29.51535 12.78164 -0.00944
C 30.70934 13.5545 -0.02155
C 30.73582 14.94266 -0.01461
C 24.35045 4.36074 -0.0264
C 24.45325 2.82383 -0.01154
C 25.83073 2.18486 0.00684
C 25.81101 0.67108 -0.01052
C 24.57574 34.04634 -0.01679
C 27.01071 32.66768 0.00367
C 28.17411 31.95116 0.04306
C 28.19962 30.4842 0.00996
C 26.93866 29.84645 0.00195
C 26.96346 28.41128 -0.00802
C 28.19448 27.72695 -0.00218
C 28.19587 26.28836 -0.01654
C 26.97576 25.55925 -0.00037
C 27.0173 24.15544 -0.0032
C 28.30532 23.4953 0.00622
C 25.63918 4.96745 -0.00938
C 28.25846 22.0404 -0.02815
C 25.72483 6.43402 -0.00229
C 24.5551 8.49718 -0.009
C 24.52625 24.1436 -0.02118
C 25.74456 23.41222 0.00733
C 25.82203 21.99481 -0.00178
C 24.60833 21.29322 0.00768
C 24.63546 19.89464 -0.0276
C 25.80554 19.15955 0.03005
C 25.74756 17.76892 -0.04078
C 24.49024 17.05663 0.02117
C 24.51707 15.64592 0.02737
C 25.81078 14.92096 -0.00498
C 25.69531 13.52216 0.00135
C 24.40458 12.75645 0.03102
C 24.43243 11.2475 0.02555
C 25.7321 10.64258 0.01423
C 25.78104 9.20954 -0.00285
C 24.45836 7.0976 -0.01199
C 27.13988 21.3287 -0.00942
C 27.08433 19.90801 0.00487
C 28.22252 19.15625 0.00826
C 30.64823 30.55244 0.00924
C 29.4383 29.7796 0.02326
C 29.47034 28.40932 0.00261
C 30.62202 27.65677 0.03265
C 30.70657 26.26979 -0.02049
C 29.44938 25.57849 -0.01854
C 29.52781 24.15863 -0.01415
C 30.69824 23.46252 -0.03039
C 30.68511 22.08615 0.01836
C 29.47819 21.36245 0.03531
C 29.51575 19.90819 -0.00669
C 30.69874 19.26526 0.0101
C 30.6421 17.7407 0.01705
C 29.40826 17.06958 -0.0405
C 29.44937 15.60496 -0.01303
C 30.60626 31.98411 0.0014
C 29.45584 32.66685 0.01324
C 26.97144 0.01856 0.04266
C 28.32053 0.8235 0.01177
C 28.17514 17.74867 -0.00294
C 26.95702 17.06258 0.00152
C 27.0045 15.72385 0.01257
C 28.21631 14.95426 0.02316
C 28.19023 13.47858 0.04185
C 26.93403 12.83362 0.00194
C 26.95689 11.37344 -0.00621
C 25.73523 26.21926 -0.01586
C 28.18066 10.68122 0.02611
C 27.01927 8.45263 0.01094
C 26.94624 7.08477 0.00235
C 28.23589 6.38258 0.01495
C 28.28285 5.03006 0.01259
C 26.96183 4.27359 0.01799
C 27.02805 2.86042 0.01699
C 28.34023 2.21493 -0.00416
C 28.19484 9.27344 0.02198
C 2.4312 32.72612 -0.00191
