366
Graphene
C 34.39789 0.04956 0.01295
C 10.95409 10.7237 0.00374
C 11.18372 9.31851 0.00052
C 9.85891 8.50702 -0.03682
C 9.87551 7.19163 0.01965
C 11.07486 6.42432 0.02058
C 11.06757 5.01212 -0.01957
C 9.86462 4.33368 -0.0108
C 9.77252 2.89456 -0.00368
C 9.78231 11.37406 -0.02813
C 10.97609 2.17212 -0.02696
C 9.78389 34.06748 0.00228
C 12.22517 32.71787 0.00798
C 13.4891 31.97626 0.00422
C 13.47504 30.59118 0.0351
C 12.2704 29.81417 -0.03113
C 12.20418 28.4245 0.02098
C 13.49925 27.7636 0.01848
C 13.53125 26.32462 -0.00619
C 10.95985 0.79668 -0.00114
C 9.73207 12.7607 -0.01952
C 10.9242 13.43228 0.05265
C 10.95189 14.75578 -0.01717
C 8.59935 0.76933 -0.02971
C 7.38445 0.04763 0.02894
C 9.80848 32.66101 -0.01789
C 11.01886 31.99499 0.00444
C 11.04728 30.59601 -0.00925
C 9.83006 29.85516 0.01877
C 9.76886 28.44861 0.01363
C 10.94116 27.69929 -0.02162
C 11.03756 26.29616 0.00415
C 9.8625 25.54996 -0.0014
C 9.81025 24.15885 0.02162
C 11.11851 23.39553 0.0076
C 11.15279 21.95171 0.01241
C 9.85612 21.34927 -0.01454
C 9.91805 19.87244 0.01945
C 11.27364 19.14056 0.01416
C 11.27718 17.71831 0.03542
C 9.89429 17.04363 0.02299
C 9.83786 15.66837 0.00244
C 12.28739 25.69024 -0.02162
C 12.23514 24.28682 0.00889
C 13.40295 23.47293 -0.00481
C 13.49893 22.00076 0.00979
C 15.87717 23.60571 -0.00111
C 15.93276 22.11509 -0.03557
C 14.75747 21.45348 0.03754
C 14.87671 20.00779 0.01739
C 15.96912 4.829 0.00755
C 14.82352 4.21285 -0.0054
C 14.83203 2.81653 0.00667
C 16.0406 2.0931 0.00143
C 16.06272 0.72305 -0.017
C 14.78549 0.03634 0.00364
C 17.12799 32.58992 -0.00831
C 18.41218 31.90695 -0.02957
C 18.41632 30.42161 -0.04422
C 17.22289 29.73118 0.00654
C 17.14666 28.39135 -0.00703
C 18.44872 27.67522 -0.04076
C 18.48921 26.22855 -0.00652
C 17.25033 25.5377 0.0058
C 17.13601 24.16239 -0.00865
C 14.64881 24.13921 0.04892
C 8.55488 2.22717 0.00165
C 14.68 25.54225 0.01452
C 15.98567 27.62556 0.02691
C 12.38002 21.14944 0.01443
C 12.54191 19.84876 0.03505
C 13.90436 19.15633 -0.02815
C 13.61756 17.87671 -0.04147
C 12.45462 17.09401 -0.05302
C 12.22015 8.50776 0.00213
C 12.28347 7.12753 -0.00066
C 13.67881 6.40561 -0.00289
C 13.54195 5.02707 0.00028
C 12.2883 4.29791 -0.02213
C 12.25337 2.87182 0.03698
C 13.50198 2.1274 -0.00109
C 13.51461 0.71746 -0.00491
C 12.24223 0.01957 0.03338
C 14.77215 32.65326 -0.0258
C 15.94217 31.94837 -0.0331
C 16.03591 30.42524 -0.00316
C 14.70035 29.80369 0.02188
C 14.68358 28.42787 -0.01979
C 15.96766 26.22511 -0.01581
C 7.34668 2.89812 0.02819
C 7.38058 4.28964 -0.00891
C 8.59118 5.08877 -0.01046
C 3.61467 6.47139 -0.00049
C 3.53645 5.10677 0.00848
C 2.33607 4.32579 -0.01303
C 2.37687 2.87323 -0.01378
C 3.57374 2.23093 0.02635
C 3.61525 0.74001 0.0127
C 2.37866 0.06043 0.01396
C 4.84897 32.70034 0.01849
C 6.06097 32.02956 -0.01142
C 6.0973 30.5643 -0.00562
C 4.91496 29.85617 -0.00494
C 4.93747 28.50427 0.00054
C 6.12057 27.75431 0.03007
C 6.08289 26.31668 -0.00095
C 4.8404 25.64811 0.01572
C 4.908 24.1475 -0.04848
C 6.1104 23.47823 -0.00892
C 6.20084 22.05569 -0.01362
C 5.02626 21.29414 -0.0008
C 2.39752 7.20474 0.00873
C 4.96506 19.95813 0.0288
C 2.36223 8.70012 0.01227
C 3.61055 10.74901 -0.00966
C 3.61477 30.57084 -0.00074
C 2.33779 29.86716 -0.00518
C 2.37956 28.52479 0.0086
C 3.59869 27.84012 -0.00643
C 3.6496 26.40537 0.017
C 2.47333 25.66392 -0.03113
C 2.43969 24.08364 -0.02566
C 3.70691 23.4223 -0.00094
C 3.66961 22.0491 0.02322
C 2.43178 21.38849 -0.00725
C 2.40232 19.94049 -0.05697
C 3.73483 19.28836 0.01087
C 3.60763 17.84427 -0.01343
C 2.50828 17.21569 0.00988
C 2.48086 15.71582 0.0276
C 3.74851 14.98519 0.01305
C 3.71347 13.55057 -0.00077
C 2.30963 12.85499 0.03368
C 2.30087 11.49864 -0.02929
C 3.54079 9.35261 -0.03337
C 18.29127 23.3639 0.00675
C 6.21592 19.20037 0.00393
C 4.93392 17.09042 0.00685
C 7.37535 25.6611 0.01364
C 7.36266 24.17098 -0.01062
C 8.50618 23.39162 -0.00033
C 8.60024 22.03967 0.03589
C 7.42527 21.28178 -0.02759
C 7.48495 19.81218 0.0402
C 8.76353 19.15237 0.00572
C 8.59797 17.75619 0.03592
C 7.3721 17.06506 0.00406
C 7.34314 15.65257 0.00943
C 8.59163 15.06379 0.02841
C 8.459 13.56248 -0.01111
C 7.28454 12.76436 -0.01275
C 7.30252 11.3966 0.00985
C 8.49114 10.59609 -0.02245
C 8.60631 9.16253 -0.00428
C 7.36371 8.50157 0.03101
C 7.36049 7.1899 -0.01536
C 8.70783 6.47203 -0.02689
C 8.61743 26.30814 -0.00719
C 6.15765 17.77752 0.00895
C 8.55953 27.76142 0.01641
C 7.31795 29.88223 -0.00334
C 4.95824 15.64895 0.02888
C 6.181 14.94644 -0.00482
C 6.12953 13.45819 -0.01384
C 4.86216 12.81657 0.03693
C 4.86357 11.32619 0.01745
C 6.07626 10.68966 0.00488
C 6.04771 9.24496 -0.01004
C 4.84771 8.56056 -0.02896
C 4.83555 7.14527 -0.00131
C 6.11608 6.39829 -0.01118
C 6.15982 5.00072 -0.014
C 4.8101 4.34828 0.02147
C 4.86297 2.95783 0.00373
C 6.09421 2.19811 -0.00191
C 6.08798 0.76478 0.00438
C 4.84967 0.05137 0.01291
C 7.32614 32.6926 0.00093
C 8.6399 31.98128 0.00057
C 8.62469 30.52185 -0.01634
C 7.34038 28.47182 0.02339
C 18.33855 21.85567 -0.00311
C 17.0253 21.12436 0.00742
C 16.42241 19.90147 -0.01594
C 30.62183 5.05814 0.00307
C 29.44414 4.38218 0.00346
C 29.44507 2.89449 0.01713
C 30.70544 2.19581 -0.01694
C 30.60997 0.75435 0.01428
C 29.43563 0.00194 -0.02142
C 31.9289 32.66974 0.0544
C 33.10509 31.98776 0.00026
C 33.14727 30.61128 0.00682
C 31.88424 29.87553 -0.01779
C 31.97507 28.48557 0.03794
C 33.19939 27.759 0.01927
C 33.22594 26.37084 0.01574
C 31.98502 25.59939 -0.02383
C 31.99974 24.10462 -0.01429
C 33.20336 23.48589 -0.0136
C 33.18911 22.01626 0.00594
C 31.99798 21.28207 -0.02474
C 31.87658 19.86129 0.00369
C 30.64972 6.49067 0.00716
C 33.16679 19.123 0.00455
C 29.39718 7.13965 0.02108
C 30.57656 9.54899 0.07705
C 30.69625 32.01056 0.03265
C 30.71669 30.61716 -0.02049
C 29.49756 29.85217 -0.01854
C 29.50524 28.36863 -0.01415
C 30.76495 27.66875 -0.03039
C 30.72043 26.28256 0.01836
C 29.50377 25.58498 0.03531
C 29.49005 24.15639 -0.00669
C 30.77004 23.46134 0.0101
C 30.75367 21.97791 0.01705
C 29.51108 21.2082 -0.0405
C 29.53542 19.77933 -0.01303
C 30.73436 19.08203 -0.01461
C 30.8317 17.62983 -0.02155
C 29.55845 17.02426 -0.00944
C 29.58451 15.53179 -0.03735
C 30.5229 14.42551 -0.00971
C 29.5715 12.93872 0.01518
C 29.6021 11.38362 0.01908
C 29.50521 8.62849 0.0103
C 29.51682 32.68513 0.00261
C 33.18763 17.55743 -0.00644
C 31.95541 15.07031 0.00137
C 34.39373 19.84952 0.01951
C 1.27035 19.1579 -0.01678
C 1.22733 17.71587 0.01223
C 0.03947 16.95974 0.00648
C 0.00931 15.52395 0.02114
C 1.23497 15.03871 -0.02957
C 1.13043 13.63684 0.00343
C 34.08092 13.08954 -0.02656
C 34.12352 11.56181 -0.02442
C 1.02301 10.86704 -0.00027
C 1.13955 9.46595 -0.00583
C 34.37372 8.74421 -0.02302
C 34.35174 7.19586 -0.02849
C 1.24889 6.50416 0.02931
C 1.16992 5.05646 0.00628
C 34.31352 4.37343 -0.0345
C 34.3882 2.94078 -0.00931
C 1.14022 2.1413 -0.00939
C 1.1567 0.7881 -0.00468
C 34.40951 21.27925 -0.02213
C 31.99735 16.66827 -0.01839
C 1.2045 22.08707 0.02712
C 0.00698 24.16583 0.03076
C 33.37976 14.39137 0.00199
C 33.18475 9.54316 0.04381
C 31.87501 9.0008 0.02806
C 31.83323 7.35189 0.01504
C 33.06434 6.55258 -0.00069
C 33.08371 5.13512 0.04926
C 31.86964 4.30645 -0.03838
C 31.92924 2.86046 0.00349
C 33.17578 2.14202 -0.00323
C 33.17148 0.73306 -0.00841
C 31.91485 0.0311 0.0001
C 34.37587 32.69905 -0.02927
C 1.17715 32.00854 -0.01404
C 1.13166 30.62604 0.01027
C 34.36238 29.86071 0.01831
C 0.02568 28.4345 -0.01037
C 1.16753 27.73138 -0.00439
C 1.21693 26.28796 -0.00598
C 0.06519 25.54768 -0.05239
C 1.22537 23.46624 0.00723
C 3.62823 31.95981 0.01465
C 27.00787 34.04116 0.02326
C 28.25193 2.14922 0.0014
C 23.31574 31.89596 0.02734
C 23.38074 30.44042 -0.0055
C 22.10494 29.73646 0.01515
C 22.09932 28.19297 -0.00225
C 23.3846 27.57563 0.00071
C 23.35449 26.13135 -0.01107
C 22.08488 25.50032 -0.01586
C 22.10518 24.05242 -0.01971
C 23.32561 23.37585 -0.02118
C 23.36754 22.04252 0.00733
C 22.18494 21.11589 -0.00178
C 22.77285 19.78233 0.00768
C 23.20466 4.68255 -0.0276
C 21.9927 4.08485 0.03005
C 22.06656 2.69553 -0.04078
C 23.2743 2.05378 0.02117
C 23.27392 0.62367 0.02737
C 22.06496 34.04984 -0.00498
C 24.5025 32.60046 0.00135
C 22.03782 32.60829 0.01153
C 25.77633 31.87671 0.03102
C 19.61673 33.94286 0.02239
C 20.88715 1.97734 -0.02845
C 17.20234 4.14535 0.0106
C 17.22206 2.83275 -0.01154
C 18.40811 2.06833 -0.01721
C 18.4052 0.63989 -0.02422
C 17.23179 0.00708 0.01277
C 19.61617 32.59187 0.00096
C 20.82701 31.83868 -0.01527
C 20.9236 30.42278 0.01087
C 19.70136 29.79375 0.00199
C 19.63637 28.35857 0.01511
C 20.8352 27.58262 -0.00478
C 20.82602 26.15263 -0.01662
C 19.64504 25.42893 -0.01185
C 19.57976 24.04887 0.01126
C 20.90514 23.31225 0.01852
C 20.90099 21.70798 -0.00381
C 19.62465 21.24611 0.03046
C 19.67499 4.26407 0.0296
C 19.6862 2.95561 0.03374
C 20.75417 0.56759 -0.03213
C 28.19173 0.77485 0.00924
C 25.78157 30.52943 0.02555
C 24.60199 28.27061 -0.00285
C 27.09851 24.13104 -0.00294
C 28.29012 23.35547 0.00152
C 28.34934 21.91034 0.01257
C 27.09798 21.22759 0.02316
C 26.95419 19.85519 0.04185
C 28.11185 19.05711 0.00194
C 28.33913 17.57695 -0.00621
C 28.23088 15.14833 0.02611
C 28.17491 13.63849 0.02198
C 27.09114 12.7518 0.01094
C 27.12009 11.45857 0.00235
C 28.31921 10.69937 0.01495
C 28.11558 9.27755 0.01259
C 26.86238 8.54828 0.01799
C 26.75389 7.1587 0.01699
C 28.12216 6.4675 -0.00416
C 28.14308 4.99961 0.01177
C 26.94492 4.24415 0.04266
C 26.98061 2.85499 0.01324
C 27.02185 25.50306 0.00826
C 24.59002 29.72731 0.01423
C 28.21339 26.22576 0.00487
C 27.05224 28.3508 -0.02815
C 25.74574 27.57599 -0.009
C 25.86184 26.22739 -0.01199
C 24.53654 25.47224 -0.00229
C 24.61579 24.10617 -0.00938
C 25.79462 23.4011 -0.0264
C 25.76749 21.95359 -0.01154
C 24.60582 21.20867 0.00684
C 24.09883 19.98708 -0.01052
C 25.66886 6.38497 -0.01679
C 25.69248 4.94783 0.00367
C 24.45026 4.14811 0.04306
C 24.56707 2.77267 0.00996
C 25.78854 2.0893 0.00195
C 25.82492 0.63805 -0.00802
C 24.58382 34.01965 -0.00218
C 26.97934 32.58668 -0.01654
C 28.25515 31.93617 -0.00037
C 28.19553 30.51453 -0.0032
C 26.9689 29.77799 0.00622
C 28.26294 27.70094 -0.00942
C 2.38524 32.73304 -0.03996
