348
Graphene
C 0.01256 0.02846 0.01295
C 18.49162 19.14517 0.00422
C 18.40008 17.808 0.0351
C 17.21057 17.05517 -0.03113
C 17.24803 15.59921 0.02098
C 18.48147 14.93973 0.01848
C 18.50705 13.51995 -0.00619
C 18.39543 10.54683 -0.02162
C 18.40417 9.31059 0.00889
C 18.41089 6.27974 -0.00481
C 18.42755 4.95458 0.00979
C 17.27954 4.2667 0.01443
C 17.26458 2.80874 0.03505
C 18.5059 2.1213 -0.02815
C 18.48559 0.70985 -0.04147
C 17.194 0.10172 -0.05302
C 19.68724 32.6396 0.00213
C 20.8919 31.87536 -0.00066
C 17.1417 19.84441 0.00798
C 17.26866 21.21706 0.00228
C 18.39223 21.98216 -0.00114
C 18.40588 23.44662 -0.02696
C 14.76115 21.26181 -0.01454
C 14.71389 19.91794 0.01945
C 15.88122 19.24386 0.01416
C 16.01203 17.79629 0.03542
C 14.74943 17.11104 0.02299
C 14.72906 2.80197 0.00244
C 16.01131 2.1518 -0.01717
C 15.96254 0.73217 0.05265
C 20.93142 30.50332 -0.00289
C 14.77894 0.03415 -0.01952
C 18.45002 32.03189 0.00374
C 18.44004 30.54971 0.00052
C 17.19142 29.88651 -0.03682
C 17.25205 28.33828 0.01965
C 18.46517 27.6691 0.02058
C 18.4735 26.29103 -0.01957
C 17.28734 25.54191 -0.0108
C 17.19532 24.07328 -0.00368
C 17.19758 32.71657 -0.02813
C 19.7033 29.76651 0.00028
C 19.6234 28.37385 -0.02213
C 20.91403 27.65783 0.03698
C 19.76683 2.86736 -0.00831
C 20.92467 2.15374 -0.02957
C 20.93759 0.73681 -0.04422
C 19.6622 0.09887 0.00654
C 22.11442 32.66499 -0.00703
C 23.34111 31.87541 -0.04076
C 23.36319 30.49366 -0.00652
C 22.15377 29.87082 0.0058
C 19.69851 4.23567 0.00364
C 22.09815 28.4193 -0.00865
C 23.34449 26.3093 -0.00311
C 22.15341 25.52364 0.00742
C 22.209 24.18753 -0.01594
C 23.38046 23.38296 0.0106
C 23.36826 22.00292 -0.01154
C 22.13352 21.29144 -0.01721
C 22.17394 19.84133 -0.02422
C 23.31151 19.16079 0.01277
C 23.33861 27.68667 0.00675
C 16.01223 21.94784 0.01241
C 20.93339 4.92976 -0.017
C 19.63595 7.12621 0.00667
C 20.8594 26.23239 -0.00109
C 19.61987 25.55923 -0.00491
C 19.59708 24.17495 0.03338
C 20.89066 23.4747 -0.0258
C 20.87912 22.03012 -0.0331
C 19.69407 21.2641 -0.00316
C 19.6895 19.88174 0.02188
C 20.91749 19.19984 -0.01979
C 20.91435 6.41437 0.00143
C 20.95118 17.78057 0.02691
C 19.70169 15.63671 0.01452
C 20.92368 14.85613 0.04892
C 20.8768 13.44826 -0.00111
C 19.65406 12.77966 -0.03557
C 19.7145 11.38538 0.03754
C 20.87153 10.63472 0.01739
C 20.85954 9.23423 0.00755
C 19.59911 8.53705 -0.0054
C 19.67982 17.03784 -0.01581
C 23.29178 17.75158 0.00096
C 15.97757 23.43834 0.0076
C 14.77427 25.53944 -0.0014
C 6.11546 30.52615 -0.01362
C 4.90674 29.75358 -0.0008
C 4.88461 28.3795 0.0288
C 6.17907 27.68625 0.00393
C 6.097 26.26287 0.00895
C 4.95124 25.54919 0.00685
C 4.98749 24.1703 0.02888
C 6.13367 23.48015 -0.00482
C 6.17132 21.96119 -0.01384
C 4.903 21.29736 0.03693
C 4.89019 19.87573 0.01745
C 6.1352 19.26727 0.00488
C 4.95862 2.71406 -0.01004
C 6.03216 2.20857 -0.02896
C 6.11895 0.77141 -0.00131
C 4.88926 34.07023 -0.01118
C 7.3735 32.66846 -0.014
C 6.12512 32.00142 -0.00892
C 4.9403 32.59971 -0.04848
C 2.48364 0.04149 0.01572
C 3.71762 0.70771 -0.00095
C 3.68873 30.54732 -0.02929
C 2.41459 29.89566 -0.00966
C 2.46585 28.43665 -0.03337
C 3.67545 27.67332 0.01227
C 3.66569 26.26563 0.00873
C 2.42003 25.59359 -0.00049
C 2.51197 24.08551 0.00848
C 3.76936 23.45563 -0.01303
C 8.60211 31.95893 0.02147
C 3.78422 22.00605 -0.01378
C 2.45552 19.8704 0.0127
C 3.62218 19.15851 0.01396
C 3.64992 17.87606 0.01849
C 2.51679 17.02275 -0.01142
C 2.47883 15.59149 -0.00562
C 2.43287 4.23808 -0.00494
C 2.52208 2.82875 0.00054
C 3.66149 2.08043 0.03007
C 2.52757 21.29416 0.02635
C 7.25831 29.76055 0.00373
C 7.35293 28.53484 -0.00191
C 8.60352 26.30684 0.00438
C 12.30124 25.60922 -0.02245
C 12.32797 24.20581 -0.00428
C 13.52497 23.35615 0.03101
C 13.57605 22.00702 -0.01536
C 12.32489 21.36154 -0.02689
C 12.29619 19.92128 -0.01046
C 13.50633 19.14735 -0.00891
C 13.57704 17.64671 0.02819
C 13.48835 26.23257 0.00985
C 13.66477 2.1739 0.00165
C 12.28973 34.04147 0.02894
C 14.73657 32.68784 -0.01789
C 15.98985 32.02581 0.00444
C 15.9292 30.55015 -0.00925
C 14.81967 29.76405 0.01877
C 14.84548 28.43154 0.01363
C 16.01416 27.71918 -0.02162
C 15.97311 26.15522 0.00415
C 13.49988 0.71012 -0.02971
C 14.71085 24.14616 0.02162
C 13.43604 31.92563 -0.01275
C 9.85065 0.03389 0.02841
C 7.367 25.60757 0.01291
C 7.3673 24.17866 0.00093
C 8.64549 23.39069 0.00057
C 8.59999 22.04215 -0.01634
C 7.37399 21.34634 -0.00334
C 7.41402 19.88623 0.02339
C 8.59567 19.19732 0.01641
C 8.61552 0.70451 -0.00719
C 12.356 32.66853 -0.01111
C 7.38456 0.03887 0.01364
C 9.75523 25.62553 -0.00033
C 9.88614 24.14073 0.03589
C 11.08128 23.48648 -0.02759
C 11.06515 22.05622 0.0402
C 9.86692 21.38968 0.00572
C 9.77588 19.96371 0.03592
C 11.03949 19.26303 0.00406
C 11.09402 0.70739 0.00943
C 9.72468 32.65498 -0.01062
C 22.12477 17.06031 -0.01527
C 22.15656 15.58911 0.01087
C 23.39844 14.87937 0.00199
C 31.9364 32.68265 0.01428
C 33.17221 31.99428 -0.02142
C 33.2214 30.53485 0.0544
C 31.91944 29.8215 0.00026
C 31.91961 28.43977 0.00682
C 33.18655 27.66364 -0.01779
C 33.21855 26.25658 0.03794
C 31.93598 25.59774 0.01927
C 31.96616 24.16235 0.01574
C 33.26044 23.4905 -0.02383
C 33.23374 21.97476 -0.01429
C 31.96798 21.31787 -0.0136
C 31.91697 19.88198 0.00594
C 33.20026 19.16971 -0.02474
C 33.17188 17.78 0.00369
C 31.89533 17.03269 0.00455
C 31.90332 15.6278 -0.00644
C 29.47819 34.02113 -0.01694
C 30.73161 0.74577 0.01713
C 30.68317 2.12146 0.00346
C 29.51513 2.87271 0.00307
C 30.74208 21.97997 0.01836
C 29.50846 21.27877 0.03531
C 29.50639 19.89137 -0.00669
C 30.77459 19.16845 0.0101
C 30.76878 17.79711 0.01705
C 29.49914 17.0332 -0.0405
C 29.49323 15.62908 -0.01303
C 30.72205 14.90605 -0.01461
C 33.14026 14.9578 -0.01839
C 30.80181 13.49801 -0.02155
C 29.5242 11.31285 -0.03735
C 30.79734 10.62389 -0.00971
C 30.7358 9.25765 0.01518
C 29.51672 8.55609 0.01908
C 29.52636 7.11445 0.07705
C 30.72275 6.38208 0.0103
C 30.73081 4.94455 0.02108
C 29.49914 4.28551 0.00716
C 29.58925 12.82964 -0.00944
C 33.18866 13.40543 0.00137
C 32.00699 12.73356 0.00199
C 31.98471 11.36972 0.04381
C 0.00011 21.33394 -0.01678
C 0.00374 19.83201 0.01223
C 1.18143 19.16495 0.00648
C 1.27574 17.69063 0.02114
C 34.39331 16.99019 -0.02957
C 34.37099 15.64123 0.00343
C 1.21423 14.86666 -0.02656
C 1.13662 13.53774 -0.02442
C 1.23031 22.03329 0.01951
C 0.03591 12.70848 -0.00027
C 34.43263 8.52622 -0.02302
C 0.0442 7.16574 -0.02849
C 1.27221 6.332 0.02931
C 1.24799 4.88143 0.00628
C 34.43112 4.24562 -0.0345
C 0.05435 2.80883 -0.00931
C 1.22119 2.11571 -0.00939
C 1.24181 0.70176 -0.00468
C 34.42085 11.36565 -0.00583
C 30.7296 23.4428 -0.03039
C 1.25061 23.5059 -0.02213
C 34.41162 25.57537 0.00723
C 33.25579 10.71885 0.02806
C 33.16201 9.2662 0.01504
C 31.97071 8.52137 -0.00069
C 31.96675 7.08758 0.04926
C 33.2422 6.44485 -0.03838
C 33.24637 4.96633 0.00349
C 31.94401 4.21841 -0.00323
C 31.96661 2.85405 -0.00841
C 0.01595 24.185 0.02712
C 33.23834 2.18649 0.0001
C 31.9158 34.00746 -0.01404
C 34.39449 32.63981 0.01027
C 1.22434 31.96052 0.01831
C 1.28241 30.54456 -0.01037
C 34.37676 29.77983 -0.00439
C 34.36808 28.3958 -0.00598
C 1.2124 27.66241 -0.05239
C 1.1932 26.279 0.03076
C 33.19052 0.65046 -0.02927
C 29.5114 24.22258 -0.01415
C 29.50825 25.61793 -0.01854
C 30.75923 26.26025 -0.02049
C 24.58834 24.13382 -0.02118
C 25.76806 23.39753 0.00733
C 25.75275 22.02158 -0.00178
C 24.58168 21.31591 0.00768
C 24.62099 19.83776 -0.0276
C 25.8304 19.16451 0.03005
C 25.76921 17.7941 -0.04078
C 24.57 17.07084 0.02117
C 24.56586 25.62817 -0.01971
C 24.58657 15.64267 0.02737
C 25.80575 13.4933 0.00135
C 24.59629 12.81313 0.03102
C 24.60399 11.35207 0.02555
C 25.82638 10.63974 0.01423
C 25.81293 9.18692 -0.00285
C 24.58456 8.49299 -0.009
C 24.56537 7.11477 -0.01199
C 25.82104 6.47494 -0.00229
C 25.84809 14.87954 -0.00498
C 25.83507 4.96319 -0.00938
C 25.76661 26.25979 -0.01586
C 24.58567 28.42552 0.00071
C 23.403 13.47358 0.01511
C 22.06352 12.71314 -0.00478
C 22.09434 11.34196 -0.01662
C 23.37265 10.63736 -0.01185
C 23.34445 9.16524 0.01126
C 22.09371 8.52003 0.01852
C 22.16962 7.04779 -0.00381
C 23.39061 6.36144 0.03046
C 25.85297 27.713 -0.01107
C 23.34025 4.93939 0.0296
C 22.16185 2.76908 -0.02845
C 23.36539 2.12093 -0.03213
C 23.34854 0.70008 0.02239
C 22.14861 34.07801 0.01153
C 24.62794 32.62867 0.02734
C 25.80199 31.98117 -0.0055
C 25.72945 30.53765 0.01515
C 24.52699 29.80888 -0.00225
C 22.14389 4.16696 0.03374
C 3.65502 31.95777 0.03368
C 24.64936 4.25805 -0.0264
C 25.84659 2.11399 0.00684
C 26.956 11.37022 -0.00621
C 28.21349 10.60359 0.02611
C 28.30054 9.2265 0.02198
C 27.07013 8.48454 0.01094
C 27.09929 7.05213 0.00235
C 28.33658 6.34265 0.01495
C 28.32312 4.94685 0.01259
C 27.04635 4.26416 0.01799
C 27.08166 12.72231 0.00194
C 27.01192 2.80592 0.01699
C 28.26141 0.72829 0.01177
C 27.1023 34.00482 0.04266
C 29.59992 32.61942 0.01324
C 30.72559 31.89576 0.0014
C 30.73423 30.50918 0.00924
C 29.52716 29.81118 0.02326
C 29.52267 28.37018 0.00261
C 30.77722 27.68071 0.03265
C 28.24168 2.12084 -0.00416
C 24.60719 2.86413 -0.01154
C 28.33899 13.46561 0.04185
C 27.12066 15.64408 0.01257
C 25.87299 0.72461 -0.01052
C 24.60467 0.031 -0.01679
C 27.09348 32.57051 0.00367
C 28.28398 31.95495 0.04306
C 28.31846 30.5531 0.00996
C 27.01416 29.90103 0.00195
C 27.02321 28.41699 -0.00802
C 28.27236 27.72094 -0.00218
C 28.26025 14.92626 0.02316
C 28.26718 26.27146 -0.01654
C 27.08129 24.15615 -0.0032
C 28.27815 23.49737 0.00622
C 28.2825 21.96738 -0.02815
C 27.07278 21.34368 -0.00942
C 27.09918 19.88079 0.00487
C 28.33195 19.13908 0.00826
C 28.21567 17.7151 -0.00294
C 27.06275 17.06985 0.00152
C 27.03309 25.53483 -0.00037
C 2.58947 32.72814 -0.00077
