429
Graphene
C 34.40887 33.97351 0.01295
C 12.24928 2.87265 0.03589
C 13.49337 2.07739 -0.02759
C 13.54032 0.70195 0.0402
C 12.33248 0.03221 0.00572
C 14.701 32.65728 0.03592
C 15.96957 31.97151 0.00406
C 16.02513 30.5752 0.00943
C 14.75278 29.84446 0.02841
C 14.73671 28.48564 -0.01111
C 15.92749 27.71799 -0.01275
C 12.28311 4.29074 -0.00033
C 16.03696 26.34583 0.00985
C 14.78092 24.06588 -0.00428
C 16.0231 23.3515 0.03101
C 16.01473 21.91947 -0.01536
C 14.73218 21.33197 -0.02689
C 14.57659 19.90025 -0.01046
C 15.84355 19.16877 -0.00891
C 15.8131 17.75631 0.02819
C 14.64742 17.04805 0.00165
C 14.70432 15.56368 -0.02971
C 15.96621 14.87472 0.02894
C 14.84327 25.63197 -0.02245
C 13.54721 5.08589 -0.01062
C 13.38709 6.52309 0.01364
C 12.18804 7.21543 -0.00719
C 13.42471 31.96438 0.00685
C 13.43989 30.56984 0.02888
C 12.21561 29.78939 -0.00482
C 12.25324 28.37845 -0.01384
C 13.52032 27.73004 0.03693
C 13.50995 26.3173 0.01745
C 12.28551 25.60061 0.00488
C 12.29888 24.18063 -0.01004
C 13.47637 23.46889 -0.02896
C 13.54664 22.04669 -0.00131
C 12.31872 21.31532 -0.01118
C 12.26917 19.84554 -0.014
C 13.44321 19.18993 0.02147
C 13.45517 17.76021 0.00373
C 12.28968 17.00692 -0.00191
C 12.23029 15.60299 0.00438
C 13.49816 14.8398 0.01291
C 13.42715 13.48164 0.00093
C 12.23977 12.78381 0.00057
C 12.23042 11.39244 -0.01634
C 13.48752 10.6989 -0.00334
C 13.49943 9.30216 0.02339
C 12.24731 8.62599 0.01641
C 15.87637 13.46227 -0.01789
C 14.64992 12.7563 0.00444
C 14.67503 11.4429 -0.00925
C 15.88213 10.60978 0.01877
C 18.42609 14.86833 0.00228
C 18.45294 13.4965 0.00798
C 17.14116 12.70186 0.00422
C 17.19251 11.36744 0.0351
C 18.45774 10.59262 -0.03113
C 18.41023 9.15054 0.02098
C 17.12052 8.54379 0.01848
C 17.18131 7.10051 -0.00619
C 18.41033 6.3572 -0.02162
C 18.39065 4.95855 0.00889
C 17.20413 4.26768 -0.00481
C 17.20343 2.83825 0.00979
C 18.5007 2.09564 0.01443
C 18.39587 0.70424 0.03505
C 17.19808 0.03464 -0.02815
C 19.66081 32.62061 -0.04147
C 20.92802 31.93867 -0.05302
C 20.83794 30.60074 0.00213
C 19.6052 29.93434 -0.00066
C 19.65547 28.45996 -0.00289
C 20.83807 27.7306 0.00028
C 20.84959 26.30353 -0.02213
C 19.63423 25.5122 0.03698
C 17.17468 15.62827 -0.00114
C 12.20537 32.68972 0.00895
C 17.16382 17.0722 -0.02696
C 18.49339 19.0977 -0.0108
C 15.88992 9.19811 0.01363
C 14.68651 8.53422 -0.02162
C 14.73579 7.09052 0.00415
C 15.91348 6.44065 -0.0014
C 15.99185 5.02907 0.02162
C 14.72497 4.32013 0.0076
C 14.67327 2.83399 0.01241
C 15.95224 2.13928 -0.01454
C 15.96366 0.71847 0.01945
C 14.78629 34.06712 0.01416
C 17.20473 32.72052 0.03542
C 18.36393 31.94059 0.02299
C 18.36026 30.56008 0.00244
C 17.19861 29.80945 -0.01717
C 17.18155 28.39528 0.05265
C 18.4577 27.71382 -0.01952
C 18.41712 26.22856 -0.02813
C 17.20519 25.57312 0.00374
C 17.21303 24.12518 0.00052
C 18.39155 23.4528 -0.03682
C 18.46174 21.98922 0.01965
C 17.25363 21.32952 0.02058
C 17.26558 19.83316 -0.01957
C 18.4232 17.74073 -0.00368
C 9.811 34.06592 0.00393
C 11.01143 0.74967 0.0288
C 11.01131 2.13995 -0.0008
C 2.45407 0.00305 0.02728
C 4.8856 32.69306 -0.00039
C 6.15909 32.0429 0.0064
C 6.03552 30.6324 0.00211
C 4.86767 29.87119 -0.00449
C 4.9472 28.46373 -0.01979
C 6.17466 27.73527 0.02784
C 6.12189 26.35146 -0.01977
C 4.89246 25.57133 -0.00561
C 4.93362 24.14068 0.00208
C 6.08857 23.34436 0.01707
C 5.89273 13.60814 0.02769
C 4.74913 12.78253 -0.03291
C 4.82532 11.29998 -0.04999
C 6.13864 10.78991 0.04505
C 6.10834 9.28972 0.03284
C 4.86345 8.54827 -0.04307
C 4.80478 7.19935 0.03189
C 6.10004 6.54585 0.00031
C 6.12491 5.03414 -0.003
C 4.93462 4.31623 0.01402
C 4.95413 2.83796 0.02379
C 6.21282 2.19852 0.00907
C 3.62196 0.77825 0.00245
C 6.1132 0.72205 0.00643
C 3.70208 2.24753 0.00081
C 2.42128 4.30038 -0.01386
C 3.59907 30.52654 0.00267
C 2.39829 29.75161 0.00787
C 2.50098 28.35318 0.02426
C 3.75017 27.68822 0.01218
C 3.70368 26.32675 -0.01471
C 2.46099 25.54849 -0.02827
C 2.46028 24.17254 0.01078
C 3.65717 23.45249 -0.00112
C 3.77406 22.01441 0.03345
C 2.60614 21.21325 0.00748
C 2.36146 19.7949 0.00662
C 2.44528 17.16184 -0.0154
C 2.41807 15.64771 -0.01299
C 3.62394 14.90811 -0.00407
C 3.57361 13.46912 0.01138
C 2.33242 12.73 0.03278
C 2.32658 11.25879 -0.00177
C 3.60235 10.59139 0.04421
C 3.56783 9.20355 0.00088
C 2.36091 8.51683 0.00828
C 2.44484 7.0548 -0.02375
C 3.7041 6.32529 0.00558
C 3.63611 4.95369 -0.0059
C 2.45258 2.84381 -0.02805
C 19.67713 24.15164 -0.00109
C 4.85795 0.04612 -0.01509
C 8.54496 32.02634 0.02374
C 9.74033 28.50849 -0.02929
C 10.97631 27.71733 -0.00966
C 11.04296 26.32958 -0.03337
C 9.85067 25.62637 0.01227
C 9.88999 24.14235 0.00873
C 11.07455 23.45138 -0.00049
C 11.16361 22.01762 0.00848
C 9.9369 21.51372 -0.01303
C 10.9092 19.08988 -0.01378
C 11.05734 17.76149 0.02635
C 9.55965 15.36278 0.0127
C 10.87635 14.99775 0.01396
C 11.047 13.53106 0.01849
C 9.69968 12.95229 -0.01142
C 9.72008 11.50783 -0.00562
C 10.98069 10.78174 -0.00494
C 11.00167 9.34363 0.00054
C 9.72144 8.71314 0.03007
C 9.75855 7.27139 -0.00095
C 11.01065 6.50866 0.01572
C 11.04078 5.0389 -0.04848
C 9.77477 4.34273 -0.00892
C 9.81066 2.93698 -0.01362
C 9.78074 29.9891 0.03368
C 7.30948 32.73816 0.03267
C 11.03555 30.62797 -0.00077
C 9.81733 32.70984 0.0276
C 8.49931 30.63536 0.00402
C 7.28966 29.91043 0.0073
C 7.33357 28.44043 0.0174
C 8.56823 27.78553 0.03828
C 8.52477 26.30016 0.01226
C 7.32849 25.59588 -0.00279
C 7.29203 24.16481 0.01996
C 8.62693 23.51276 -0.03996
C 8.73771 22.13979 0.01465
C 8.71656 13.82957 -0.00074
C 7.33901 13.14337 -0.00518
C 7.29614 11.66345 0.0086
C 8.48944 10.79233 -0.00643
C 8.52665 9.35528 0.017
C 7.3681 8.63525 -0.03113
C 7.28886 7.24725 -0.02566
C 8.54758 6.41444 -0.00094
C 8.60517 5.01536 0.02322
C 7.36162 4.39428 -0.00725
C 7.4032 2.90564 -0.05697
C 8.63112 2.18671 0.01087
C 8.60826 0.7866 -0.01343
C 7.408 0.0282 0.00988
C 10.96434 32.07184 0.01305
C 3.68527 31.92172 0.01913
C 20.89897 23.443 -0.00491
C 19.64854 21.28364 -0.0258
C 29.4393 12.70707 -0.01461
C 29.45893 11.29494 -0.02155
C 30.65929 10.60518 -0.00944
C 30.63949 9.12708 -0.03735
C 29.49591 8.40878 -0.00971
C 29.44832 7.02226 0.01518
C 30.71117 6.34707 0.01908
C 30.67445 4.94937 0.07705
C 29.54872 4.21627 0.0103
C 29.58106 2.69775 0.02108
C 30.65264 13.43197 -0.01303
C 30.78672 2.01292 0.00716
C 29.54078 34.00038 0.00346
C 32.01872 32.56191 0.01713
C 33.18338 31.85429 -0.01694
C 33.09137 30.46483 0.01428
C 31.87577 29.74714 -0.02142
C 31.98691 28.36871 0.0544
C 33.25778 27.58562 0.00026
C 33.18234 26.18813 0.00682
C 31.92079 25.51225 -0.01779
C 31.93248 24.0803 0.03794
C 30.75317 0.55919 0.00307
C 30.70605 14.91672 -0.0405
C 29.52217 15.66608 0.01705
C 29.4812 17.09964 0.0101
C 27.03012 7.08191 0.02198
C 28.26963 6.33064 0.01094
C 28.26484 4.86348 0.00235
C 27.07072 4.21021 0.01495
C 27.16246 2.81809 0.01259
C 28.32398 2.04317 0.01799
C 28.29509 0.6263 0.01699
C 26.98744 33.93022 -0.00416
C 29.57688 32.55691 0.01177
C 30.69688 31.84846 0.04266
C 30.67573 30.42688 0.01324
C 29.43219 29.75303 0.0014
C 29.41062 28.36014 0.00924
C 30.7235 27.6952 0.02326
C 30.7052 26.29393 0.00261
C 29.49291 25.54687 0.03265
C 29.49006 24.21853 -0.02049
C 30.70799 23.40228 -0.01854
C 30.77424 22.02503 -0.01415
C 29.472 21.34171 -0.03039
C 29.51861 19.92275 0.01836
C 30.80976 19.2699 0.03531
C 30.68277 17.80185 -0.00669
C 33.19428 23.37831 0.01927
C 33.21705 21.99327 0.01574
C 31.98745 21.34771 -0.02383
C 32.02599 19.90823 -0.01429
C 0.04615 24.08746 0.03076
C 1.31121 23.31912 0.00723
C 1.27042 21.89977 0.02712
C 0.02011 21.30097 -0.02213
C 34.39304 19.914 0.01951
C 1.13128 19.19438 -0.01678
C 1.20048 17.80134 0.01223
C 34.41908 17.09485 0.00648
C 0.04469 15.66518 0.02114
C 1.19877 14.94425 -0.02957
C 1.14559 13.45267 0.00343
C 34.32741 12.76652 -0.02656
C 34.31091 11.26601 -0.02442
C 1.06718 10.54497 -0.00027
C 1.08964 9.21859 -0.00583
C 34.34523 8.42335 -0.02302
C 34.37218 7.04365 -0.02849
C 1.20545 6.35356 0.02931
C 1.20858 4.96771 0.00628
C 34.41527 4.24148 -0.0345
C 34.34966 2.77761 -0.00931
C 1.1433 2.09766 -0.00939
C 1.2066 0.64922 -0.00468
C 34.40659 25.45191 -0.05239
C 27.00155 8.58187 0.02611
C 1.1798 26.23218 -0.00598
C 34.41364 28.37669 -0.01037
C 33.22029 19.22507 -0.0136
C 33.21637 17.72457 0.00594
C 31.95826 17.04561 -0.02474
C 31.99339 15.65965 0.00369
C 33.2367 15.02321 0.00455
C 33.12424 13.51748 -0.00644
C 31.88447 12.78048 -0.01839
C 31.89086 11.36916 0.00137
C 33.09978 10.62052 0.00199
C 33.16134 9.1833 0.04381
C 31.90151 8.38514 0.02806
C 31.97986 6.99419 0.01504
C 33.13836 6.27809 -0.00069
C 33.1977 4.89318 0.04926
C 31.91112 4.22219 -0.03838
C 31.97822 2.69895 0.00349
C 33.1818 2.04129 -0.00323
C 33.21533 0.60842 -0.00841
C 31.96557 33.9906 0.0001
C 0.08521 32.55242 -0.02927
C 1.27331 31.82185 -0.01404
C 1.1135 30.50489 0.01027
C 34.31718 29.78628 0.01831
C 1.19255 27.68432 -0.00439
C 28.26581 9.25514 -0.00621
C 28.20705 10.65963 0.00194
C 26.97145 11.36508 0.04185
C 22.10681 25.57365 0.00675
C 22.15118 24.18491 -0.00311
C 23.30577 23.41629 0.00742
C 23.32285 22.03529 -0.01594
C 22.09909 21.32169 0.0106
C 22.08632 19.86731 -0.01154
C 23.38035 19.2689 -0.01721
C 23.33624 17.76917 -0.02422
C 22.13289 17.01818 0.01277
C 22.16253 15.61426 0.00096
C 23.37166 14.88811 -0.01527
C 23.37821 13.53039 0.01087
C 22.11001 12.83844 0.00199
C 22.0794 11.34855 0.01511
C 23.31645 10.67322 -0.00478
C 23.30322 9.19553 -0.01662
C 22.09673 8.45279 -0.01185
C 22.13833 7.08125 0.01126
C 23.37307 6.38587 0.01852
C 23.33975 5.02819 -0.00381
C 22.04465 4.24574 0.03046
C 22.19434 2.7928 0.0296
C 23.42666 2.08581 0.03374
C 23.3787 26.31616 -0.00865
C 23.29025 0.71338 -0.02845
C 23.30596 27.67447 0.0058
C 22.02556 29.86035 -0.04076
C 19.62678 19.87193 -0.0331
C 20.88592 19.14352 -0.00316
C 20.89459 17.76204 0.02188
C 19.63094 17.08798 -0.01979
C 19.64868 15.62604 0.02691
C 20.85634 14.94245 -0.01581
C 20.92168 13.54921 0.01452
C 19.65568 12.74813 0.04892
C 19.6879 11.30799 -0.00111
C 20.85719 10.6009 -0.03557
C 20.80613 9.15783 0.03754
C 19.58239 8.50195 0.01739
C 19.66151 7.15134 0.00755
C 20.88643 6.3911 -0.0054
C 20.84572 5.01223 0.00667
C 19.63444 4.26992 0.00143
C 19.75048 2.85065 -0.017
C 20.94662 2.14472 0.00364
C 20.82417 0.72598 -0.00831
C 19.63497 34.07673 -0.02957
C 22.15444 32.63678 -0.04422
C 23.40669 31.94996 0.00654
C 23.33296 30.5661 -0.00703
C 22.07218 28.39601 -0.00652
C 20.91385 21.97102 0.03338
C 22.03516 0.02012 -0.03213
C 25.78501 31.86396 0.01153
C 25.91303 2.12007 -0.0264
C 25.81178 0.74383 -0.01154
C 24.60508 0.02947 0.00684
C 27.11142 32.59 -0.01052
C 28.3134 31.89623 -0.01679
C 28.3157 30.53691 0.00367
C 27.01542 29.85149 0.04306
C 27.03529 28.44622 0.00996
C 28.16586 27.62237 0.00195
C 28.21982 26.26308 -0.00802
C 27.00805 25.54364 -0.00218
C 27.06569 24.1819 -0.01654
C 28.33303 23.4763 -0.00037
C 28.22572 22.07604 -0.0032
C 27.01712 21.38305 0.00622
C 27.05174 19.94212 -0.02815
C 28.26808 19.19048 -0.00942
C 28.2849 17.7733 0.00487
C 27.03331 17.04687 0.00826
C 27.03118 15.61576 -0.00294
C 28.24936 14.96369 0.00152
C 28.21245 13.41665 0.01257
C 26.9686 12.79688 0.02316
C 24.65088 2.8851 -0.00938
C 24.66811 32.66792 0.02239
C 24.52136 4.25469 -0.00229
C 25.76044 6.45455 -0.009
C 25.7967 30.45609 0.02734
C 24.48746 29.84977 -0.0055
C 24.54039 28.41136 0.01515
C 25.77588 27.69772 -0.00225
C 25.79665 26.26207 0.00071
C 24.53215 25.59987 -0.01107
C 24.54483 24.1922 -0.01586
C 25.79837 23.40404 -0.01971
C 25.75656 22.00196 -0.02118
C 24.54475 21.23835 0.00733
C 24.597 19.93731 -0.00178
C 25.81192 19.20314 0.00768
C 25.82084 17.6754 -0.0276
C 24.54393 17.01289 0.03005
C 24.51544 15.67099 -0.04078
C 25.73368 14.97995 0.02117
C 25.79624 13.55013 0.02737
C 24.59896 12.80546 -0.00498
C 24.52994 11.37475 0.00135
C 25.74997 10.72205 0.03102
C 25.75121 9.2885 0.02555
C 24.53957 8.51913 0.01423
C 24.54444 7.15093 -0.00285
C 25.82514 5.02122 -0.01199
C 2.50329 32.6806 -0.03672
