361
Graphene
C 34.42446 0.10596 0.01295
C 9.71428 11.23419 0.02058
C 11.03773 10.5971 -0.01957
C 11.08574 9.219 -0.0108
C 9.81276 8.56132 -0.00368
C 9.7764 7.06046 -0.02696
C 10.97871 6.36075 -0.00114
C 10.99972 4.96582 0.00228
C 9.78866 4.18313 0.00798
C 9.75097 12.72523 0.01965
C 9.85254 2.81375 0.00422
C 11.05772 0.69407 -0.03113
C 9.83272 0.10911 0.02098
C 12.34993 32.68101 0.01848
C 13.52041 31.94638 -0.00619
C 13.49665 30.46475 -0.02162
C 12.28003 29.80357 0.00889
C 12.29933 28.42915 -0.00481
C 13.53991 27.63348 0.00979
C 11.0595 2.15174 0.0351
C 11.03213 13.41189 -0.03682
C 11.08279 14.82244 0.00052
C 9.86277 15.59301 0.00374
C 8.63191 2.13423 -0.00925
C 8.64614 0.73692 0.01877
C 7.34803 0.01937 0.01363
C 9.88371 32.69486 -0.02162
C 11.12778 31.94116 0.00415
C 11.07999 30.5077 -0.0014
C 9.83086 29.85842 0.02162
C 9.815 28.44724 0.0076
C 11.04335 27.74093 0.01241
C 11.05991 26.25993 -0.01454
C 9.84793 25.59952 0.01945
C 9.87814 24.12124 0.01416
C 11.05132 23.50644 0.03542
C 11.10863 22.05648 0.02299
C 9.8634 21.28184 0.00244
C 9.85775 19.92894 -0.01717
C 11.14074 19.19864 0.05265
C 11.09231 17.70811 -0.01952
C 9.83888 17.04789 -0.02813
C 13.57656 26.23311 0.01443
C 7.31936 2.8556 0.00444
C 12.20308 25.54554 0.03505
C 13.55242 23.43295 -0.04147
C 15.97862 32.00394 0.00755
C 15.89835 30.51326 -0.0054
C 14.67644 29.77977 0.00667
C 14.68883 28.41534 0.00143
C 15.87966 27.63633 -0.017
C 15.9893 26.1462 0.00364
C 14.76977 25.50311 -0.00831
C 14.80541 24.09423 -0.02957
C 14.74513 32.65439 0.01739
C 16.02646 23.40304 -0.04422
C 14.74686 21.28201 -0.00703
C 14.78592 19.95334 -0.04076
C 16.0216 19.19316 -0.00652
C 16.04401 17.7289 0.0058
C 14.77121 17.00883 -0.00865
C 14.83219 15.60791 0.00675
C 15.83445 14.80714 -0.00311
C 15.9498 13.45299 0.00742
C 16.03816 21.99954 0.00654
C 12.32989 34.06912 0.03754
C 13.48717 0.72519 -0.03557
C 13.47033 2.14905 -0.00111
C 13.5906 22.00855 -0.05302
C 12.32428 21.27376 0.00213
C 12.37208 19.84537 -0.00066
C 13.56296 19.17107 -0.00289
C 13.57098 17.7137 0.00028
C 12.30901 17.00296 -0.02213
C 12.29769 15.60512 0.03698
C 13.48794 14.90193 -0.00109
C 13.51222 13.49896 -0.00491
C 12.25048 12.79205 0.03338
C 12.34052 11.36111 -0.0258
C 13.57993 10.60382 -0.0331
C 13.58835 9.16691 -0.00316
C 12.34917 8.55387 0.02188
C 12.25869 7.11656 -0.01979
C 13.4418 6.35324 0.02691
C 13.43038 4.96015 -0.01581
C 12.24734 4.25232 0.01452
C 12.23533 2.85551 0.04892
C 12.25301 24.17441 -0.02815
C 7.27674 4.31707 -0.01789
C 8.52654 4.97366 0.02894
C 8.58616 6.4047 -0.02971
C 3.62618 6.50974 0.0127
C 3.66543 5.07057 0.01396
C 2.41968 4.32337 0.01849
C 2.43562 2.86567 -0.01142
C 3.73276 2.14879 -0.00562
C 3.69788 0.79925 -0.00494
C 2.46238 0.11024 0.00054
C 4.8897 32.66688 0.03007
C 2.45177 7.18031 0.02635
C 6.10465 32.02538 -0.00095
C 4.83159 29.9116 -0.04848
C 4.92643 28.47662 -0.00892
C 6.13557 27.73817 -0.01362
C 6.11887 26.29486 -0.0008
C 4.92822 25.53254 0.0288
C 4.85834 24.19654 0.00393
C 6.11535 23.40008 0.00895
C 6.16312 22.01136 0.00685
C 6.09918 30.56139 0.01572
C 2.47824 8.58035 -0.01378
C 3.6675 9.32222 -0.01303
C 3.65174 10.79904 0.00848
C 3.59255 30.59443 -0.03113
C 2.39316 29.80632 -0.02566
C 2.37409 28.44389 -0.00094
C 3.62939 27.71862 0.02322
C 3.7519 26.30614 -0.00725
C 2.43687 25.59984 -0.05697
C 2.41712 24.16771 0.01087
C 3.69632 23.45811 -0.01343
C 3.70935 21.98224 0.00988
C 2.45043 21.2889 0.0276
C 2.46073 19.87724 0.01305
C 3.73568 19.11549 -0.00077
C 3.68927 17.70795 0.03368
C 2.5058 16.98967 -0.02929
C 2.39555 15.61807 -0.00966
C 3.74327 14.96554 -0.03337
C 3.6203 13.45408 0.01227
C 2.41141 12.75438 0.00873
C 2.4431 11.37016 -0.00049
C 4.89086 21.28728 0.02888
C 4.96742 19.96166 -0.00482
C 6.19473 19.18633 -0.01384
C 6.19692 17.74665 0.03693
C 8.59079 26.26915 -0.02759
C 7.3628 25.56473 0.0402
C 7.39094 24.15439 0.00572
C 8.65101 23.44497 0.03592
C 8.64984 22.01496 0.00406
C 7.4476 21.36053 0.00943
C 7.46904 19.93816 0.02841
C 8.68438 19.16563 -0.01111
C 8.713 17.81514 -0.01275
C 7.42798 17.06425 0.00985
C 7.44438 15.60643 -0.02245
C 8.62616 14.74677 -0.00428
C 8.56644 13.44877 0.03101
C 7.30175 12.76363 -0.01536
C 7.37137 11.34666 -0.02689
C 8.56022 10.61426 -0.01046
C 8.58756 9.18041 -0.00891
C 7.36345 8.50755 0.02819
C 7.32936 7.12118 0.00165
C 8.56336 27.77421 0.03589
C 14.8114 12.73668 -0.01594
C 7.37897 28.38521 -0.00033
C 8.54533 30.54492 0.01364
C 4.98677 17.04991 0.01745
C 4.98483 15.65853 0.00488
C 6.18555 14.90895 -0.01004
C 6.1143 13.54056 -0.02896
C 4.8663 12.84316 -0.00131
C 4.86173 11.46838 -0.01118
C 6.09497 10.72786 -0.014
C 6.14808 9.32327 0.02147
C 4.8827 8.62209 0.00373
C 4.86386 7.18471 -0.00191
C 6.09991 6.45092 0.00438
C 6.0386 5.0494 0.01291
C 4.93059 4.33633 0.00093
C 4.93656 2.86243 0.00057
C 6.10396 2.16846 -0.01634
C 6.10244 0.73204 -0.00334
C 4.89704 34.07763 0.02339
C 7.36293 32.68434 0.01641
C 8.61817 31.99267 -0.00719
C 7.40825 29.82436 -0.01062
C 3.62774 31.99515 0.017
C 14.82457 11.37208 0.0106
C 15.95901 9.1264 -0.01721
C 30.61309 2.14272 0.01713
C 30.76372 0.74001 -0.01694
C 29.5568 34.04881 0.01428
C 31.92189 32.65724 -0.02142
C 33.22332 31.9758 0.0544
C 33.23509 30.57452 0.00026
C 31.92829 29.89466 0.00682
C 31.89414 28.42809 -0.01779
C 29.23271 2.90048 0.00346
C 33.13479 27.70961 0.03794
C 32.01091 25.64843 0.01574
C 31.97325 24.15541 -0.02383
C 33.20548 23.43874 -0.01429
C 33.18084 21.97009 -0.0136
C 31.95096 21.25664 0.00594
C 31.90264 19.81009 -0.02474
C 33.19417 19.11822 0.00369
C 33.21776 17.73397 0.00455
C 33.22499 26.25989 0.01927
C 29.44061 4.244 0.00307
C 30.55957 4.97858 0.00716
C 30.65622 6.37075 0.02108
C 27.07118 21.40586 -0.01854
C 28.0485 2.03002 -0.01415
C 28.36739 0.64679 -0.03039
C 27.11782 34.02255 0.01836
C 29.55065 32.68847 0.03531
C 30.72683 31.92145 -0.00669
C 30.69515 30.54807 0.0101
C 29.53716 29.78211 0.01705
C 29.45714 28.41524 -0.0405
C 30.66945 27.69089 -0.01303
C 30.71158 26.28173 -0.01461
C 29.53078 25.60579 -0.02155
C 29.52177 24.14134 -0.00944
C 30.73702 23.39596 -0.03735
C 30.7477 21.92121 -0.00971
C 29.47275 21.29641 0.01518
C 29.51098 19.81483 0.01908
C 30.54027 19.00775 0.07705
C 30.74 17.64363 0.0103
C 32.04743 17.17821 -0.00644
C 28.26779 22.07914 -0.02049
C 33.22031 15.01587 -0.01839
C 33.13792 10.7415 0.00199
C 1.26395 19.16613 -0.01678
C 1.2705 17.71136 0.01223
C 0.03586 16.99979 0.00648
C 34.36954 15.66099 0.02114
C 1.16444 14.89793 -0.02957
C 1.1086 13.45474 0.00343
C 34.2609 12.81453 -0.02656
C 34.39024 11.40939 -0.02442
C 0.01977 19.84756 0.01951
C 1.20244 10.7346 -0.00027
C 34.37466 8.64141 -0.02302
C 34.40058 7.15401 -0.02849
C 1.23131 6.52289 0.02931
C 1.21492 5.03863 0.00628
C 0.04926 4.27884 -0.0345
C 34.38264 2.88363 -0.00931
C 1.20436 2.21842 -0.00939
C 1.20058 0.78611 -0.00468
C 1.18145 9.30612 -0.00583
C 0.01426 21.29776 -0.02213
C 1.2193 21.98089 0.02712
C 1.20305 23.39936 0.00723
C 33.00126 9.28701 0.04381
C 32.04558 8.45884 0.02806
C 31.87842 7.05156 0.01504
C 33.21013 6.40955 -0.00069
C 33.11064 4.98532 0.04926
C 31.94878 4.29324 -0.03838
C 31.90382 2.85982 0.00349
C 33.11911 2.16168 -0.00323
C 33.17542 0.71797 -0.00841
C 31.96339 0.03364 0.0001
C 34.40541 32.73024 -0.02927
C 1.16083 32.00034 -0.01404
C 1.14245 30.55908 0.01027
C 34.37101 29.82483 0.01831
C 34.37251 28.43098 -0.01037
C 1.21905 27.66933 -0.00439
C 1.26123 26.25205 -0.00598
C 34.43294 25.59904 -0.05239
C 34.42001 24.14287 0.03076
C 33.31518 13.65193 0.00137
C 28.30882 23.46089 0.03265
C 27.08642 24.15657 0.00261
C 27.08331 25.58788 0.02326
C 17.23549 16.96633 -0.00225
C 17.09784 7.1025 0.00071
C 18.30578 6.39156 -0.01107
C 18.5164 5.08658 -0.01586
C 17.23372 4.27328 -0.01971
C 17.17592 2.82457 -0.02118
C 18.48879 2.20568 0.00733
C 18.39319 0.72525 -0.00178
C 18.43382 19.00953 0.01515
C 17.15956 0.06967 0.00768
C 20.93661 31.99719 0.03005
C 20.95329 30.5186 -0.04078
C 19.64271 29.78933 0.02117
C 19.6209 28.37078 0.02737
C 20.86698 27.69147 -0.00498
C 20.80866 26.27021 0.00135
C 19.64788 25.57054 0.03102
C 19.68 24.06745 0.02555
C 19.6023 32.67092 -0.0276
C 17.26884 19.80243 -0.0055
C 17.22427 21.1903 0.02734
C 18.50624 21.93065 0.01153
C 14.7912 8.44381 -0.02422
C 14.72054 7.03753 0.01277
C 15.97063 6.43624 0.00096
C 15.99266 5.01844 -0.01527
C 14.67256 4.3274 0.01087
C 14.66349 2.83789 0.00199
C 15.92248 2.09562 0.01511
C 15.93441 0.68663 -0.00478
C 14.65453 0.04821 -0.01662
C 17.26158 32.70259 -0.01185
C 18.39206 31.90273 0.01126
C 18.3708 30.47337 0.01852
C 17.17056 29.83133 -0.00381
C 17.11916 28.42687 0.03046
C 18.3093 27.64564 0.0296
C 18.40087 26.23953 0.03374
C 17.23407 25.48266 -0.02845
C 17.24021 24.07901 -0.03213
C 18.4694 23.38543 0.02239
C 20.85499 23.34405 0.01423
C 20.81816 21.96503 -0.00285
C 19.67274 21.2393 -0.009
C 19.46578 19.89919 -0.01199
C 24.69748 29.80503 0.01257
C 24.58195 28.35484 0.02316
C 25.88089 27.65627 0.04185
C 25.75669 26.25107 0.00194
C 24.47404 25.51233 -0.00621
C 24.52859 24.10923 0.02611
C 25.80708 23.46999 0.02198
C 25.77675 21.99806 0.01094
C 24.49694 21.39176 0.00235
C 26.19137 2.12237 0.01495
C 25.93823 0.71792 0.01259
C 24.65597 0.09147 0.01799
C 27.12969 32.61745 0.01699
C 28.35473 31.99697 -0.00416
C 28.30812 30.53504 0.01177
C 27.07681 29.84782 0.04266
C 27.03709 28.3965 0.01324
C 28.23676 27.69902 0.0014
C 28.28216 26.28036 0.00924
C 25.87171 30.57789 0.00152
C 15.872 10.5041 -0.01154
C 25.84123 32.00914 -0.00294
C 22.12706 34.07643 0.00487
C 19.61764 4.27693 -0.00229
C 19.85886 2.80807 -0.00938
C 21.08802 2.07448 -0.0264
C 20.8013 0.706 -0.01154
C 19.61072 0.02696 0.00684
C 22.11856 32.68627 -0.01052
C 23.43959 32.0003 -0.01679
C 23.38164 30.47673 0.00367
C 22.2516 29.8273 0.04306
C 22.10237 28.43861 0.00996
C 23.33838 27.7097 0.00195
C 23.31962 26.22744 -0.00802
C 22.06637 25.51669 -0.00218
C 22.08638 24.08936 -0.01654
C 23.29497 23.38859 -0.00037
C 23.17495 21.80076 -0.0032
C 22.04811 21.13266 0.00622
C 23.20683 2.21991 -0.02815
C 23.41087 0.79092 -0.00942
C 24.6401 32.77876 0.00826
C 2.43211 32.71187 -0.00643
