401
Graphene
C 0.01392 0.00884 0.01295
C 13.4706 30.65835 0.00165
C 12.2411 29.9396 -0.02971
C 12.51029 28.53487 0.02894
C 12.31153 19.74853 -0.01789
C 13.60563 19.19789 0.00444
C 13.58012 17.81398 -0.00925
C 12.25731 17.1234 0.01877
C 12.32523 15.73606 0.01363
C 13.52836 14.99552 -0.02162
C 13.58588 13.56176 0.00415
C 12.28143 12.81676 -0.0014
C 12.32117 11.34434 0.02162
C 13.5595 10.57525 0.0076
C 13.54045 9.19854 0.01241
C 12.375 8.43454 -0.01454
C 12.34975 7.04197 0.01945
C 13.65677 6.35966 0.01416
C 13.60106 4.96251 0.03542
C 12.25595 4.28295 0.02299
C 12.29348 2.84513 0.00244
C 13.50267 2.07306 -0.01717
C 13.48197 32.04537 0.02819
C 13.46353 0.65659 0.05265
C 12.26664 32.69114 -0.00891
C 11.01444 0.70603 -0.02689
C 9.90623 25.5633 0.02339
C 9.8242 24.13641 0.01641
C 9.86104 21.47468 -0.00719
C 9.85942 19.99685 0.01364
C 11.11053 19.17582 -0.01062
C 11.02756 17.80198 -0.00033
C 9.83347 16.97748 0.03589
C 9.88278 15.60323 -0.02759
C 11.16626 14.94973 0.0402
C 11.0919 13.5345 0.00572
C 9.8058 12.78495 0.03592
C 9.80024 11.38107 0.00406
C 11.07006 10.60899 0.00943
C 11.13577 9.15847 0.02841
C 9.8923 8.50177 -0.01111
C 9.78942 7.17041 -0.01275
C 11.04026 6.41975 0.00985
C 11.06725 4.97407 -0.02245
C 9.73159 4.314 -0.00428
C 9.76068 2.84951 0.03101
C 11.02271 2.12397 -0.01536
C 9.75749 0.03396 -0.01046
C 11.00103 26.47557 -0.00334
C 12.23019 0.06224 -0.01952
C 15.96696 31.85152 0.00374
C 18.47236 14.94987 -0.05302
C 18.46416 13.5666 0.00213
C 17.24184 12.79511 -0.00066
C 17.27916 11.34136 -0.00289
C 18.47556 10.6443 0.00028
C 18.43697 9.21156 -0.02213
C 17.2074 8.47637 0.03698
C 17.17958 7.0833 -0.00109
C 18.46091 6.32773 -0.00491
C 18.5083 4.85274 0.03338
C 17.24359 4.21533 -0.0258
C 17.1792 2.85524 -0.0331
C 18.44661 2.13171 -0.00316
C 18.49073 0.67729 0.02188
C 17.21869 0.00875 -0.01979
C 19.49867 28.04288 0.02691
C 20.70283 28.55589 -0.01581
C 20.81822 17.86096 0.01452
C 19.73479 17.08469 0.04892
C 19.62465 15.75396 -0.00111
C 20.86296 15.01146 -0.03557
C 17.20545 15.66728 -0.04147
C 14.77013 32.59293 -0.02813
C 17.22474 17.0473 -0.02815
C 17.18835 32.57376 0.01443
C 15.86064 30.25738 0.00052
C 14.46256 29.68274 -0.03682
C 13.71627 28.37617 0.01965
C 16.01526 17.62599 0.02058
C 14.81725 17.125 -0.01957
C 14.76676 15.61491 -0.0108
C 15.98116 14.92674 -0.00368
C 15.95465 13.51453 -0.02696
C 14.74449 12.80796 -0.00114
C 14.76447 11.33702 0.00228
C 16.02626 10.68465 0.00798
C 15.97686 9.18839 0.00422
C 14.77672 8.44793 0.0351
C 14.8436 7.07652 -0.03113
C 16.02929 6.34094 0.02098
C 15.99808 4.95811 0.01848
C 14.78704 4.23753 -0.00619
C 14.80199 2.79445 -0.02162
C 16.00291 2.11157 0.00889
C 16.03875 0.66131 -0.00481
C 14.79547 34.06914 0.00979
C 17.14159 29.9034 0.03505
C 11.12544 27.78117 -0.01634
C 9.83088 28.51834 0.00057
C 9.77577 29.94291 0.00093
C 2.42762 4.36389 0.02374
C 2.3968 2.92647 0.00402
C 3.60796 2.17057 0.0073
C 3.65034 0.75734 0.0174
C 2.42352 0.03583 0.03828
C 4.81867 32.87403 0.01226
C 6.02938 31.97592 -0.00279
C 6.05696 30.60094 0.01996
C 4.80886 29.87129 -0.03996
C 4.87236 28.42904 0.01465
C 6.16996 27.75826 -0.00074
C 6.24291 26.37692 -0.00518
C 4.93751 25.57718 0.0086
C 4.88697 24.10585 -0.00643
C 6.14997 23.46033 0.017
C 6.10535 22.07979 -0.03113
C 4.89453 21.37363 -0.02566
C 4.88484 19.90401 -0.00094
C 6.11249 19.13995 0.02322
C 6.16836 17.81422 -0.00725
C 4.90329 17.08084 -0.05697
C 3.66702 5.0931 0.03267
C 4.76893 15.60341 0.01087
C 3.68292 6.47509 -0.01509
C 2.3831 8.54327 0.00907
C 3.6633 30.59161 -0.00039
C 2.40891 29.83159 0.0064
C 2.49353 28.42143 0.00211
C 3.6302 27.62055 -0.00449
C 3.67672 26.21365 -0.01979
C 2.43467 25.4775 0.02784
C 2.48387 24.03258 -0.01977
C 3.69341 23.43346 -0.00561
C 3.63026 21.97361 0.00208
C 2.45028 21.23292 0.01707
C 2.45972 19.82391 0.02769
C 3.65347 19.1079 -0.03291
C 3.6458 17.75085 -0.04999
C 2.40988 17.0252 0.04505
C 2.31381 15.64223 0.03284
C 3.55219 14.88924 -0.04307
C 3.65953 13.47816 0.03189
C 2.4151 12.77708 0.00031
C 2.40682 11.35814 -0.003
C 3.65317 10.67171 0.01402
C 3.64499 9.25946 0.02379
C 2.35592 7.11881 0.00643
C 6.10535 14.99087 -0.01343
C 6.14779 13.48881 0.00988
C 4.90295 12.80668 0.0276
C 8.68363 17.73864 -0.0008
C 7.43162 17.10004 0.0288
C 7.40685 15.6859 0.00393
C 8.59312 14.8754 0.00895
C 8.56038 13.49734 0.00685
C 7.38502 12.82395 0.02888
C 7.39349 11.40251 -0.00482
C 8.57827 10.65018 -0.01384
C 8.67969 9.22345 0.03693
C 7.40675 8.51964 0.01745
C 7.4025 7.14321 0.00488
C 8.60026 6.52393 -0.01004
C 8.53904 5.08291 -0.02896
C 7.25676 4.37257 -0.00131
C 7.26218 2.90935 -0.01118
C 8.51461 2.20306 -0.014
C 8.5066 0.79113 0.02147
C 7.30154 0.10331 0.00373
C 9.81163 32.7218 -0.00191
C 11.04379 32.09356 0.00438
C 11.08971 30.62232 0.01291
C 8.57582 19.23004 -0.01362
C 7.29607 19.90151 -0.00892
C 7.38008 21.3253 -0.04848
C 8.64874 22.0247 0.01572
C 4.88863 11.40279 0.01305
C 6.14019 10.68139 -0.00077
C 6.17415 9.28849 0.03368
C 4.85842 8.65831 -0.02929
C 4.8249 7.24451 -0.00966
C 6.1144 6.50942 -0.03337
C 6.10503 5.06092 0.01227
C 4.86845 4.37193 0.00873
C 4.80773 2.91859 -0.00049
C 6.03524 2.30726 0.00848
C 20.84861 13.6017 0.03754
C 6.09183 0.86992 -0.01303
C 7.1774 32.80894 0.02635
C 8.49694 32.03669 0.0127
C 8.59329 30.62394 0.01396
C 7.33775 29.89837 0.01849
C 7.43006 28.44841 -0.01142
C 8.6428 27.72163 -0.00562
C 8.61541 26.30978 -0.00494
C 7.36403 25.58581 0.00054
C 7.36062 24.22774 0.03007
C 8.58003 23.54394 -0.00095
C 4.89625 0.11401 -0.01378
C 3.62279 32.02389 0.02728
C 19.67208 12.87909 0.01739
C 20.87532 10.6424 -0.0054
C 29.49788 7.09016 0.01518
C 30.67906 6.35114 0.01908
C 30.69607 4.94833 0.07705
C 29.43061 4.29341 0.0103
C 29.51934 2.84767 0.02108
C 30.70973 2.1832 0.00716
C 30.73273 0.76847 0.00307
C 29.55557 34.053 0.00346
C 32.0491 32.69192 0.01713
C 33.22475 31.87595 -0.01694
C 33.19354 30.46549 0.01428
C 32.00206 29.79514 -0.02142
C 31.91212 28.3839 0.0544
C 33.16863 27.66606 0.00026
C 33.15108 26.22666 0.00682
C 31.90456 25.50588 -0.01779
C 31.91634 23.99782 0.03794
C 33.16984 23.37979 0.01927
C 33.17021 21.93441 0.01574
C 31.83352 21.31149 -0.02383
C 31.90576 19.89736 -0.01429
C 29.52096 8.48214 -0.00971
C 33.11556 19.22076 -0.0136
C 30.70592 9.1423 -0.03735
C 29.46665 11.3671 -0.02155
C 27.10325 0.00082 -0.00416
C 29.61235 32.59986 0.01177
C 30.83336 31.95135 0.04266
C 30.79759 30.52769 0.01324
C 29.55514 29.85813 0.0014
C 29.51685 28.40902 0.00924
C 30.69998 27.70437 0.02326
C 30.72749 26.19802 0.00261
C 29.5077 25.46603 0.03265
C 29.48484 24.1119 -0.02049
C 30.64764 23.38125 -0.01854
C 30.64586 21.95211 -0.01415
C 29.34902 21.25893 -0.03039
C 29.43173 19.84669 0.01836
C 30.70292 19.1623 0.03531
C 30.62342 17.74351 -0.00669
C 29.44423 17.03288 0.0101
C 29.45861 15.61991 0.01705
C 30.64496 14.92058 -0.0405
C 30.66069 13.53841 -0.01303
C 29.45046 12.70911 -0.01461
C 30.68702 10.62935 -0.00944
C 28.30609 0.65421 0.01699
C 33.14449 17.84393 0.00594
C 31.90522 15.67852 0.00369
C 1.20019 21.87 0.02712
C 34.37722 21.2518 -0.02213
C 34.38491 19.90256 0.01951
C 1.17199 19.16586 -0.01678
C 1.1528 17.78577 0.01223
C 34.31786 17.03959 0.00648
C 34.31512 15.61467 0.02114
C 1.12288 14.88933 -0.02957
C 1.17502 13.46216 0.00343
C 34.40503 12.77043 -0.02656
C 34.37665 11.33789 -0.02442
C 1.14845 10.70398 -0.00027
C 1.18243 9.35435 -0.00583
C 34.38265 8.63131 -0.02302
C 34.35133 7.19246 -0.02849
C 1.14182 6.43198 0.02931
C 1.16363 4.97532 0.00628
C 34.37672 4.33176 -0.0345
C 34.41956 2.86342 -0.00931
C 1.21194 2.13186 -0.00939
C 1.20196 0.76279 -0.00468
C 1.22157 23.34748 0.00723
C 31.86358 17.04128 -0.02474
C 0.04543 24.09717 0.03076
C 1.18354 26.25009 -0.00598
C 33.10707 14.93247 0.00455
C 33.13134 13.54103 -0.00644
C 31.92175 12.78824 -0.01839
C 31.97383 11.40504 0.00137
C 33.19974 10.65982 0.00199
C 33.17424 9.31367 0.04381
C 31.92453 8.56696 0.02806
C 31.8879 7.10851 0.01504
C 33.11917 6.45714 -0.00069
C 33.16773 5.03597 0.04926
C 31.95451 4.34616 -0.03838
C 31.95034 2.91377 0.00349
C 33.17904 2.14766 -0.00323
C 33.23432 0.74795 -0.00841
C 32.01664 0.02648 0.0001
C 34.40645 32.71601 -0.02927
C 1.20871 32.00767 -0.01404
C 1.20004 30.61453 0.01027
C 0.02373 29.82283 0.01831
C 0.02144 28.34636 -0.01037
C 1.20518 27.6885 -0.00439
C 34.39043 25.53364 -0.05239
C 28.30343 2.09728 0.01799
C 27.07203 2.8076 0.01259
C 27.06589 4.23517 0.01495
C 22.05972 12.90195 0.00199
C 22.08561 11.4179 0.01511
C 23.36483 10.70648 -0.00478
C 23.32566 9.23274 -0.01662
C 22.11686 8.48698 -0.01185
C 22.17631 7.08097 0.01126
C 23.40347 6.34592 0.01852
C 23.34016 4.93001 -0.00381
C 22.03693 4.25153 0.03046
C 22.1841 2.77748 0.0296
C 23.40305 2.026 0.03374
C 23.35661 0.60572 -0.02845
C 22.12402 33.98141 -0.03213
C 24.56511 32.46878 0.02239
C 25.86721 31.93108 0.01153
C 25.95602 30.56339 0.02734
C 24.62174 29.81627 -0.0055
C 24.71647 28.38542 0.01515
C 25.89217 27.63617 -0.00225
C 25.79887 26.24678 0.00071
C 24.51575 25.4755 -0.01107
C 23.32716 13.53598 0.01087
C 24.38471 24.02517 -0.01586
C 23.37923 14.9145 -0.01527
C 22.12177 17.08718 0.01277
C 20.89182 9.21813 0.00667
C 19.67587 8.55807 0.00143
C 19.66161 7.10718 -0.017
C 20.89996 6.37571 0.00364
C 20.84861 5.00107 -0.00831
C 19.69321 4.24378 -0.02957
C 19.64697 2.78024 -0.04422
C 20.89038 2.0347 0.00654
C 20.89518 0.59712 -0.00703
C 19.64546 34.00899 -0.04076
C 22.14047 32.62543 -0.00652
C 23.20571 31.82792 0.0058
C 23.35473 30.39359 -0.00865
C 22.00702 28.30744 0.00675
C 23.43392 27.6144 -0.00311
C 23.1992 26.15918 0.00742
C 23.24738 23.10678 -0.01594
C 23.20136 21.82697 0.0106
C 22.15616 20.12223 -0.01154
C 23.21532 19.28705 -0.01721
C 23.32107 17.82736 -0.02422
C 22.12721 15.65461 0.00096
C 25.7 23.39134 -0.01971
C 25.74908 22.00524 -0.02118
C 24.53996 21.181 0.00733
C 28.33838 26.20764 -0.00802
C 27.0112 25.56245 -0.00218
C 26.98892 24.15074 -0.01654
C 28.20473 23.4749 -0.00037
C 28.18183 21.99767 -0.0032
C 26.97387 21.36988 0.00622
C 26.9914 19.91341 -0.02815
C 28.1744 19.16405 -0.00942
C 28.17182 17.70697 0.00487
C 26.93532 17.08129 0.00826
C 27.00289 15.64492 -0.00294
C 28.21718 14.91179 0.00152
C 28.22531 13.48093 0.01257
C 27.03372 12.74707 0.02316
C 27.01242 11.33441 0.04185
C 28.24521 10.65611 0.00194
C 28.24089 9.18841 -0.00621
C 26.99532 8.49426 0.02611
C 27.00661 7.05458 0.02198
C 28.24784 6.47682 0.01094
C 28.22051 5.01361 0.00235
C 28.3174 27.6597 0.00195
C 27.06848 28.39018 0.00996
C 27.11556 29.75877 0.04306
C 28.29144 30.55943 0.00367
C 24.55743 19.83609 -0.00178
C 25.83076 19.14508 0.00768
C 25.74043 17.66879 -0.0276
C 24.5007 17.0948 0.03005
C 24.55451 15.68135 -0.04078
C 25.78643 14.9029 0.02117
C 25.78131 13.495 0.02737
C 24.54587 12.75611 -0.00498
C 24.58811 11.33935 0.00135
C 25.78757 10.68242 0.03102
C 19.75984 11.37904 0.00755
C 25.78475 9.25282 0.02555
C 24.62234 7.03666 -0.00285
C 25.8059 6.30901 -0.009
C 25.80802 4.92849 -0.01199
C 24.58542 4.21122 -0.00229
C 24.56538 2.80404 -0.00938
C 25.85334 2.13737 -0.0264
C 25.79955 0.67976 -0.01154
C 24.57943 34.01343 0.00684
C 27.13831 32.71191 -0.01052
C 28.33534 31.96579 -0.01679
C 24.54337 8.48133 0.01423
C 2.43273 32.73924 0.00245
