446
Graphene
C 34.41608 34.02737 0.01295
C 13.45825 17.8302 0.00438
C 12.27678 17.09792 0.01291
C 12.26496 15.68485 0.00093
C 13.46408 14.94891 0.00057
C 13.56973 13.4621 -0.01634
C 12.36669 12.79054 -0.00334
C 12.36257 11.40962 0.02339
C 13.51551 10.57742 0.01641
C 13.47679 9.22489 -0.00719
C 12.20678 8.45331 0.01364
C 12.30056 7.00475 -0.01062
C 13.58984 6.40184 -0.00033
C 13.55043 5.03918 0.03589
C 12.3447 4.31596 -0.02759
C 12.34758 2.7635 0.0402
C 13.48719 2.02832 0.00572
C 13.4798 0.58411 0.03592
C 12.26787 33.98086 0.00406
C 14.71752 32.6387 0.00943
C 16.00788 31.93824 0.02841
C 15.99408 30.46618 -0.01111
C 14.76792 29.85668 -0.01275
C 14.73586 28.34491 0.00985
C 13.54825 19.18804 -0.00191
C 12.22423 19.95705 0.00373
C 12.31492 21.38148 0.02147
C 13.53874 22.0993 -0.014
C 11.12802 13.55004 -0.00562
C 9.93086 12.83476 -0.00494
C 9.79891 11.46765 0.00054
C 11.01279 10.72524 0.03007
C 11.02889 9.24489 -0.00095
C 9.80135 8.64832 0.01572
C 9.86733 7.14824 -0.04848
C 11.06285 6.46111 -0.00892
C 11.13826 5.01643 -0.01362
C 9.90735 4.29661 -0.0008
C 9.8218 2.90324 0.0288
C 15.9527 27.70944 -0.02245
C 11.08346 2.10713 0.00393
C 9.77143 0.02701 0.00685
C 12.22888 32.55317 0.02888
C 13.49705 31.95458 -0.00482
C 13.52103 30.52874 -0.01384
C 12.32235 29.90631 0.03693
C 12.20989 28.50643 0.01745
C 13.45936 27.70354 0.00488
C 13.47487 26.31357 -0.01004
C 12.29695 25.58842 -0.02896
C 12.25222 24.13302 -0.00131
C 13.55295 23.44889 -0.01118
C 11.01788 0.70641 0.00895
C 15.95045 26.22197 -0.00428
C 14.70449 25.59079 0.03101
C 14.75024 24.23427 -0.01536
C 18.42101 27.68133 0.00374
C 18.42308 26.31057 0.00052
C 17.17215 25.5363 -0.03682
C 17.21241 24.12169 0.01965
C 18.39157 23.38399 0.02058
C 18.40538 21.90581 -0.01957
C 17.12554 21.20264 -0.0108
C 17.18663 19.80569 -0.00368
C 18.44973 19.1804 -0.02696
C 18.3906 17.72318 -0.00114
C 17.17108 17.0319 0.00228
C 17.20113 28.42015 -0.02813
C 17.21052 15.59353 0.00798
C 18.43378 13.53478 0.0351
C 17.28137 12.77436 -0.03113
C 17.24714 11.40597 0.02098
C 18.44138 10.62072 0.01848
C 18.45538 9.22644 -0.00619
C 17.23673 8.50578 -0.02162
C 17.23311 7.11183 0.00889
C 18.4819 6.35449 -0.00481
C 18.4507 4.98145 0.00979
C 17.21123 4.25938 0.01443
C 17.25355 2.81749 0.03505
C 18.38358 14.94704 0.00422
C 11.06753 14.97396 -0.01142
C 17.20791 29.84426 -0.01952
C 18.40096 32.01619 -0.01717
C 15.99915 23.42923 -0.02689
C 15.97228 21.98237 -0.01046
C 14.70924 21.28901 -0.00891
C 14.70942 19.89271 0.02819
C 15.97313 19.09493 0.00165
C 15.9028 17.72221 -0.02971
C 14.704 16.99834 0.02894
C 14.72692 15.60822 -0.01789
C 16.01232 14.87221 0.00444
C 16.03278 13.46789 -0.00925
C 14.7817 12.71501 0.01877
C 18.39067 30.56946 0.05265
C 14.71748 11.33039 0.01363
C 16.0053 9.24068 0.00415
C 14.75682 8.49579 -0.0014
C 14.82456 7.0707 0.02162
C 16.04676 6.44739 0.0076
C 15.97682 4.94792 0.01241
C 14.77082 4.21585 -0.01454
C 14.71598 2.81358 0.01945
C 15.96322 2.13219 0.01416
C 15.95915 0.66391 0.03542
C 14.74483 34.02977 0.02299
C 17.14726 32.66738 0.00244
C 16.00551 10.66228 -0.02162
C 9.80986 15.65655 0.01849
C 9.91252 17.01661 0.01396
C 11.0138 17.87167 0.0127
C 3.67623 0.6513 -0.0154
C 2.41586 34.01546 -0.01299
C 4.93154 32.64984 -0.00407
C 6.08388 32.01555 0.01138
C 6.17939 30.50524 0.03278
C 4.99803 29.83495 -0.00177
C 4.9315 28.45537 0.04421
C 6.16588 27.6792 0.00088
C 6.13831 26.30234 0.00828
C 4.83526 25.59149 -0.02375
C 4.88827 24.22481 0.00558
C 3.66016 2.06808 0.00662
C 6.13777 23.52089 -0.0059
C 4.91412 21.23966 -0.02805
C 4.98266 19.84825 0.00081
C 6.1584 19.16478 0.00245
C 6.19305 17.78674 0.02728
C 4.85951 17.03417 -0.00039
C 4.91196 15.64371 0.0064
C 6.14141 14.96722 0.00211
C 6.13817 13.54174 -0.00449
C 4.98426 12.8251 -0.01979
C 4.92863 11.35767 0.02784
C 6.12545 10.66031 -0.01977
C 6.11974 22.05754 -0.01386
C 6.11879 9.32145 -0.00561
C 2.4328 2.75258 0.00748
C 3.60448 4.9565 -0.00112
C 3.69509 30.53245 0.02438
C 2.4588 29.8523 -0.02419
C 2.40774 28.4216 -0.03951
C 3.67837 27.77015 -0.00141
C 3.68032 26.40076 -0.00374
C 2.42494 25.59002 -0.0213
C 2.45953 24.10722 0.01116
C 3.71849 23.31768 -0.0005
C 3.7487 21.98002 -0.00018
C 2.43426 21.27267 0.01073
C 2.36719 19.84071 0.01984
C 2.40638 4.19172 0.03345
C 3.60653 19.21253 0.00535
C 2.44641 17.03403 -0.00012
C 2.48507 15.61559 -0.04306
C 3.66222 14.97562 -0.03672
C 3.75295 13.46513 0.01913
C 2.49473 12.72386 0.00267
C 2.46614 11.32433 0.00787
C 3.73105 10.67933 0.02426
C 3.6622 9.27766 0.01218
C 2.41933 8.51326 -0.01471
C 2.48744 7.14309 -0.02827
C 3.71759 6.36827 0.01078
C 3.5932 17.78344 -0.00198
C 18.5301 2.15185 -0.02815
C 4.90368 8.57597 0.00208
C 6.11164 6.40496 0.02769
C 8.57923 9.31613 0.017
C 7.33955 8.61982 -0.03113
C 7.32773 7.20031 -0.02566
C 8.66249 6.50361 -0.00094
C 8.64223 4.99464 0.02322
C 7.38803 4.31742 -0.00725
C 7.4235 2.89872 -0.05697
C 8.69526 2.16553 0.01087
C 8.63484 0.73097 -0.01343
C 7.35978 0.07792 0.00988
C 9.80821 32.63132 0.0276
C 8.57172 10.74569 -0.00643
C 10.96162 31.86384 0.01305
C 9.7738 29.88103 0.03368
C 9.76984 28.42041 -0.02929
C 11.01587 27.80747 -0.00966
C 11.03715 26.27899 -0.03337
C 9.81331 25.63802 0.01227
C 9.77933 24.1419 0.00873
C 11.03336 23.41756 -0.00049
C 11.03518 22.0223 0.00848
C 9.79317 21.28375 -0.01303
C 9.77417 19.92401 -0.01378
C 11.00663 19.29277 0.02635
C 11.04255 30.51843 -0.00077
C 4.9053 7.1092 0.01707
C 7.39158 11.46657 0.0086
C 8.65971 13.49574 -0.00074
C 6.1281 5.03326 -0.03291
C 4.8639 4.28424 -0.04999
C 4.93095 2.8271 0.04505
C 6.15418 2.18116 0.03284
C 6.15006 0.73641 -0.04307
C 4.95832 0.02387 0.03189
C 7.32537 32.72217 0.00031
C 8.54703 31.99901 -0.003
C 8.62468 30.53246 0.01402
C 7.38411 29.78514 0.02379
C 7.39487 28.40582 0.00907
C 7.35764 12.87635 -0.00518
C 8.60023 27.66652 0.00643
C 7.32597 25.57711 0.03267
C 7.33863 24.20051 0.02374
C 8.56415 23.46912 0.00402
C 8.56102 22.07871 0.0073
C 7.35968 21.35086 0.0174
C 7.34146 19.8959 0.03828
C 8.55069 19.1772 0.01226
C 8.50876 17.75973 -0.00279
C 7.32932 17.0079 0.01996
C 7.34369 15.60462 -0.03996
C 8.59474 14.99219 0.01465
C 8.62668 26.28531 -0.01509
C 18.44993 0.75642 -0.04147
C 17.22244 0.09575 -0.05302
C 19.68826 32.61588 0.00213
C 29.4906 17.0331 0.0101
C 29.45059 15.57054 0.01705
C 30.67247 14.87762 -0.0405
C 30.73969 13.48783 -0.01303
C 29.4908 12.7524 -0.01461
C 29.55824 11.26416 -0.02155
C 30.76433 10.5855 -0.00944
C 30.74825 9.21746 -0.03735
C 29.465 8.46279 -0.00971
C 29.45867 7.11163 0.01518
C 30.77576 6.39189 0.01908
C 30.7313 17.64108 -0.00669
C 30.73736 4.97844 0.07705
C 29.49752 2.89985 0.02108
C 30.73115 2.19701 0.00716
C 30.78792 0.85827 0.00307
C 29.50395 0.07167 0.00346
C 32.01086 32.70534 0.01713
C 33.21636 32.01074 -0.01694
C 33.21526 30.59367 0.01428
C 31.96034 29.80917 -0.02142
C 31.91646 28.43811 0.0544
C 33.13658 27.65207 0.00026
C 33.22698 26.19407 0.00682
C 29.4872 4.27321 0.0103
C 31.9146 25.60616 -0.01779
C 30.74019 19.13109 0.03531
C 29.40976 21.21881 -0.03039
C 27.07996 12.79158 0.02316
C 27.01641 11.38763 0.04185
C 28.31832 10.64953 0.00194
C 28.2762 9.16397 -0.00621
C 27.01453 8.51829 0.02611
C 27.0855 7.08208 0.02198
C 28.28534 6.45623 0.01094
C 28.28589 4.96688 0.00235
C 27.04532 4.24836 0.01495
C 27.03155 2.85541 0.01259
C 28.24722 2.15523 0.01799
C 29.51811 19.8339 0.01836
C 28.26526 0.70667 0.01699
C 29.52095 32.72846 0.01177
C 30.72615 32.00359 0.04266
C 30.71934 30.53034 0.01324
C 29.47914 29.85967 0.0014
C 29.42581 28.4582 0.00924
C 30.69904 27.77369 0.02326
C 30.72199 26.38391 0.00261
C 29.49619 25.66558 0.03265
C 29.43968 24.23018 -0.02049
C 30.60838 23.45724 -0.01854
C 30.60598 21.93447 -0.01415
C 26.99814 34.06569 -0.00416
C 28.31714 13.50666 0.01257
C 31.90508 24.22344 0.03794
C 33.18013 21.9819 0.01574
C 0.01333 25.54367 -0.05239
C 0.0081 24.12651 0.03076
C 1.30173 23.41602 0.00723
C 1.22043 21.98267 0.02712
C 34.37397 21.30147 -0.02213
C 34.39016 19.88442 0.01951
C 1.15842 19.12599 -0.01678
C 1.19959 17.69892 0.01223
C 0.08084 16.97281 0.00648
C 0.02479 15.50291 0.02114
C 1.23069 14.92335 -0.02957
C 1.20692 26.2421 -0.00598
C 1.22937 13.4932 0.00343
C 0.14669 11.31583 -0.02442
C 1.29194 10.60358 -0.00027
C 1.23209 9.17541 -0.00583
C 0.05368 8.44662 -0.02302
C 0.03426 7.04194 -0.02849
C 1.23337 6.39794 0.02931
C 1.17719 4.89957 0.00628
C 34.42994 4.24885 -0.0345
C 0.0186 2.85927 -0.00931
C 1.14678 2.10743 -0.00939
C 1.21308 0.63654 -0.00468
C 0.01749 12.73505 -0.02656
C 33.13138 23.50841 0.01927
C 1.23809 27.65245 -0.00439
C 34.39599 29.76391 0.01831
C 31.91983 21.24436 -0.02383
C 31.92576 19.75881 -0.01429
C 33.14237 19.06979 -0.0136
C 33.21836 17.65515 0.00594
C 31.98868 16.94201 -0.02474
C 31.95225 15.525 0.00369
C 33.16009 14.85243 0.00455
C 33.24255 13.4095 -0.00644
C 32.01477 12.65149 -0.01839
C 32.04392 11.30401 0.00137
C 33.28845 10.59929 0.00199
C 34.3487 28.35405 -0.01037
C 33.24602 9.17355 0.04381
C 31.99401 7.06096 0.01504
C 33.23676 6.38684 -0.00069
C 33.11178 4.98118 0.04926
C 31.97201 4.27889 -0.03838
C 31.99599 2.88518 0.00349
C 33.15934 2.15104 -0.00323
C 33.18768 0.72755 -0.00841
C 31.98028 0.05897 0.0001
C 0.00601 32.61745 -0.02927
C 1.13413 31.89642 -0.01404
C 1.18799 30.38654 0.01027
C 31.98559 8.43988 0.02806
C 3.67173 31.89349 0.00297
C 28.24442 14.8992 0.00152
C 27.07279 17.0501 0.00826
C 20.99968 2.16269 -0.02957
C 20.8943 0.77598 -0.04422
C 19.66316 34.05819 0.00654
C 22.0598 32.70207 -0.00703
C 23.27297 32.04508 -0.04076
C 23.34217 30.54483 -0.00652
C 22.15626 29.80163 0.0058
C 22.20103 28.43135 -0.00865
C 23.46173 27.63951 0.00675
C 23.33837 26.16315 -0.00311
C 22.10838 25.63299 0.00742
C 19.67758 2.85695 -0.00831
C 22.08219 24.1523 -0.01594
C 23.37681 22.00175 -0.01154
C 22.087 21.37046 -0.01721
C 22.1407 19.91745 -0.02422
C 23.39642 19.17802 0.01277
C 23.37789 17.72358 0.00096
C 22.11227 17.01441 -0.01527
C 22.07156 15.60399 0.01087
C 23.38036 14.84543 0.00199
C 23.31521 13.40029 0.01511
C 22.06834 12.69773 -0.00478
C 22.10652 11.32573 -0.01662
C 23.34592 23.41608 0.0106
C 23.35438 10.61294 -0.01185
C 19.76106 4.36661 0.00364
C 20.93605 6.45122 0.00143
C 20.89329 31.98408 -0.00066
C 20.90673 30.48779 -0.00289
C 19.63853 29.87838 0.00028
C 19.71939 28.44892 -0.02213
C 20.92339 27.68819 0.03698
C 20.88595 26.31385 -0.00109
C 19.70374 25.58351 -0.00491
C 19.62833 24.11034 0.03338
C 20.87416 23.4099 -0.0258
C 20.88029 22.01805 -0.0331
C 19.64389 21.31369 -0.00316
C 20.94098 5.03523 -0.017
C 19.64482 19.87386 0.02188
C 20.83973 17.72445 0.02691
C 19.62066 17.08159 -0.01581
C 19.66882 15.6064 0.01452
C 20.84071 14.88013 0.04892
C 20.8242 13.47618 -0.00111
C 19.59069 12.78707 -0.03557
C 19.65284 11.36644 0.03754
C 20.89288 10.59889 0.01739
C 20.93063 9.1963 0.00755
C 19.67973 8.5457 -0.0054
C 19.68417 7.08649 0.00667
C 20.85926 19.12663 -0.01979
C 27.04422 15.64134 -0.00294
C 23.38063 9.23024 0.01126
C 22.16323 7.09323 -0.00381
C 25.83738 10.61241 0.01423
C 25.81296 9.24113 -0.00285
C 24.60068 8.56724 -0.009
C 24.57269 7.08548 -0.01199
C 25.85565 6.35979 -0.00229
C 25.85906 4.99185 -0.00938
C 24.64029 4.22197 -0.0264
C 24.65395 2.84501 -0.01154
C 25.82915 2.1347 0.00684
C 25.78328 0.691 -0.01052
C 24.47729 34.04589 -0.01679
C 24.61379 11.36425 0.02555
C 26.95657 32.61439 0.00367
C 28.19593 30.64773 0.00996
C 27.04055 29.87191 0.00195
C 27.06481 28.47025 -0.00802
C 28.31097 27.74781 -0.00218
C 28.25545 26.29368 -0.01654
C 26.99387 25.63758 -0.00037
C 27.11575 24.25786 -0.0032
C 27.07335 21.2794 0.00622
C 27.05098 19.81592 -0.02815
C 28.28221 19.10129 -0.00942
C 28.28707 17.75275 0.00487
C 28.21971 31.98999 0.04306
C 22.16421 8.5042 0.01852
C 24.59575 12.77564 0.03102
C 25.83069 14.85374 -0.00498
C 23.37434 6.38638 0.03046
C 23.45966 4.99426 0.0296
C 22.16268 4.30467 0.03374
C 22.20896 2.89474 -0.02845
C 23.39292 2.11802 -0.03213
C 23.33109 0.72173 0.02239
C 22.1274 0.03253 0.01153
C 24.49181 32.66915 0.02734
C 25.76577 31.91265 -0.0055
C 25.76882 30.50444 0.01515
C 24.52874 29.76461 -0.00225
C 25.82023 13.39956 0.00135
C 24.59946 28.3851 0.00071
C 25.78665 26.34634 -0.01586
C 24.64114 25.55506 -0.01971
C 24.62661 24.15652 -0.02118
C 26.03795 23.46804 0.00733
C 26.01088 22.02212 -0.00178
C 24.66334 21.29786 0.00768
C 24.58186 19.85385 -0.0276
C 25.82222 19.1145 0.03005
C 25.86226 17.73853 -0.04078
C 24.54161 16.97824 0.02117
C 24.51047 15.55144 0.02737
C 25.78004 27.72256 -0.01107
C 2.41077 32.62467 -0.00605
