358
Graphene
C 34.33069 0.10791 0.01295
C 17.17829 28.40663 -0.01957
C 18.38735 27.64429 -0.0108
C 18.37681 26.21461 -0.00368
C 17.14758 25.55251 -0.02696
C 17.23988 24.20283 -0.00114
C 18.50793 23.40742 0.00228
C 18.32915 21.9215 0.00798
C 17.13812 21.28519 0.00422
C 17.15717 29.76407 0.02058
C 17.22791 19.96715 0.0351
C 18.37863 17.67193 0.02098
C 18.43081 14.81933 0.01848
C 18.54668 13.5108 -0.00619
C 18.41262 10.48983 -0.02162
C 18.22172 9.21918 0.00889
C 17.05287 8.45984 -0.00481
C 16.92804 7.088 0.00979
C 18.33667 6.364 0.01443
C 18.17283 19.00725 -0.03113
C 18.48698 4.91334 0.03505
C 18.46097 30.55004 0.01965
C 17.19599 32.58205 0.00052
C 15.90628 31.94645 0.01363
C 15.89293 30.56755 -0.02162
C 14.72235 29.80612 0.00415
C 14.74865 28.41326 -0.0014
C 15.90659 27.73161 0.02162
C 15.92663 26.34811 0.0076
C 14.70923 25.66644 0.01241
C 14.79237 24.24842 -0.01454
C 18.4861 31.95552 -0.03682
C 15.99532 23.49203 0.01945
C 14.70204 21.30651 0.03542
C 15.82715 6.31836 0.02299
C 16.03274 4.79847 0.00244
C 14.78603 4.14599 -0.01717
C 14.73424 2.81381 0.05265
C 15.96854 2.08115 -0.01952
C 15.96608 0.64726 -0.02813
C 14.72505 0.01262 0.00374
C 15.97951 22.08719 0.01416
C 17.23064 4.08806 -0.02815
C 17.23591 2.71723 -0.04147
C 18.55521 2.12346 -0.05302
C 20.84082 10.58626 -0.0054
C 20.83542 9.12681 0.00667
C 19.65416 8.34916 0.00143
C 19.61925 7.02267 -0.017
C 20.90801 6.31624 0.00364
C 21.09027 4.9223 -0.00831
C 19.77388 4.28447 -0.02957
C 19.75066 2.85158 -0.04422
C 19.53797 11.23455 0.00755
C 21.06509 2.25355 0.00654
C 19.74294 0.12847 -0.04076
C 22.28753 32.73558 -0.00652
C 23.43432 32.00163 0.0058
C 23.41364 30.57383 -0.00865
C 22.13678 29.91458 0.00675
C 22.11 28.46202 -0.00311
C 23.24674 27.68645 0.00742
C 23.32359 26.22897 -0.01594
C 21.04604 0.79059 -0.00703
C 19.60011 12.64941 0.01739
C 20.85449 13.39069 0.03754
C 20.87374 14.80478 -0.03557
C 18.42529 0.73661 0.00213
C 17.1814 34.07297 -0.00066
C 19.75668 32.78246 -0.00289
C 21.01455 32.02778 0.00028
C 20.93885 30.58191 -0.02213
C 19.66132 29.84063 0.03698
C 19.6635 28.41085 -0.00109
C 20.85754 27.70537 -0.00491
C 20.8232 26.30752 0.03338
C 19.60384 25.54961 -0.0258
C 19.65781 24.18137 -0.0331
C 20.78016 23.45118 -0.00316
C 20.86115 21.98731 0.02188
C 19.63373 21.22605 -0.01979
C 19.51499 19.85281 0.02691
C 20.76835 19.09682 -0.01581
C 20.834 17.65561 0.01452
C 19.54 17.01449 0.04892
C 19.62656 15.4961 -0.00111
C 14.72237 32.68882 0.01877
C 12.18621 0.07901 -0.00925
C 13.42505 0.78376 0.00444
C 13.4481 2.16917 -0.01789
C 4.92654 29.92301 -0.01142
C 4.9309 28.48924 -0.00562
C 6.12279 27.80247 -0.00494
C 6.17824 26.38969 0.00054
C 4.9014 25.67794 0.03007
C 4.84301 24.19988 -0.00095
C 6.01923 23.4819 0.01572
C 6.05653 22.12758 -0.04848
C 6.21854 30.60991 0.01849
C 4.89091 21.47138 -0.00892
C 6.00267 6.56358 -0.0008
C 6.09566 5.07606 0.0288
C 4.89097 4.35195 0.00393
C 4.87483 2.9014 0.00895
C 6.1096 2.20919 0.00685
C 6.07949 0.81075 0.02888
C 4.85745 0.01981 -0.00482
C 7.33776 32.70148 -0.01384
C 4.79337 7.04785 -0.01362
C 6.17247 32.02739 0.01396
C 4.85132 32.76599 0.0127
C 2.40539 0.0914 0.02635
C 3.71256 30.57195 0.02322
C 2.46775 29.84526 -0.00725
C 2.42542 28.50605 -0.05697
C 3.68135 27.77382 0.01087
C 3.62032 26.36876 -0.01343
C 2.37551 25.59008 0.00988
C 2.40738 24.18002 0.0276
C 3.5954 23.46854 0.01305
C 3.65147 22.07896 -0.00077
C 2.46955 21.34031 0.03368
C 2.33597 19.96731 -0.02929
C 2.30763 8.50668 -0.00966
C 2.32891 7.17562 -0.03337
C 3.54307 6.41105 0.01227
C 3.58946 4.98804 0.00873
C 2.3549 4.28363 -0.00049
C 2.31005 2.81526 0.00848
C 3.64679 2.18599 -0.01303
C 3.60735 0.78284 -0.01378
C 8.57584 32.04097 0.03693
C 22.10526 25.59092 0.0106
C 8.59388 30.51723 0.01745
C 7.36462 28.4762 -0.01004
C 9.67655 2.91101 0.03592
C 10.99912 2.31021 0.00406
C 11.02922 0.88262 0.00943
C 9.81051 0.11625 0.02841
C 12.20451 32.76806 -0.01111
C 13.46551 32.05289 -0.01275
C 13.46868 30.5422 0.00985
C 12.24683 29.83607 -0.02245
C 9.78553 4.45288 0.00572
C 12.26118 28.42338 -0.00428
C 13.57562 26.33012 -0.01536
C 12.31976 25.61355 -0.02689
C 12.28106 24.21694 -0.01046
C 13.58813 23.57842 -0.00891
C 13.70752 22.22498 0.02819
C 13.73924 5.08821 0.00165
C 12.40377 4.61948 -0.02971
C 12.29027 3.01332 0.02894
C 13.51624 27.76596 0.03101
C 11.10155 5.01306 0.0402
C 11.12316 23.48589 -0.02759
C 9.86984 23.99511 0.03589
C 8.52799 27.79053 -0.02896
C 8.57834 26.30923 -0.00131
C 7.33329 25.58582 -0.01118
C 7.36458 24.1296 -0.014
C 8.61978 23.47615 0.02147
C 8.55122 5.10022 0.00373
C 7.38352 4.41197 -0.00191
C 7.29841 2.98657 0.00438
C 8.43318 2.24599 0.01291
C 8.52136 0.78121 0.00093
C 7.3331 0.03194 0.00057
C 9.80529 32.82345 -0.01634
C 11.05163 32.0418 -0.00334
C 11.10286 30.65814 0.02339
C 9.83886 29.90075 0.01641
C 9.81138 28.46972 -0.00719
C 11.05398 27.71364 0.01364
C 11.01126 26.27133 -0.01062
C 9.77369 25.54172 -0.00033
C 7.36671 29.86841 0.00488
C 22.09864 24.18217 -0.01154
C 23.28196 23.42769 -0.01721
C 23.33335 22.01113 -0.02422
C 31.90183 32.73044 0.01713
C 33.2304 32.01258 -0.01694
C 33.14667 30.5653 0.01428
C 31.91493 29.87312 -0.02142
C 31.93143 28.42007 0.0544
C 33.11531 27.73238 0.00026
C 33.12587 26.32553 0.00682
C 31.79164 25.57559 -0.01779
C 29.42028 34.06273 0.00346
C 31.92581 24.16223 0.03794
C 33.07188 22.01068 0.01574
C 31.89817 21.33132 -0.02383
C 31.82713 19.88521 -0.01429
C 33.11526 19.18046 -0.0136
C 33.15215 17.76026 0.00594
C 31.96697 17.1228 -0.02474
C 31.90165 15.56411 0.00369
C 33.10112 14.88071 0.00455
C 33.17053 23.39416 0.01927
C 30.59789 0.80203 0.00307
C 30.35785 2.17729 0.00716
C 29.0134 2.75963 0.02108
C 30.64121 23.44087 -0.01854
C 30.67276 22.04366 -0.01415
C 29.37061 21.29826 -0.03039
C 29.4098 19.85349 0.01836
C 30.56914 19.20319 0.03531
C 30.72821 17.78693 -0.00669
C 29.47172 17.04317 0.0101
C 29.45878 15.62628 0.01705
C 30.73156 14.88051 -0.0405
C 30.65884 13.47118 -0.01303
C 29.38555 12.79773 -0.01461
C 29.04072 11.41371 -0.02155
C 30.20192 10.60859 -0.00944
C 30.16005 9.25036 -0.03735
C 28.93232 8.40427 -0.00971
C 29.31332 7.031 0.01518
C 30.49803 6.37758 0.01908
C 30.30358 4.9664 0.07705
C 28.91395 4.20235 0.0103
C 33.1142 13.43426 -0.00644
C 29.4572 24.09001 -0.02049
C 31.79936 12.75187 -0.01839
C 32.90431 10.61607 0.00199
C 1.36162 19.11901 -0.01678
C 1.22539 17.78297 0.01223
C 0.03163 17.10254 0.00648
C 34.37595 15.63776 0.02114
C 1.17561 14.76737 -0.02957
C 1.06275 13.48187 0.00343
C 34.26301 12.67103 -0.02656
C 34.27345 11.34838 -0.02442
C 34.30443 19.87389 0.01951
C 1.01097 10.69714 -0.00027
C 34.2258 8.48291 -0.02302
C 34.25412 7.11552 -0.02849
C 1.07335 6.43051 0.02931
C 1.08049 5.04783 0.00628
C 34.25389 4.33234 -0.0345
C 34.30202 3.01266 -0.00931
C 1.029 2.23754 -0.00939
C 1.12842 0.76373 -0.00468
C 1.28385 9.34711 -0.00583
C 34.30444 21.32908 -0.02213
C 1.19179 22.05618 0.02712
C 1.0894 23.46278 0.00723
C 32.94981 9.18072 0.04381
C 31.60135 8.49616 0.02806
C 31.65653 7.10036 0.01504
C 32.89238 6.38567 -0.00069
C 33.01045 5.00445 0.04926
C 31.5649 4.3667 -0.03838
C 31.69146 2.88442 0.00349
C 32.96498 2.21905 -0.00323
C 33.04637 0.81287 -0.00841
C 31.82049 0.10194 0.0001
C 34.38202 32.81293 -0.02927
C 1.15698 31.96917 -0.01404
C 1.18091 30.54155 0.01027
C 34.3411 29.82567 0.01831
C 34.3051 28.4132 -0.01037
C 1.17362 27.79148 -0.00439
C 1.20891 26.30139 -0.00598
C 34.343 25.62731 -0.05239
C 34.33054 24.19122 0.03076
C 31.68024 11.23574 0.00137
C 3.61422 32.03437 -0.00094
C 29.48072 25.54721 0.03265
C 30.72264 27.67428 0.02326
C 25.79925 30.4889 0.00071
C 24.57215 29.82979 -0.01107
C 24.49241 28.43789 -0.01586
C 25.73381 27.70064 -0.01971
C 25.76157 26.29014 -0.02118
C 24.58529 25.52945 0.00733
C 24.49758 24.15923 -0.00178
C 25.75078 23.45138 0.00768
C 25.80623 31.88264 -0.00225
C 25.75132 22.07817 -0.0276
C 24.46593 19.89769 -0.04078
C 25.72568 19.17218 0.02117
C 25.76003 17.73633 0.02737
C 24.52671 17.04903 -0.00498
C 24.62185 15.57976 0.00135
C 25.80436 14.85617 0.03102
C 25.84722 13.51127 0.02555
C 24.69201 12.70593 0.01423
C 24.56867 21.30579 0.03005
C 24.68508 32.70767 0.01515
C 22.23636 34.07808 -0.0055
C 23.57121 0.78311 0.02734
C 22.10674 21.24479 0.01277
C 22.04546 19.80494 0.00096
C 23.25778 19.10537 -0.01527
C 23.30007 17.71348 0.01087
C 22.07659 16.9139 0.00199
C 22.15549 15.50979 0.01511
C 23.38162 14.78652 -0.00478
C 23.40086 13.37765 -0.01662
C 22.10615 12.61713 -0.01185
C 22.11965 11.17854 0.01126
C 23.50812 10.58551 0.01852
C 23.56625 9.20659 -0.00381
C 22.27604 8.44159 0.03046
C 22.20409 7.0481 0.0296
C 23.53544 6.45667 0.03374
C 23.79549 5.02628 -0.02845
C 22.47162 4.22041 -0.03213
C 22.37443 2.84305 0.02239
C 23.68021 2.16363 0.01153
C 24.83184 11.31937 -0.00285
C 30.6408 26.25967 0.00261
C 26.32242 10.73172 -0.009
C 24.88805 8.48074 -0.00229
C 26.99928 16.9411 0.02316
C 27.04124 15.62645 0.04185
C 28.26912 15.03673 0.00194
C 28.31522 13.70346 -0.00621
C 27.14406 12.89704 0.02611
C 27.52441 11.49499 0.02198
C 27.3971 8.55608 0.01094
C 27.0613 7.20737 0.00235
C 28.23 17.74591 0.01257
C 28.09805 6.24241 0.01495
C 27.8343 1.98712 0.01799
C 28.11828 0.59665 0.01699
C 26.99521 33.91844 -0.00416
C 29.49015 32.71062 0.01177
C 30.7124 32.07942 0.04266
C 30.78789 30.57995 0.01324
C 29.50088 29.87734 0.0014
C 29.54108 28.40519 0.00924
C 27.80358 4.95477 0.01259
C 28.19253 19.12028 0.00152
C 26.98305 19.83149 -0.00294
C 26.93537 21.23929 0.00826
C 24.80668 7.17504 -0.00938
C 25.99082 6.4572 -0.0264
C 26.21183 5.08025 -0.01154
C 25.09922 4.28576 0.00684
C 25.08438 2.85692 -0.01052
C 26.20866 1.97136 -0.01679
C 25.96797 0.63001 0.00367
C 24.71509 0.04012 0.04306
C 27.06868 32.56031 0.00996
C 28.2624 31.8669 0.00195
C 28.30846 30.48321 -0.00802
C 26.98411 29.8086 -0.00218
C 26.95229 28.38912 -0.01654
C 28.27478 27.67426 -0.00037
C 28.26651 26.28447 -0.0032
C 26.99242 25.60031 0.00622
C 27.01121 24.1672 -0.02815
C 28.24468 23.39954 -0.00942
C 28.18864 21.92593 0.00487
C 26.26561 9.28191 -0.01199
C 2.42703 32.72843 -0.02566
