400
Graphene
C 0.01562 0.0306 0.01295
C 9.89808 34.06679 0.00165
C 12.25334 32.72674 -0.02971
C 13.51717 31.98329 0.02894
C 13.54274 30.5249 -0.01789
C 12.33943 29.85937 0.00444
C 12.3159 28.42521 -0.00925
C 13.47989 27.66001 0.01877
C 13.49666 26.25432 0.01363
C 12.27178 25.45079 -0.02162
C 12.27778 24.11555 0.00415
C 13.58064 23.45849 -0.0014
C 13.56673 21.98226 0.02162
C 12.33453 21.27542 0.0076
C 12.32959 19.84832 0.01241
C 13.50634 19.21292 -0.01454
C 13.51833 17.74269 0.01945
C 12.30431 16.98958 0.01416
C 12.2165 15.59997 0.03542
C 12.38902 8.44531 0.02299
C 12.25826 7.07888 0.00244
C 13.51282 6.43293 -0.01717
C 11.08966 0.66668 0.02819
C 13.50341 5.00311 0.05265
C 11.01874 2.17462 -0.00891
C 9.85494 4.30413 -0.02689
C 11.10378 26.30064 0.02339
C 9.87042 25.59377 0.01641
C 9.86617 24.16648 -0.00719
C 11.05073 23.4572 0.01364
C 11.09473 22.02874 -0.01062
C 9.85691 21.3343 -0.00033
C 9.83355 19.95646 0.03589
C 11.04046 19.17599 -0.02759
C 11.04626 17.8183 0.0402
C 9.84991 16.9869 0.00572
C 9.82615 15.62378 0.03592
C 11.09381 14.9326 0.00406
C 11.12124 13.46582 0.00943
C 9.81262 12.74146 0.02841
C 9.82639 11.38394 -0.01111
C 11.07778 10.64717 -0.01275
C 11.04044 9.23222 0.00985
C 9.85041 8.51638 -0.02245
C 9.89743 7.12327 -0.00428
C 11.06206 6.40851 0.03101
C 11.0798 4.97064 -0.01536
C 9.82143 2.93885 -0.01046
C 11.07124 27.7299 -0.00334
C 12.26686 4.1894 -0.01952
C 13.53345 2.08607 0.00374
C 18.45671 32.01407 -0.05302
C 18.44176 30.49991 0.00213
C 17.17647 29.82431 -0.00066
C 17.20353 28.41913 -0.00289
C 18.48938 27.67119 0.00028
C 18.51549 26.3221 -0.02213
C 17.22529 25.52882 0.03698
C 17.22823 24.11026 -0.00109
C 18.45304 23.39927 -0.00491
C 18.46331 21.96034 0.03338
C 17.17235 21.30445 -0.0258
C 17.18842 19.83078 -0.0331
C 18.44167 19.16397 -0.00316
C 18.47357 4.93034 0.02188
C 17.22733 4.30392 -0.01979
C 17.19211 2.86001 0.02691
C 18.41694 2.14801 -0.01581
C 18.3864 0.75228 0.01452
C 17.19978 0.02322 0.04892
C 19.67827 32.6802 -0.00111
C 20.93422 31.91165 -0.03557
C 17.23976 32.67093 -0.04147
C 12.30186 2.84244 -0.02813
C 14.74925 0.02412 -0.02815
C 16.03194 2.16012 0.01443
C 13.5213 0.71191 0.00052
C 12.32021 34.05344 -0.03682
C 14.73886 32.63448 0.01965
C 15.98595 31.9323 0.02058
C 16.01221 30.55222 -0.01957
C 14.72987 29.8271 -0.0108
C 14.73203 28.40804 -0.00368
C 15.95324 27.68856 -0.02696
C 15.98341 26.24848 -0.00114
C 14.70624 25.57296 0.00228
C 14.75296 24.16572 0.00798
C 15.99971 23.42258 0.00422
C 15.96434 21.98109 0.0351
C 14.74677 21.22455 -0.03113
C 14.72478 19.84018 0.02098
C 15.98752 19.13185 0.01848
C 14.76015 7.05681 -0.00619
C 15.95729 6.40982 -0.02162
C 16.03532 5.00376 0.00889
C 14.7135 4.32018 -0.00481
C 14.76767 2.79717 0.00979
C 15.95402 0.70952 0.03505
C 20.90062 30.53987 0.03754
C 9.84657 28.44331 -0.01634
C 11.08861 30.47432 0.00093
C 2.47254 4.28016 0.00402
C 2.44351 2.87214 0.0073
C 3.6581 2.13187 0.0174
C 3.67715 0.71133 0.03828
C 2.46608 0.03605 0.01226
C 4.90249 32.63601 -0.00279
C 6.16448 31.98957 0.01996
C 6.16934 30.55309 -0.03996
C 4.92862 29.83187 0.01465
C 4.86508 28.4611 -0.00074
C 6.1683 27.71175 -0.00518
C 6.16477 26.25034 0.0086
C 4.88627 25.5601 -0.00643
C 4.8799 24.18156 0.017
C 6.19171 23.37628 -0.03113
C 6.20359 22.02422 -0.02566
C 4.90218 21.28716 -0.00094
C 4.98011 19.8414 0.02322
C 6.16779 19.14284 -0.00725
C 6.09282 17.73984 -0.05697
C 4.89195 17.12888 0.01087
C 3.70709 4.98501 0.02374
C 4.94443 15.5972 -0.01343
C 3.67343 6.40471 0.03267
C 2.50733 8.52009 0.00643
C 3.64965 30.48855 0.0064
C 2.49996 29.77943 0.00211
C 2.38939 28.33363 -0.00449
C 3.67741 27.74046 -0.01979
C 3.63476 26.30646 0.02784
C 2.42603 25.56568 -0.01977
C 2.48854 24.16514 -0.00561
C 3.69897 23.37234 0.00208
C 3.73743 22.03024 0.01707
C 2.49369 21.37032 0.02769
C 2.48587 19.90497 -0.03291
C 3.69258 19.1536 -0.04999
C 3.65333 17.69134 0.04505
C 2.43336 17.00005 0.03284
C 2.47965 15.60298 -0.04307
C 3.68557 14.86567 0.03189
C 3.68608 13.51176 0.00031
C 2.45969 12.85494 -0.003
C 2.40623 11.38312 0.01402
C 3.72851 10.6633 0.02379
C 3.74701 9.25384 0.00907
C 2.46645 7.13944 -0.01509
C 9.80759 29.73459 0.00057
C 6.12949 14.9037 0.00988
C 4.87523 12.81342 0.01305
C 8.5488 19.14265 -0.0008
C 8.61853 17.74785 0.0288
C 7.37046 17.07921 0.00393
C 7.366 15.65799 0.00895
C 8.63022 14.87224 0.00685
C 8.58974 13.50737 0.02888
C 7.35914 12.80475 -0.00482
C 7.39422 11.3668 -0.01384
C 8.59977 10.62751 0.03693
C 8.61111 9.21885 0.01745
C 7.39388 8.55565 0.00488
C 7.34409 7.11838 -0.01004
C 8.56339 6.45974 -0.02896
C 8.64988 4.98611 -0.00131
C 7.40632 4.29862 -0.01118
C 7.36935 2.86843 -0.014
C 8.63738 2.18787 0.02147
C 8.57814 0.79661 0.00373
C 7.36099 0.0641 -0.00191
C 9.86571 32.67658 0.00438
C 11.00564 31.95166 0.01291
C 7.36958 19.90863 -0.01362
C 6.14089 13.49705 0.0276
C 7.39763 21.2746 -0.00892
C 8.57433 23.47069 0.01572
C 4.88751 11.42365 -0.00077
C 6.15958 10.67017 0.03368
C 6.10839 9.22169 -0.02929
C 4.88719 8.56013 -0.00966
C 4.90085 7.07393 -0.03337
C 6.15991 6.38396 0.01227
C 6.13542 5.03009 0.00873
C 4.90716 4.27913 -0.00049
C 4.95959 2.88842 0.00848
C 6.17964 2.10005 -0.01303
C 6.14487 0.74835 -0.01378
C 4.87885 34.0763 0.02635
C 7.39399 32.68125 0.0127
C 8.59304 31.9859 0.01396
C 8.54026 30.54526 0.01849
C 7.35309 29.83012 -0.01142
C 7.35671 28.33984 -0.00562
C 8.61906 27.71106 -0.00494
C 8.57341 26.26296 0.00054
C 7.39031 25.57974 0.03007
C 7.37839 24.10328 -0.00095
C 8.58142 22.0084 -0.04848
C 19.67497 29.83317 0.01739
C 19.71348 28.3966 0.00755
C 20.93632 27.72926 -0.0054
C 29.50219 7.08065 0.01518
C 30.73945 6.40895 0.01908
C 30.72798 4.98038 0.07705
C 29.45066 4.30378 0.0103
C 29.56301 2.84323 0.02108
C 30.76126 2.08039 0.00716
C 30.79805 0.66545 0.00307
C 29.50701 0.00117 0.00346
C 31.95848 32.67438 0.01713
C 33.21953 31.95161 -0.01694
C 33.19361 30.51832 0.01428
C 31.97383 29.79837 -0.02142
C 31.97597 28.42069 0.0544
C 33.24929 27.73925 0.00026
C 33.1994 26.20951 0.00682
C 31.99818 25.51995 -0.01779
C 31.99831 24.15792 0.03794
C 33.21035 23.45231 0.01927
C 33.2156 21.95854 0.01574
C 31.94801 21.32088 -0.02383
C 32.01784 19.85029 -0.01429
C 29.46813 8.47901 -0.00971
C 33.18404 19.2016 -0.0136
C 30.71045 9.22258 -0.03735
C 29.48827 11.38795 -0.02155
C 27.04484 34.0747 -0.00416
C 29.51554 32.60727 0.01177
C 30.7842 31.92597 0.04266
C 30.74573 30.55381 0.01324
C 29.56987 29.79608 0.0014
C 29.51896 28.31991 0.00924
C 30.77288 27.67341 0.02326
C 30.76259 26.23245 0.00261
C 29.47131 25.52718 0.03265
C 29.51993 24.08232 -0.02049
C 30.75202 23.45196 -0.01854
C 30.74095 22.04418 -0.01415
C 29.55969 21.37016 -0.03039
C 29.50713 19.87177 0.01836
C 30.77663 19.20607 0.03531
C 30.71406 17.76135 -0.00669
C 29.50318 17.03628 0.0101
C 29.51563 15.6016 0.01705
C 30.80475 14.9513 -0.0405
C 30.77265 13.49275 -0.01303
C 29.48216 12.75422 -0.01461
C 30.74439 10.66794 -0.00944
C 28.28563 0.71074 0.01699
C 33.21789 17.81307 0.00594
C 31.96674 15.53643 0.00369
C 1.18326 22.00676 0.02712
C 34.41954 21.29073 -0.02213
C 0.05644 19.88702 0.01951
C 1.19257 19.14865 -0.01678
C 1.17438 17.74792 0.01223
C 34.41596 16.98466 0.00648
C 34.39607 15.60357 0.02114
C 1.21245 14.8643 -0.02957
C 1.22829 13.5498 0.00343
C 0.01047 12.79917 -0.02656
C 34.41619 11.36289 -0.02442
C 1.21625 10.65892 -0.00027
C 1.18948 9.20063 -0.00583
C 34.37043 8.53709 -0.02302
C 34.43244 7.11789 -0.02849
C 1.2513 6.33291 0.02931
C 1.23223 4.93947 0.00628
C 34.39581 4.27256 -0.0345
C 0.01062 2.85003 -0.00931
C 1.23951 2.19437 -0.00939
C 1.22888 0.72818 -0.00468
C 1.19916 23.44059 0.00723
C 31.97989 17.081 -0.02474
C 0.00694 24.15599 0.03076
C 1.24391 26.27277 -0.00598
C 33.19396 14.8565 0.00455
C 33.20386 13.46425 -0.00644
C 31.94976 12.79609 -0.01839
C 31.95106 11.40933 0.00137
C 33.18808 10.59934 0.00199
C 33.17897 9.20702 0.04381
C 31.9213 8.51132 0.02806
C 31.96144 7.13377 0.01504
C 33.23284 6.39761 -0.00069
C 33.14259 4.92036 0.04926
C 31.94014 4.26401 -0.03838
C 31.99444 2.85711 0.00349
C 33.1888 2.0783 -0.00323
C 33.17582 0.71023 -0.00841
C 32.00225 34.0405 0.0001
C 0.01173 32.65447 -0.02927
C 1.26152 31.97304 -0.01404
C 1.21482 30.51055 0.01027
C 0.0114 29.77036 0.01831
C 34.42671 28.39023 -0.01037
C 1.1988 27.65916 -0.00439
C 0.00401 25.5806 -0.05239
C 28.33246 2.10287 0.01799
C 27.04944 2.87602 0.01259
C 26.983 4.25004 0.01495
C 23.30746 21.97698 0.00199
C 22.12399 21.23454 0.01511
C 22.10056 19.88209 -0.00478
C 23.38589 19.14764 -0.01662
C 23.38413 17.75222 -0.01185
C 22.0301 7.05481 0.01126
C 23.29837 6.32737 0.01852
C 23.36745 4.9455 -0.00381
C 22.14826 4.22937 0.03046
C 22.1819 2.79373 0.0296
C 23.40514 2.07689 0.03374
C 23.39974 0.68611 -0.02845
C 22.12415 34.07927 -0.03213
C 24.62637 32.63365 0.02239
C 25.80151 31.91803 0.01153
C 25.78429 30.53859 0.02734
C 24.62987 29.75518 -0.0055
C 24.65179 28.36691 0.01515
C 25.78837 27.6652 -0.00225
C 25.7975 26.28109 0.00071
C 24.60622 25.55792 -0.01107
C 23.37137 23.38637 0.01087
C 24.63359 24.14515 -0.01586
C 22.10909 24.13867 -0.01527
C 23.37063 26.27474 0.01277
C 20.94962 26.26731 0.00667
C 19.74059 25.56613 0.00143
C 19.70443 24.16826 -0.017
C 20.91507 23.48791 0.00364
C 20.94742 21.95278 -0.00831
C 19.67103 21.32592 -0.02957
C 19.68855 19.89184 -0.04422
C 20.88716 19.27212 0.00654
C 20.90671 6.37943 -0.00703
C 20.92486 4.98627 -0.04076
C 19.66735 4.29973 -0.00652
C 19.67474 2.82441 0.0058
C 20.93846 2.14557 -0.00865
C 20.89957 0.77006 0.00675
C 19.66748 34.05299 -0.00311
C 22.16979 32.69486 0.00742
C 23.42637 31.92431 -0.01594
C 23.41814 30.4847 0.0106
C 22.07414 29.80074 -0.01154
C 22.15046 28.42911 -0.01721
C 23.32922 27.6625 -0.02422
C 22.24067 25.58101 0.00096
C 25.79936 23.46621 -0.01971
C 25.80784 21.99716 -0.02118
C 24.58801 21.28346 0.00733
C 28.20905 26.28863 -0.00802
C 26.98826 25.59731 -0.00218
C 27.0111 24.14845 -0.01654
C 28.25074 23.41174 -0.00037
C 28.32561 21.98342 -0.0032
C 26.9691 21.25317 0.00622
C 27.04486 19.86643 -0.02815
C 28.25246 19.17441 -0.00942
C 28.24119 17.71327 0.00487
C 27.00447 17.06193 0.00826
C 27.03476 15.63758 -0.00294
C 28.27937 14.89043 0.00152
C 28.27121 13.49944 0.01257
C 27.05675 12.68728 0.02316
C 27.0812 11.34164 0.04185
C 28.28908 10.63174 0.00194
C 28.29038 9.23816 -0.00621
C 27.13377 8.595 0.02611
C 27.06234 7.11172 0.02198
C 28.25994 6.32836 0.01094
C 28.26755 4.94222 0.00235
C 28.27327 27.72455 0.00195
C 27.00598 28.42629 0.00996
C 27.06438 29.81606 0.04306
C 28.33261 30.56516 0.00367
C 24.61348 19.8707 -0.00178
C 25.79473 19.17569 0.00768
C 25.79855 17.72606 -0.0276
C 24.56729 17.07238 0.03005
C 24.57996 15.60951 -0.04078
C 25.77157 14.91197 0.02117
C 25.80572 13.48307 0.02737
C 24.63664 12.7332 -0.00498
C 24.58492 11.42063 0.00135
C 25.82657 10.63875 0.03102
C 3.6825 31.92699 -0.00039
C 25.79682 9.26106 0.02555
C 24.63429 7.12417 -0.00285
C 25.79499 6.38447 -0.009
C 25.83714 4.93094 -0.01199
C 24.5927 4.2919 -0.00229
C 24.61842 2.90623 -0.00938
C 25.8373 2.11822 -0.0264
C 25.8329 0.6856 -0.01154
C 24.66653 0.00902 0.00684
C 27.02193 32.6747 -0.01052
C 28.31331 31.95141 -0.01679
C 24.60601 8.54976 0.01423
C 2.46526 32.65072 0.02728
