425
Graphene
C 34.40208 34.07463 0.01295
C 12.29321 24.2155 0.00572
C 13.46841 23.52131 0.03592
C 13.55381 22.06268 0.00406
C 12.32645 21.31189 0.00943
C 12.22772 19.85137 0.02841
C 13.46038 19.32398 -0.01111
C 13.52652 17.78559 -0.01275
C 12.26701 17.12479 0.00985
C 12.22876 15.65812 -0.02245
C 13.47666 14.93526 -0.00428
C 12.28145 25.61315 0.0402
C 13.54543 13.53577 0.03101
C 12.36982 11.30698 -0.02689
C 13.57638 10.55453 -0.01046
C 13.56512 9.21416 -0.00891
C 12.31 8.55205 0.02819
C 12.28747 7.05333 0.00165
C 13.56003 6.34943 -0.02971
C 13.52423 4.90621 0.02894
C 12.22733 4.16901 -0.01789
C 12.28392 2.77806 0.00444
C 13.60111 2.10581 -0.00925
C 12.30832 12.85087 -0.01536
C 13.45432 26.35647 -0.02759
C 13.51303 27.7247 0.03589
C 12.33536 28.50186 -0.00033
C 11.04288 19.18815 -0.01384
C 11.04783 17.80647 0.03693
C 9.87825 17.04099 0.01745
C 9.82665 15.60931 0.00488
C 11.07119 14.91433 -0.01004
C 11.05193 13.51171 -0.02896
C 9.81933 12.76796 -0.00131
C 9.76072 11.3918 -0.01118
C 11.1518 10.63842 -0.014
C 11.06015 9.26076 0.02147
C 9.82213 8.59066 0.00373
C 9.83841 7.08405 -0.00191
C 11.02098 6.39239 0.00438
C 11.05675 4.97158 0.01291
C 9.80762 4.31532 0.00093
C 9.75404 2.92026 0.00057
C 11.02654 2.16411 -0.01634
C 10.96275 0.7655 -0.00334
C 9.7323 0.04337 0.02339
C 12.30613 32.72841 0.01641
C 13.53119 32.03621 -0.00719
C 13.51938 30.58346 0.01364
C 12.2293 29.89526 -0.01062
C 13.54385 0.69294 0.01877
C 9.8295 19.90697 -0.00482
C 12.23497 0.03557 0.01363
C 16.00471 31.92439 0.00415
C 15.95673 2.11944 0.0351
C 15.94672 0.66437 -0.03113
C 14.73811 34.00058 0.02098
C 17.25466 32.61784 0.01848
C 18.41038 31.81828 -0.00619
C 18.37781 30.41775 -0.02162
C 17.14965 29.76757 0.00889
C 17.11675 28.35396 -0.00481
C 18.43443 27.6245 0.00979
C 16.83118 25.13199 0.01443
C 14.81465 2.85693 0.00422
C 17.13247 21.35106 0.03505
C 18.26422 19.19459 -0.04147
C 18.34793 17.73426 -0.05302
C 17.1338 17.0169 0.00213
C 17.17071 15.60052 -0.00066
C 18.43489 14.91467 -0.00289
C 18.39562 13.55245 0.00028
C 17.22023 12.79928 -0.02213
C 17.23715 11.37227 0.03698
C 18.4948 10.65667 -0.00109
C 18.46063 9.20502 -0.00491
C 17.03302 19.97482 -0.02815
C 14.82127 4.36306 0.00798
C 16.0469 4.94048 0.00228
C 16.09445 6.35119 -0.00114
C 15.94388 30.53027 -0.0014
C 14.71448 29.78984 0.02162
C 14.71269 28.35977 0.0076
C 15.91114 27.66767 0.01241
C 15.97318 26.24541 -0.01454
C 14.6293 25.61963 0.01945
C 14.70221 24.20748 0.01416
C 16.05912 23.79459 0.03542
C 16.15531 22.29762 0.02299
C 14.82111 21.45326 0.00244
C 14.6896 20.00127 -0.01717
C 15.79203 19.18649 0.05265
C 15.89892 17.74677 -0.01952
C 14.73232 17.0086 -0.02813
C 14.70985 15.66751 0.00374
C 15.96442 14.91012 0.00052
C 15.94516 13.45281 -0.03682
C 14.75979 12.72444 0.01965
C 14.75835 11.35823 0.02058
C 16.00646 10.65813 -0.01957
C 16.01355 9.17144 -0.0108
C 14.82115 8.42649 -0.00368
C 14.83539 7.08817 -0.02696
C 14.73759 32.66408 -0.02162
C 9.85219 21.35574 0.02888
C 11.06652 22.05899 0.00685
C 11.08891 23.48579 0.00895
C 3.5903 2.15674 -0.00449
C 3.67544 0.72387 -0.01979
C 2.42647 34.04493 0.02784
C 4.99659 32.74517 -0.01977
C 6.18053 32.00398 -0.00561
C 6.14955 30.56734 0.00208
C 4.91928 29.88944 0.01707
C 4.92144 28.46309 0.02769
C 6.12002 27.70488 -0.03291
C 6.12586 26.24671 -0.04999
C 2.32673 2.8578 0.00211
C 4.93946 25.56549 0.04505
C 6.16531 23.46607 -0.04307
C 6.15488 22.06978 0.03189
C 4.90471 21.3712 0.00031
C 4.95777 19.89706 -0.003
C 6.15676 19.16507 0.01402
C 6.1186 17.74755 0.02379
C 4.81869 17.10709 0.00907
C 4.88025 15.69962 0.00643
C 6.12777 14.93036 -0.01509
C 6.08357 13.50328 0.03267
C 4.90626 24.17077 0.03284
C 2.35585 4.26772 0.0064
C 3.61078 5.06474 -0.00039
C 3.60839 6.46513 0.02728
C 3.70346 30.52847 -0.01471
C 2.51392 29.75071 -0.02827
C 2.46552 28.34106 0.01078
C 3.73925 27.75002 -0.00112
C 3.74239 26.28371 0.03345
C 2.48254 25.59496 0.00748
C 2.46229 24.16745 0.00662
C 3.68065 23.45206 -0.0154
C 3.73264 22.03682 -0.01299
C 2.48416 21.30019 -0.00407
C 2.51306 19.88634 0.01138
C 3.6957 19.15051 0.03278
C 3.63551 17.76702 -0.00177
C 2.45459 16.99356 0.04421
C 2.42572 15.63889 0.00088
C 3.63439 14.91747 0.00828
C 3.66512 13.50033 -0.02375
C 2.35622 12.83431 0.00558
C 2.33938 11.33494 -0.0059
C 3.5519 10.61011 -0.01386
C 3.63743 9.22628 -0.02805
C 2.38583 8.51581 0.00081
C 2.3549 7.11505 0.00245
C 4.81808 12.76671 0.02374
C 4.78989 11.37516 0.00402
C 6.10897 10.7066 0.0073
C 6.12569 9.27683 0.0174
C 8.60342 13.53048 0.01227
C 7.36794 12.76597 0.00873
C 7.38488 11.40722 -0.00049
C 8.57565 10.67904 0.00848
C 8.59972 9.28749 -0.01303
C 7.39359 8.57466 -0.01378
C 7.26762 7.22928 0.02635
C 8.53584 6.38487 0.0127
C 8.54845 4.98863 0.01396
C 7.33253 4.25871 0.01849
C 7.31707 2.85855 -0.01142
C 8.54429 2.23081 -0.00562
C 8.52981 0.86057 -0.00494
C 7.29194 0.10842 0.00054
C 9.75724 32.71788 0.03007
C 11.05301 32.06712 -0.00095
C 10.98925 30.61188 0.01572
C 9.80777 29.89271 -0.04848
C 9.78899 28.46322 -0.00892
C 11.05534 27.77943 -0.01362
C 11.07185 26.2825 -0.0008
C 9.78024 25.62082 0.0288
C 9.86433 24.17961 0.00393
C 8.61387 14.94608 -0.03337
C 17.25123 8.52426 0.03338
C 7.36922 15.63369 -0.00966
C 8.61823 17.7701 0.03368
C 4.87224 8.55153 0.03828
C 4.79665 7.22588 0.01226
C 6.10207 6.51457 -0.00279
C 6.13271 5.1276 0.01996
C 4.89016 4.42546 -0.03996
C 4.83761 2.96102 0.01465
C 6.05073 2.22415 -0.00074
C 6.08667 0.79896 -0.00518
C 4.89292 0.04032 0.0086
C 7.35898 32.78018 -0.00643
C 8.52237 31.99078 0.017
C 8.54369 30.64586 -0.03113
C 7.35446 29.90365 -0.02566
C 7.41073 28.45615 -0.00094
C 8.61044 27.78244 0.02322
C 8.56005 26.36287 -0.00725
C 7.33881 25.67703 -0.05697
C 7.38747 24.23139 0.01087
C 8.67092 23.49747 -0.01343
C 8.66879 21.95938 0.00988
C 7.3781 21.27878 0.0276
C 7.37465 19.91143 0.01305
C 8.57638 19.23965 -0.00077
C 7.335 17.09042 -0.02929
C 3.68381 31.96814 0.01218
C 17.20745 7.09569 -0.0258
C 18.46616 4.96241 -0.00316
C 29.47457 11.33587 -0.02155
C 30.75414 10.65681 -0.00944
C 30.71119 9.12506 -0.03735
C 29.51138 8.4943 -0.00971
C 29.5295 6.99468 0.01518
C 30.75144 6.27863 0.01908
C 30.7091 4.85749 0.07705
C 29.49346 4.18606 0.0103
C 29.47196 2.8061 0.02108
C 30.65103 2.06997 0.00716
C 29.44225 12.74847 -0.01461
C 30.68298 0.68791 0.00307
C 32.00069 32.57892 0.01713
C 33.19551 31.87052 -0.01694
C 33.17982 30.46104 0.01428
C 32.00241 29.72475 -0.02142
C 31.98448 28.26876 0.0544
C 33.21703 27.63593 0.00026
C 33.15457 26.26696 0.00682
C 31.87802 25.60925 -0.01779
C 31.92986 24.11154 0.03794
C 33.14994 23.41061 0.01927
C 29.45868 34.01791 0.00346
C 30.67269 13.50287 -0.01303
C 30.7201 14.956 -0.0405
C 29.53338 15.67458 0.01705
C 28.21918 6.36034 0.01094
C 28.21368 4.88293 0.00235
C 26.90849 4.22348 0.01495
C 26.94452 2.84479 0.01259
C 28.17561 2.18579 0.01799
C 28.27406 0.70628 0.01699
C 27.04617 33.99117 -0.00416
C 29.50646 32.52948 0.01177
C 30.74096 31.89006 0.04266
C 30.82016 30.43589 0.01324
C 29.45167 29.75104 0.0014
C 29.36979 28.33118 0.00924
C 30.65916 27.65889 0.02326
C 30.65032 26.24299 0.00261
C 29.37031 25.46122 0.03265
C 29.42865 24.13821 -0.02049
C 30.67746 23.40623 -0.01854
C 30.68852 21.98571 -0.01415
C 29.40753 21.2903 -0.03039
C 29.46734 19.91517 0.01836
C 30.67528 19.22973 0.03531
C 30.72786 17.76149 -0.00669
C 29.48492 17.02685 0.0101
C 33.15684 21.97479 0.01574
C 27.0744 7.13074 0.02198
C 31.85828 21.32608 -0.02383
C 33.15995 19.16537 -0.0136
C 1.2286 23.44169 0.00723
C 1.2226 21.99399 0.02712
C 34.3746 21.29374 -0.02213
C 0.00391 19.86693 0.01951
C 1.23248 19.1875 -0.01678
C 1.21416 17.76867 0.01223
C 0.00169 17.12845 0.00648
C 34.4282 15.67567 0.02114
C 1.18589 14.92931 -0.02957
C 1.10711 13.43947 0.00343
C 0.00147 24.12255 0.03076
C 34.33797 12.7687 -0.02656
C 1.11408 10.60254 -0.00027
C 1.1598 9.16947 -0.00583
C 34.37862 8.39286 -0.02302
C 34.2952 7.00655 -0.02849
C 1.15193 6.37859 0.02931
C 1.1341 4.97349 0.00628
C 34.35439 4.19606 -0.0345
C 34.34652 2.82625 -0.00931
C 1.13731 2.11832 -0.00939
C 1.14314 0.72914 -0.00468
C 34.36572 11.35491 -0.02442
C 34.38389 25.53237 -0.05239
C 1.2207 26.18646 -0.00598
C 1.22408 27.66687 -0.00439
C 33.25582 17.76746 0.00594
C 32.01367 17.07534 -0.02474
C 31.9598 15.73775 0.00369
C 33.11426 14.97309 0.00455
C 33.13253 13.53161 -0.00644
C 31.96768 12.75931 -0.01839
C 32.00636 11.36611 0.00137
C 33.18256 10.61955 0.00199
C 33.19036 9.17523 0.04381
C 31.91131 8.53189 0.02806
C 31.95857 7.05303 0.01504
C 33.12632 6.33099 -0.00069
C 33.17117 4.89799 0.04926
C 31.91885 4.18209 -0.03838
C 31.92625 2.72238 0.00349
C 33.19735 2.05887 -0.00323
C 33.21305 0.68056 -0.00841
C 31.96808 33.97767 0.0001
C 0.04197 32.61855 -0.02927
C 1.25184 31.88106 -0.01404
C 1.26957 30.49692 0.01027
C 0.02401 29.81186 0.01831
C 34.42952 28.34396 -0.01037
C 31.89378 19.89044 -0.01429
C 27.04886 8.49591 0.02611
C 28.26812 9.21281 -0.00621
C 28.25901 10.69141 0.00194
C 20.85768 2.15192 0.00742
C 20.85609 0.69778 -0.01594
C 19.6916 33.94295 0.0106
C 22.13644 32.57835 -0.01154
C 23.31994 32.00105 -0.01721
C 23.37802 30.64652 -0.02422
C 22.28714 29.65851 0.01277
C 22.9213 28.41502 0.00096
C 23.5417 19.40632 -0.01527
C 23.31632 17.93428 0.01087
C 19.68716 2.8825 -0.00311
C 22.07789 17.1058 0.00199
C 23.32231 14.97961 -0.00478
C 23.40433 13.58851 -0.01662
C 22.19277 12.82092 -0.01185
C 22.22869 11.45337 0.01126
C 23.4474 10.66011 0.01852
C 23.44356 9.27786 -0.00381
C 22.22939 8.54414 0.03046
C 22.14195 7.08981 0.0296
C 23.39997 6.37356 0.03374
C 23.37229 4.97378 -0.02845
C 22.12299 15.67396 0.01511
C 19.72531 4.26705 0.00675
C 20.96428 4.98308 -0.00865
C 20.89939 6.44938 0.0058
C 17.24305 4.23111 0.02188
C 17.23349 2.88026 -0.01979
C 18.48123 2.14881 0.02691
C 18.47929 0.69019 -0.01581
C 17.27236 34.00574 0.01452
C 19.68095 32.46582 0.04892
C 20.90861 31.78996 -0.00111
C 20.9626 30.37951 -0.03557
C 19.57697 29.69725 0.03754
C 19.48372 28.24246 0.01739
C 19.57776 19.83174 0.00755
C 20.64737 19.22531 -0.0054
C 20.84546 17.77807 0.00667
C 19.58322 17.08231 0.00143
C 19.61539 15.67458 -0.017
C 20.87259 14.99118 0.00364
C 20.90289 13.62426 -0.00831
C 19.66985 12.9474 -0.02957
C 19.68984 11.48091 -0.04422
C 20.98563 10.73801 0.00654
C 20.99511 9.33319 -0.00703
C 19.69282 8.50897 -0.04076
C 19.70718 7.10128 -0.00652
C 22.15503 4.3029 -0.03213
C 22.15675 2.78547 0.02239
C 23.34152 2.0404 0.01153
C 23.32653 0.65009 0.02734
C 25.79493 0.68545 -0.01154
C 24.59156 0.02928 0.00684
C 27.03449 32.63793 -0.01052
C 28.20742 31.95121 -0.01679
C 28.29953 30.48148 0.00367
C 27.013 29.72631 0.04306
C 26.82004 28.34822 0.00996
C 28.09976 27.58354 0.00195
C 28.15584 26.12804 -0.00802
C 26.79993 25.37199 -0.00218
C 26.79963 23.88744 -0.01654
C 28.12245 23.47206 -0.00037
C 28.20182 21.96066 -0.0032
C 26.89201 21.25771 0.00622
C 27.05458 19.84972 -0.02815
C 28.26345 19.19642 -0.00942
C 28.26055 17.74734 0.00487
C 27.04156 17.04875 0.00826
C 27.01409 15.62875 -0.00294
C 28.28854 14.97282 0.00152
C 28.24709 13.47839 0.01257
C 27.14188 12.77973 0.02316
C 27.05018 11.397 0.04185
C 25.80599 2.14762 -0.0264
C 18.43634 6.42461 -0.0331
C 24.55591 2.80992 -0.00938
C 25.70966 5.00145 -0.01199
C 22.06064 34.00125 -0.0055
C 24.51097 32.65768 0.01515
C 25.7781 31.97888 -0.00225
C 25.83432 30.47054 0.00071
C 24.50433 29.89097 -0.01107
C 24.13393 28.39204 -0.01586
C 25.42634 27.62365 -0.01971
C 25.71726 26.28803 -0.02118
C 25.59099 21.84233 0.00733
C 24.63316 20.01322 -0.00178
C 25.83918 19.24165 0.00768
C 25.83348 17.78668 -0.0276
C 24.56311 17.11206 0.03005
C 24.5442 15.72941 -0.04078
C 25.76026 15.01703 0.02117
C 25.87721 13.52902 0.02737
C 24.64177 12.83504 -0.00498
C 24.62895 11.34014 0.00135
C 25.8483 10.70025 0.03102
C 25.90095 9.32096 0.02555
C 24.64179 8.58361 0.01423
C 24.61632 7.15253 -0.00285
C 25.8249 6.42153 -0.009
C 24.59381 4.2173 -0.00229
C 2.48895 32.64971 0.02426
