413
Graphene
C 34.32405 34.04595 0.01295
C 15.95536 30.55696 -0.02245
C 14.76553 29.83611 -0.00428
C 14.78177 28.4347 0.03101
C 15.98193 27.74295 -0.01536
C 15.98246 26.24421 -0.02689
C 14.82486 25.54946 -0.01046
C 14.74685 24.14587 -0.00891
C 15.91343 23.32476 0.02819
C 15.94676 21.9983 0.00165
C 14.71204 21.2716 -0.02971
C 14.76104 19.81528 0.02894
C 16.04291 19.19379 -0.01789
C 16.0996 17.72579 0.00444
C 14.80918 17.04638 -0.00925
C 14.77797 15.53405 0.01877
C 15.92461 14.84948 0.01363
C 15.92241 13.4541 -0.02162
C 14.71462 12.74796 0.00415
C 14.72113 11.34015 -0.0014
C 15.98475 10.61495 0.02162
C 15.94376 9.12724 0.0076
C 15.916 31.99132 0.00985
C 14.76346 32.73967 -0.01275
C 12.20844 0.23391 -0.01111
C 13.38686 0.84172 0.02841
C 13.51259 30.64644 0.02147
C 12.3291 29.91572 0.00373
C 12.28232 28.48831 -0.00191
C 13.58986 27.74699 0.00438
C 13.6004 26.36054 0.01291
C 12.35612 25.6923 0.00093
C 12.25857 24.2292 0.00057
C 13.46351 23.48708 -0.01634
C 13.53574 22.01573 -0.00334
C 12.26696 21.4054 0.02339
C 14.69302 8.45081 0.01241
C 12.23389 19.90057 0.01641
C 13.50421 17.76235 0.01364
C 12.30581 17.16348 -0.01062
C 12.25183 15.61599 -0.00033
C 13.48783 14.93199 0.03589
C 13.54573 13.47144 -0.02759
C 12.25672 12.82281 0.0402
C 12.25977 11.31564 0.00572
C 13.52162 10.5908 0.03592
C 13.58066 9.19067 0.00406
C 12.27948 8.81766 0.00943
C 13.58202 19.13964 -0.00719
C 14.64659 7.06909 -0.01454
C 15.8379 6.30503 0.01945
C 16.05 4.89137 0.01416
C 18.40327 9.23804 0.00889
C 17.15905 8.50688 -0.00481
C 17.15594 7.06968 0.00979
C 18.41446 6.46413 0.01443
C 18.43264 4.97038 0.03505
C 17.33525 4.24285 -0.02815
C 17.22064 2.82508 -0.04147
C 18.42636 2.09932 -0.05302
C 18.35674 0.67288 0.00213
C 17.12717 0.01067 -0.00066
C 18.49799 10.61532 -0.02162
C 19.5962 32.6203 -0.00289
C 20.97081 30.54934 -0.02213
C 19.7478 29.85493 0.03698
C 19.64162 28.42878 -0.00109
C 20.81928 27.71641 -0.00491
C 20.81184 26.30009 0.03338
C 19.64442 25.50148 -0.0258
C 19.65129 24.08108 -0.0331
C 20.84628 23.43498 -0.00316
C 20.95665 21.98099 0.02188
C 19.70227 21.28578 -0.01979
C 20.88723 31.88896 0.00028
C 13.40682 32.11507 -0.014
C 17.23534 11.29018 -0.00619
C 18.4028 13.51348 0.02098
C 14.62922 2.71337 0.03542
C 15.95295 2.17559 0.02299
C 15.86723 0.73346 0.00244
C 14.68087 0.10183 -0.01717
C 17.1815 32.66239 0.05265
C 18.38045 31.92855 -0.01952
C 18.45256 30.54871 -0.02813
C 17.2883 29.81758 0.00374
C 17.24771 28.37193 0.00052
C 18.3967 27.63146 -0.03682
C 17.18299 12.72504 0.01848
C 18.38002 26.23088 0.01965
C 17.13522 24.01552 -0.01957
C 18.40576 23.40474 -0.0108
C 18.46829 22.01085 -0.00368
C 17.20496 21.24984 -0.02696
C 17.27422 19.83053 -0.00114
C 18.53563 19.08897 0.00228
C 18.49817 17.74324 0.00798
C 17.3022 16.99445 0.00422
C 17.2109 15.53785 0.0351
C 18.40174 14.84407 -0.03113
C 17.16603 25.46438 0.02058
C 12.2168 32.89339 -0.01118
C 9.88283 0.00565 -0.00131
C 9.76123 8.49994 -0.02896
C 4.88268 32.62324 0.03284
C 6.15041 31.89188 -0.04307
C 6.18781 30.57695 0.03189
C 4.95436 29.846 0.00031
C 4.88631 28.48001 -0.003
C 6.10972 27.77356 0.01402
C 6.12495 26.30211 0.02379
C 4.90266 25.46624 0.00907
C 4.77674 24.01281 0.00643
C 6.04342 23.41393 -0.01509
C 2.36589 34.02401 0.04505
C 4.88872 15.46924 0.03267
C 6.12163 13.51609 0.00402
C 4.98033 12.76929 0.0073
C 4.94764 11.37684 0.0174
C 6.18093 10.66239 0.03828
C 6.20784 9.2314 0.01226
C 4.89609 8.47628 -0.00279
C 4.91497 7.06941 0.01996
C 6.14061 6.4759 -0.03996
C 6.1375 5.03894 0.01465
C 4.85235 4.26969 -0.00074
C 6.19403 15.05961 0.02374
C 4.88212 2.88093 -0.00518
C 3.67889 0.69347 -0.04999
C 2.43922 2.77528 0.02769
C 3.71975 30.53103 -0.00177
C 2.50671 29.82243 0.04421
C 2.46804 28.40396 0.00088
C 3.71981 27.74576 0.00828
C 3.68543 26.292 -0.02375
C 2.444 25.63237 0.00558
C 2.40358 24.25797 -0.0059
C 3.56285 23.43258 -0.01386
C 2.27497 21.12395 -0.02805
C 2.366 16.98389 0.00081
C 3.64326 2.0905 -0.03291
C 2.46856 15.61627 0.00245
C 3.72694 13.43982 -0.00039
C 2.4653 12.79149 0.0064
C 2.4948 11.43872 0.00211
C 3.66141 10.77285 -0.00449
C 3.66587 9.24925 -0.01979
C 2.4375 8.4877 0.02784
C 2.47815 7.14049 -0.01977
C 3.69298 6.35719 -0.00561
C 3.67465 4.92849 0.00208
C 2.43263 4.26014 0.01707
C 3.66475 14.87095 0.02728
C 19.71011 19.88542 0.02691
C 6.23153 2.16767 0.0086
C 4.85388 0.06218 0.017
C 11.07591 32.06222 -0.01142
C 11.1148 30.6122 -0.00562
C 9.86148 29.87661 -0.00494
C 9.83183 28.48701 0.00054
C 11.04214 27.78745 0.03007
C 11.06609 26.35508 -0.00095
C 9.83679 25.61969 0.01572
C 9.809 24.17086 -0.04848
C 11.01078 23.56088 -0.00892
C 11.10277 22.13758 -0.01362
C 9.78312 32.691 0.01849
C 9.9596 21.44185 -0.0008
C 10.93506 19.29642 0.00393
C 11.00166 17.88524 0.00895
C 9.89215 17.08566 0.00685
C 9.78648 15.70693 0.02888
C 11.00384 14.95461 -0.00482
C 10.9919 13.57214 -0.01384
C 9.80068 12.92212 0.03693
C 9.85096 11.44076 0.01745
C 11.06035 10.67426 0.00488
C 10.95041 9.18851 -0.01004
C 9.67107 20.11924 0.0288
C 6.12676 0.7387 -0.00643
C 7.32582 0.06948 0.01396
C 8.57335 2.08397 0.02635
C 7.37011 32.69393 -0.03113
C 8.56549 32.0393 -0.02566
C 8.62545 30.60662 -0.00094
C 7.44359 29.93415 0.02322
C 7.41032 28.45367 -0.00725
C 8.602 27.69774 -0.05697
C 8.56248 26.26709 0.01087
C 7.30632 25.5708 -0.01343
C 7.32902 24.08994 0.00988
C 8.58659 23.47188 0.0276
C 8.66461 0.76965 0.0127
C 7.32606 15.77964 0.01305
C 8.57716 13.58964 0.03368
C 7.3338 12.77282 -0.02929
C 7.40632 11.4293 -0.00966
C 8.63644 10.71404 -0.03337
C 8.56043 9.25293 0.01227
C 7.36558 8.56151 0.00873
C 7.38694 7.08753 -0.00049
C 8.57735 6.30998 0.00848
C 7.37685 4.36487 -0.01303
C 7.5612 2.96984 -0.01378
C 8.56193 14.98146 -0.00077
C 3.64449 32.00296 0.03278
C 20.95156 19.2257 -0.01581
C 19.66816 17.02461 0.04892
C 30.76964 9.23163 -0.03735
C 29.48438 8.49531 -0.00971
C 29.50256 7.08223 0.01518
C 30.73735 6.38739 0.01908
C 30.71862 4.94313 0.07705
C 29.48586 4.18005 0.0103
C 29.54043 2.80033 0.02108
C 30.7239 2.1123 0.00716
C 30.70492 0.71023 0.00307
C 29.47799 34.05838 0.00346
C 31.94635 32.62548 0.01713
C 33.19005 31.93128 -0.01694
C 33.21268 30.47096 0.01428
C 31.9179 29.8258 -0.02142
C 31.88013 28.41084 0.0544
C 33.1309 27.67242 0.00026
C 33.16766 26.26541 0.00682
C 31.96659 25.53292 -0.01779
C 31.95753 24.13527 0.03794
C 33.17966 23.45614 0.01927
C 33.1739 21.97318 0.01574
C 30.76332 10.59925 -0.00944
C 29.46631 11.29136 -0.02155
C 29.4657 12.73912 -0.01461
C 30.71149 13.37501 -0.01303
C 27.09018 2.86305 0.01259
C 28.36732 2.12814 0.01799
C 28.29048 0.75846 0.01699
C 27.05196 0.11036 -0.00416
C 29.4477 32.66358 0.01177
C 30.74093 31.93485 0.04266
C 30.75701 30.59866 0.01324
C 29.5093 29.89072 0.0014
C 29.47272 28.5156 0.00924
C 30.61908 27.72991 0.02326
C 31.97555 21.18801 -0.02383
C 30.68407 26.27853 0.00261
C 29.46726 24.13595 -0.02049
C 30.73045 23.44169 -0.01854
C 30.73633 21.96101 -0.01415
C 29.51552 21.30267 -0.03039
C 29.50528 19.85453 0.01836
C 30.70244 19.15266 0.03531
C 30.73227 17.67554 -0.00669
C 29.47373 16.97656 0.0101
C 29.41852 15.5564 0.01705
C 30.70283 14.81753 -0.0405
C 29.55857 25.56207 0.03265
C 31.92166 19.78605 -0.01429
C 33.12299 19.04682 -0.0136
C 33.09995 17.67549 0.00594
C 1.24523 23.49245 0.00723
C 1.25047 22.05462 0.02712
C 34.43237 21.31259 -0.02213
C 34.29774 19.86681 0.01951
C 1.12234 19.19688 -0.01678
C 1.33177 17.78679 0.01223
C 34.41223 17.00163 0.00648
C 34.39669 15.65346 0.02114
C 1.23638 14.91409 -0.02957
C 1.23556 13.48977 0.00343
C 34.40109 24.16343 0.03076
C 34.38226 12.76497 -0.02656
C 1.28481 10.68364 -0.00027
C 1.25991 9.21046 -0.00583
C 34.42788 8.47186 -0.02302
C 34.38449 7.05825 -0.02849
C 1.15676 6.36002 0.02931
C 1.12509 4.98042 0.00628
C 34.33543 4.23777 -0.0345
C 34.40218 2.84704 -0.00931
C 1.19852 2.06557 -0.00939
C 1.09921 0.73855 -0.00468
C 0.01757 11.41085 -0.02442
C 27.02421 4.25167 0.01495
C 34.42219 25.61155 -0.05239
C 1.17688 27.74845 -0.00439
C 31.91418 16.96534 -0.02474
C 31.91192 15.48446 0.00369
C 33.15038 14.89453 0.00455
C 33.16173 13.53677 -0.00644
C 31.94956 12.76012 -0.01839
C 32.00191 11.36268 0.00137
C 33.23096 10.64982 0.00199
C 33.17322 9.20167 0.04381
C 31.98972 8.47246 0.02806
C 31.93617 7.0929 0.01504
C 1.21814 26.3875 -0.00598
C 33.20241 6.348 -0.00069
C 31.88262 4.16805 -0.03838
C 31.92704 2.811 0.00349
C 33.20737 2.08868 -0.00323
C 33.2037 0.69635 -0.00841
C 31.99377 0.01698 0.0001
C 34.38198 32.67159 -0.02927
C 1.19168 31.88693 -0.01404
C 1.19817 30.47074 0.01027
C 34.36553 29.77984 0.01831
C 0.01094 28.39614 -0.01037
C 33.12985 4.95076 0.04926
C 28.27809 4.95461 0.00235
C 28.28123 6.38356 0.01094
C 27.00658 7.03248 0.02198
C 23.37342 19.2051 -0.02422
C 23.39906 17.75484 0.01277
C 22.16115 17.02945 0.00096
C 22.12997 15.68555 -0.01527
C 23.44136 14.95664 0.01087
C 23.40503 13.46528 0.00199
C 22.12772 12.7678 0.01511
C 22.16418 11.32985 -0.00478
C 23.4226 10.60809 -0.01662
C 23.33982 9.17261 -0.01185
C 22.20492 19.87836 -0.01721
C 22.10059 8.50745 0.01126
C 23.32745 6.37907 -0.00381
C 23.32272 4.9768 0.03046
C 22.08825 4.2507 0.0296
C 22.10942 2.85906 0.03374
C 23.34934 2.1099 -0.02845
C 23.38104 0.65379 -0.03213
C 22.1136 0.02349 0.02239
C 24.56049 32.62982 0.01153
C 25.80646 31.90052 0.02734
C 25.82486 30.43951 -0.0055
C 22.10541 7.04707 0.01852
C 24.6177 29.75042 0.01515
C 22.25874 21.30017 -0.01154
C 23.34022 23.51014 -0.01594
C 19.69547 15.60871 -0.00111
C 20.89543 14.84628 -0.03557
C 20.96433 13.41475 0.03754
C 19.69337 12.7899 0.01739
C 19.70758 11.28676 0.00755
C 20.93758 10.60435 -0.0054
C 20.81697 9.24943 0.00667
C 19.69554 8.54269 0.00143
C 19.65226 7.1089 -0.017
C 20.9037 6.40299 0.00364
C 23.35663 22.06308 0.0106
C 20.87253 4.92189 -0.00831
C 19.6814 2.81738 -0.04422
C 20.92492 2.1754 0.00654
C 20.88765 0.65648 -0.00703
C 19.65829 34.00876 -0.04076
C 22.10412 32.66767 -0.00652
C 23.30099 31.89468 0.0058
C 23.34175 30.47659 -0.00865
C 23.28205 26.17463 0.00675
C 21.96121 25.55913 -0.00311
C 22.05555 24.18098 0.00742
C 19.65307 4.25585 -0.02957
C 20.95351 17.72785 0.01452
C 25.80395 27.71717 -0.00225
C 24.51041 25.64425 -0.01107
C 28.2372 30.57488 0.00367
C 27.06718 29.82285 0.04306
C 27.02546 28.35848 0.00996
C 28.30547 27.73598 0.00195
C 28.31437 26.30702 -0.00802
C 26.99063 25.55212 -0.00218
C 27.03478 24.16319 -0.01654
C 28.28234 23.46242 -0.00037
C 28.29089 22.01322 -0.0032
C 27.06438 21.24812 0.00622
C 28.26714 31.97943 -0.01679
C 27.0857 19.87747 -0.02815
C 28.32627 17.79719 0.00487
C 27.13288 17.04127 0.00826
C 27.11868 15.63518 -0.00294
C 28.27072 14.87923 0.00152
C 28.31953 13.4318 0.01257
C 27.04143 12.73756 0.02316
C 27.06854 11.33005 0.04185
C 28.25896 10.592 0.00194
C 28.22517 9.16927 -0.00621
C 27.02683 8.44865 0.02611
C 28.30995 19.24695 -0.00942
C 25.74006 26.36518 0.00071
C 27.01464 32.71125 -0.01052
C 25.82034 0.70283 -0.01154
C 24.59221 24.21793 -0.01586
C 25.80355 23.52271 -0.01971
C 25.91029 22.02475 -0.02118
C 24.68359 21.3106 0.00733
C 24.69096 19.88713 -0.00178
C 25.87952 19.155 0.00768
C 25.85903 17.72019 -0.0276
C 24.65509 17.00669 0.03005
C 24.6132 15.60816 -0.04078
C 25.8418 14.88732 0.02117
C 24.60071 34.05461 0.00684
C 25.79476 13.52213 0.02737
C 24.63931 11.32652 0.00135
C 25.79774 10.61606 0.03102
C 25.79314 9.1882 0.02555
C 24.61801 8.47971 0.01423
C 24.59233 7.08128 -0.00285
C 25.80131 6.34769 -0.009
C 25.75525 4.9463 -0.01199
C 24.54621 4.30467 -0.00229
C 24.68085 2.83567 -0.00938
C 25.83583 2.09765 -0.0264
C 24.5808 12.68156 -0.00498
C 2.38342 32.67215 0.01138
