424
Graphene
C 0.03741 34.00021 0.01295
C 12.24712 0.04504 0.00572
C 14.79524 32.69057 0.03592
C 15.99016 32.00949 0.00406
C 15.9861 30.6155 0.00943
C 14.7824 29.89866 0.02841
C 14.76861 28.4224 -0.01111
C 15.93791 27.63923 -0.01275
C 15.94597 26.1839 0.00985
C 14.72186 25.55867 -0.02245
C 14.76253 24.10988 -0.00428
C 13.45704 0.80142 0.0402
C 16.03834 23.47231 0.03101
C 14.70993 21.36574 -0.02689
C 14.75878 19.97938 -0.01046
C 16.03062 19.13403 -0.00891
C 15.96124 17.78092 0.02819
C 14.80467 16.9894 0.00165
C 14.8279 15.50622 -0.02971
C 15.9782 14.84303 0.02894
C 16.03146 13.40366 -0.01789
C 14.73924 12.68882 0.00444
C 14.78439 11.33993 -0.00925
C 15.98664 22.02382 -0.01536
C 13.44518 2.21879 -0.02759
C 12.1315 2.91159 0.03589
C 12.18488 4.33341 -0.00033
C 12.38438 28.47313 -0.01384
C 13.58978 27.75653 0.03693
C 13.54444 26.29729 0.01745
C 12.30483 25.67026 0.00488
C 12.29513 24.20753 -0.01004
C 13.54399 23.36648 -0.02896
C 13.52207 22.02092 -0.00131
C 12.29547 21.29108 -0.01118
C 12.33662 19.9666 -0.014
C 13.58779 19.14773 0.02147
C 13.62577 17.689 0.00373
C 12.3853 17.09523 -0.00191
C 12.41016 15.69103 0.00438
C 13.49654 14.82166 0.01291
C 13.37523 13.43879 0.00093
C 12.15074 12.83395 0.00057
C 12.22354 11.42973 -0.01634
C 13.49054 10.69271 -0.00334
C 13.52648 9.29014 0.02339
C 12.23051 8.66365 0.01641
C 12.29044 7.17697 -0.00719
C 13.46224 6.4336 0.01364
C 13.46146 5.09991 -0.01062
C 16.00026 10.57803 0.01877
C 12.41785 29.88891 -0.00482
C 16.00679 9.19735 0.01363
C 14.71962 7.11858 0.00415
C 17.18682 11.26847 0.0351
C 18.37454 10.64235 -0.03113
C 18.38842 9.21381 0.02098
C 17.24189 8.49047 0.01848
C 17.23951 7.06908 -0.00619
C 18.41265 6.31854 -0.02162
C 18.34101 4.91788 0.00889
C 17.15938 4.24051 -0.00481
C 17.11601 2.83436 0.00979
C 18.35706 2.16873 0.01443
C 17.20425 12.739 0.00422
C 18.42413 0.66587 0.03505
C 19.60473 32.64426 -0.04147
C 20.87434 32.01417 -0.05302
C 20.87971 30.53497 0.00213
C 19.64004 29.78185 -0.00066
C 19.65359 28.39424 -0.00289
C 20.83528 27.67318 0.00028
C 20.96455 26.25604 -0.02213
C 19.75324 25.56174 0.03698
C 19.69545 24.12452 -0.00109
C 20.9084 23.45446 -0.00491
C 17.21913 0.00163 -0.02815
C 18.45494 13.48322 0.00798
C 18.50757 14.90972 0.00228
C 17.24152 15.57744 -0.00114
C 15.93397 6.39483 -0.0014
C 15.93806 4.98601 0.02162
C 14.69083 4.31712 0.0076
C 14.6844 2.9111 0.01241
C 15.88862 2.16984 -0.01454
C 15.99963 0.7653 0.01945
C 14.73323 0.0675 0.01416
C 17.13303 32.71145 0.03542
C 18.35896 31.90157 0.02299
C 18.37937 30.47243 0.00244
C 17.15551 29.76766 -0.01717
C 17.13098 28.29368 0.05265
C 18.45978 27.69129 -0.01952
C 18.46736 26.30031 -0.02813
C 17.19359 25.56777 0.00374
C 17.26322 24.14031 0.00052
C 18.47768 23.50294 -0.03682
C 18.45143 22.04143 0.01965
C 17.22865 21.31742 0.02058
C 17.20876 19.89365 -0.01957
C 18.42784 19.21417 -0.0108
C 18.42869 17.72595 -0.00368
C 17.1937 16.96751 -0.02696
C 14.78977 8.50081 -0.02162
C 20.88588 22.04615 0.03338
C 13.6267 30.57617 0.02888
C 12.30945 32.71628 0.00895
C 4.93232 29.82577 -0.01979
C 4.90883 28.43014 0.02784
C 6.16605 27.79397 -0.01977
C 6.08977 26.3209 -0.00561
C 4.82931 25.58499 0.00208
C 4.9147 24.17313 0.01707
C 6.11183 23.38222 0.02769
C 6.1185 21.83721 -0.03291
C 4.84186 21.20836 -0.04999
C 4.98199 11.37567 0.04505
C 6.1481 30.55359 -0.00449
C 6.19965 10.87092 0.03284
C 4.90721 8.57032 0.03189
C 4.83353 7.14115 0.00031
C 6.06789 6.41287 -0.003
C 6.11892 5.03249 0.01402
C 4.90715 4.28941 0.02379
C 4.90195 2.83632 0.00907
C 6.09042 2.14449 0.00643
C 6.14965 0.73154 -0.01509
C 4.90157 0.02444 0.03267
C 7.32192 32.70808 0.02374
C 6.18862 9.27918 -0.04307
C 6.07632 31.93511 0.00211
C 4.83128 32.65402 0.0064
C 2.45688 34.06297 -0.00039
C 3.68657 30.607 -0.02827
C 2.49867 29.80299 0.01078
C 2.50024 28.36073 -0.00112
C 3.72796 27.68301 0.03345
C 3.63134 26.28512 0.00748
C 2.47646 25.49756 0.00662
C 2.50245 24.03838 -0.0154
C 3.72863 23.34899 -0.01299
C 3.74603 22.0023 -0.00407
C 2.50182 21.36917 0.01138
C 2.39572 19.9971 0.03278
C 2.39419 12.69711 -0.00177
C 2.5389 11.33944 0.04421
C 3.78736 10.68865 0.00088
C 3.6388 9.19439 0.00828
C 2.4129 8.57092 -0.02375
C 2.35549 7.04847 0.00558
C 3.56779 6.35883 -0.0059
C 3.72769 4.94152 -0.01386
C 2.40243 4.21636 -0.02805
C 2.37047 2.78878 0.00081
C 3.66471 2.114 0.00245
C 3.701 0.78336 0.02728
C 8.56079 31.98727 0.00402
C 13.57177 32.03511 0.00685
C 8.58324 30.58073 0.0073
C 7.40272 28.5006 0.03828
C 9.73626 24.17588 0.00873
C 11.03059 23.51186 -0.00049
C 11.02129 22.11497 0.00848
C 9.76937 21.39536 -0.01303
C 9.91233 20.0582 -0.01378
C 11.01273 19.09663 0.02635
C 11.24678 17.75742 0.0127
C 11.00475 15.06412 0.01396
C 10.78156 13.65992 0.01849
C 9.70132 12.83402 -0.01142
C 9.80629 25.5685 0.01227
C 9.79641 11.45406 -0.00562
C 11.02686 9.3808 0.00054
C 9.81078 8.60798 0.03007
C 9.80645 7.21309 -0.00095
C 11.02132 6.50079 0.01572
C 11.05674 5.06671 -0.04848
C 9.85346 4.32951 -0.00892
C 9.80676 2.86997 -0.01362
C 11.03064 2.12936 -0.0008
C 11.09056 0.7318 0.0288
C 9.84818 0.00402 0.00393
C 11.0321 10.73389 -0.00494
C 11.07897 26.34897 -0.03337
C 11.09308 27.77549 -0.00966
C 9.82039 28.4507 -0.02929
C 8.61448 27.70464 0.01226
C 8.5743 26.32273 -0.00279
C 7.28235 25.63023 0.01996
C 7.24168 24.16197 -0.03996
C 8.53702 23.47776 0.01465
C 8.47614 22.03001 -0.00074
C 7.3249 21.2529 -0.00518
C 7.48451 11.5189 0.0086
C 8.61489 10.69689 -0.00643
C 8.58747 9.26054 0.017
C 7.37724 8.56832 -0.03113
C 7.31077 7.1424 -0.02566
C 8.56834 6.4805 -0.00094
C 8.57529 5.03504 0.02322
C 7.3934 4.31136 -0.00725
C 7.32614 2.92291 -0.05697
C 8.55091 2.14513 0.01087
C 8.58364 0.6511 -0.01343
C 7.37611 34.03311 0.00988
C 9.79633 32.63692 0.0276
C 11.08949 31.91648 0.01305
C 11.09605 30.49364 -0.00077
C 9.86212 29.84464 0.03368
C 7.39901 29.91042 0.0174
C 19.66399 21.30638 -0.0258
C 19.69271 19.86578 -0.0331
C 20.89907 19.1843 -0.00316
C 29.56421 11.37248 -0.02155
C 30.72357 10.63849 -0.00944
C 30.73472 9.29178 -0.03735
C 29.51466 8.46063 -0.00971
C 29.49545 7.01031 0.01518
C 30.69816 6.27756 0.01908
C 30.76043 4.91783 0.07705
C 29.53005 4.21422 0.0103
C 29.47038 2.88239 0.02108
C 30.6608 2.05331 0.00716
C 29.50621 12.81845 -0.01461
C 30.75298 0.66896 0.00307
C 32.01338 32.58998 0.01713
C 33.2556 31.9111 -0.01694
C 33.27004 30.52475 0.01428
C 32.0 29.79461 -0.02142
C 31.96724 28.30848 0.0544
C 33.17603 27.62216 0.00026
C 33.23546 26.21345 0.00682
C 31.97315 25.48759 -0.01779
C 31.8463 24.09584 0.03794
C 33.14958 23.41382 0.01927
C 29.51281 34.05642 0.00346
C 30.72172 13.50486 -0.01303
C 30.73984 14.93298 -0.0405
C 29.52998 15.69118 0.01705
C 28.25555 6.42524 0.01094
C 28.29255 5.00144 0.00235
C 27.09294 4.31411 0.01495
C 27.12492 2.91725 0.01259
C 28.27687 2.11831 0.01799
C 28.2599 0.66492 0.01699
C 27.07117 0.00576 -0.00416
C 29.47257 32.67242 0.01177
C 30.81298 31.92058 0.04266
C 30.78441 30.53 0.01324
C 29.55618 29.78426 0.0014
C 29.48583 28.45769 0.00924
C 30.76261 27.67438 0.02326
C 30.75568 26.24076 0.00261
C 29.47375 25.5536 0.03265
C 29.46025 24.13993 -0.02049
C 30.66856 23.37491 -0.01854
C 30.59276 21.98401 -0.01415
C 29.41824 21.30616 -0.03039
C 29.47068 19.8879 0.01836
C 30.7235 19.18961 0.03531
C 30.78839 17.77853 -0.00669
C 29.53141 17.16239 0.0101
C 33.09801 22.01505 0.01574
C 27.03987 7.13044 0.02198
C 31.90878 21.30394 -0.02383
C 33.20013 19.21594 -0.0136
C 1.21657 23.39354 0.00723
C 1.20365 22.00304 0.02712
C 34.41812 21.30679 -0.02213
C 0.00078 19.91697 0.01951
C 1.36468 19.17121 -0.01678
C 1.08848 17.89667 0.01223
C 34.42858 17.09536 0.00648
C 34.4004 15.63624 0.02114
C 1.20825 14.96558 -0.02957
C 1.2863 13.57451 0.00343
C 0.00938 24.04066 0.03076
C 0.01115 12.78666 -0.02656
C 1.29908 10.6191 -0.00027
C 1.18166 9.13102 -0.00583
C 34.33885 8.53479 -0.02302
C 34.34029 7.10646 -0.02849
C 1.11987 6.34887 0.02931
C 1.18124 4.89854 0.00628
C 34.38622 4.16392 -0.0345
C 34.31459 2.82827 -0.00931
C 1.11858 2.11787 -0.00939
C 1.25632 0.67156 -0.00468
C 0.05121 11.38483 -0.02442
C 0.03384 25.44146 -0.05239
C 1.21667 26.19812 -0.00598
C 1.29229 27.59809 -0.00439
C 33.12777 17.79833 0.00594
C 31.99545 17.07293 -0.02474
C 31.94113 15.65524 0.00369
C 33.19822 14.91043 0.00455
C 33.21697 13.49395 -0.00644
C 31.91757 12.81178 -0.01839
C 31.95502 11.36579 0.00137
C 33.20478 10.5659 0.00199
C 33.17248 9.16606 0.04381
C 31.97274 8.42062 0.02806
C 31.89896 7.0231 0.01504
C 33.20426 6.29587 -0.00069
C 33.16453 4.88447 0.04926
C 31.93444 4.17516 -0.03838
C 31.90957 2.76717 0.00349
C 33.10674 2.07486 -0.00323
C 33.1697 0.64621 -0.00841
C 31.97796 34.04384 0.0001
C 0.01509 32.63083 -0.02927
C 1.21022 31.93911 -0.01404
C 1.27891 30.45169 0.01027
C 0.0833 29.71203 0.01831
C 0.07633 28.35606 -0.01037
C 31.9792 19.91304 -0.01429
C 27.09796 8.48898 0.02611
C 28.2959 9.1718 -0.00621
C 28.29209 10.59178 0.00194
C 23.35403 23.40809 0.00742
C 23.34411 21.95714 -0.01594
C 22.1117 21.27141 0.0106
C 22.10675 19.87088 -0.01154
C 23.31328 19.13184 -0.01721
C 23.35433 17.71725 -0.02422
C 22.15362 17.04398 0.01277
C 22.1982 15.62548 0.00096
C 23.44807 14.95638 -0.01527
C 23.37734 13.47966 0.01087
C 22.13981 24.11928 -0.00311
C 22.1347 12.81688 0.00199
C 23.38148 10.65591 -0.00478
C 23.35297 9.2398 -0.01662
C 22.07338 8.5673 -0.01185
C 22.05656 7.17219 0.01126
C 23.25238 6.45944 0.01852
C 23.38401 5.03818 -0.00381
C 22.10754 4.30643 0.03046
C 22.09362 2.8779 0.0296
C 23.41413 2.21951 0.03374
C 23.4487 0.85875 -0.02845
C 22.08367 11.33885 0.01511
C 22.17527 25.53675 0.00675
C 23.36444 26.23337 -0.00865
C 23.31357 27.64253 0.0058
C 20.88548 17.73225 0.02188
C 19.67437 17.04546 -0.01979
C 19.63984 15.57391 0.02691
C 21.05144 14.85576 -0.01581
C 20.95495 13.48373 0.01452
C 19.65297 12.79282 0.04892
C 19.66782 11.4205 -0.00111
C 20.86567 10.66708 -0.03557
C 20.87198 9.29483 0.03754
C 19.6479 8.48817 0.01739
C 19.61304 7.06971 0.00755
C 20.90566 6.38508 -0.0054
C 20.83706 4.93207 0.00667
C 19.6256 4.18663 0.00143
C 19.61891 2.81984 -0.017
C 20.89542 2.1501 0.00364
C 20.88159 0.69989 -0.00831
C 19.62974 0.00689 -0.02957
C 22.13159 32.68645 -0.04422
C 23.32216 31.96404 0.00654
C 23.3147 30.42943 -0.00703
C 22.07932 29.82964 -0.04076
C 22.03355 28.3873 -0.00652
C 22.08652 0.00647 -0.03213
C 24.5491 32.61294 0.02239
C 25.83345 31.93366 0.01153
C 25.79994 30.45149 0.02734
C 25.90083 0.70043 -0.01154
C 24.65884 34.06305 0.00684
C 26.99021 32.67069 -0.01052
C 28.24548 31.89859 -0.01679
C 28.2524 30.47148 0.00367
C 27.08035 29.76109 0.04306
C 26.98964 28.35994 0.00996
C 28.23216 27.62173 0.00195
C 28.2514 26.21645 -0.00802
C 27.11469 25.45553 -0.00218
C 26.9707 24.0705 -0.01654
C 28.19132 23.37875 -0.00037
C 28.20081 21.97402 -0.0032
C 26.95613 21.29076 0.00622
C 26.99482 19.88875 -0.02815
C 28.2288 19.18125 -0.00942
C 28.2525 17.78689 0.00487
C 27.0818 17.08738 0.00826
C 27.09725 15.72255 -0.00294
C 28.31638 14.99276 0.00152
C 28.28774 13.54631 0.01257
C 27.08666 12.76177 0.02316
C 27.14407 11.32797 0.04185
C 25.82961 2.1721 -0.0264
C 3.68039 31.92342 -0.01471
C 24.69308 2.89908 -0.00938
C 25.82872 4.98754 -0.01199
C 24.57333 29.70003 -0.0055
C 24.54976 28.30885 0.01515
C 25.81161 27.58233 -0.00225
C 25.84129 26.16939 0.00071
C 24.61162 25.48852 -0.01107
C 24.56548 24.07651 -0.01586
C 25.71604 23.37542 -0.01971
C 25.79048 21.95661 -0.02118
C 24.53728 21.29847 0.00733
C 24.604 19.86986 -0.00178
C 25.80844 19.15885 0.00768
C 25.81935 17.72079 -0.0276
C 24.59626 16.99574 0.03005
C 24.69174 15.67569 -0.04078
C 25.8982 14.92069 0.02117
C 25.86545 13.41776 0.02737
C 24.64358 12.78089 -0.00498
C 24.6122 11.35735 0.00135
C 25.84269 10.66393 0.03102
C 25.81796 9.22364 0.02555
C 24.59648 8.55044 0.01423
C 24.54574 7.1121 -0.00285
C 25.77598 6.46081 -0.009
C 24.55236 4.30687 -0.00229
C 2.46137 32.65955 0.01218
