435
Graphene
C 0.05663 34.059 0.01295
C 13.57588 14.89692 0.01641
C 13.49483 13.55309 -0.00719
C 12.29188 12.86572 0.01364
C 12.26975 11.36693 -0.01062
C 13.49209 10.66329 -0.00033
C 13.49091 9.21288 0.03589
C 12.20391 8.52395 -0.02759
C 12.28606 7.14667 0.0402
C 13.4488 6.34714 0.00572
C 13.48192 4.9274 0.03592
C 12.26398 4.261 0.00406
C 12.26944 2.76759 0.00943
C 13.5588 2.0488 0.02841
C 13.59216 0.61334 -0.01111
C 12.29368 34.05847 -0.01275
C 14.83079 32.66935 0.00985
C 16.01986 31.94109 -0.02245
C 16.00431 30.57434 -0.00428
C 14.81144 29.82563 0.03101
C 14.72935 28.39218 -0.01536
C 15.97678 27.74234 -0.02689
C 15.93355 26.2273 -0.01046
C 14.68101 25.50653 -0.00891
C 12.2142 15.76439 0.02339
C 15.92935 23.43999 0.02819
C 12.29479 17.19731 -0.00334
C 13.73994 19.26785 0.00057
C 9.81442 12.8387 -0.01362
C 9.8175 11.43617 -0.0008
C 11.05923 10.68675 0.0288
C 11.04461 9.27942 0.00393
C 9.81841 8.62436 0.00895
C 9.84915 7.10025 0.00685
C 11.13021 6.47103 0.02888
C 11.10114 4.94324 -0.00482
C 9.85243 4.30837 -0.01384
C 9.80848 2.92525 0.03693
C 11.04061 2.13537 0.01745
C 11.0744 0.67173 0.00488
C 9.842 0.09183 -0.01004
C 12.33833 32.57586 -0.02896
C 13.50525 31.91623 -0.00131
C 13.46433 30.5258 -0.01118
C 12.23395 29.81983 -0.014
C 12.22701 28.40752 0.02147
C 13.50533 27.629 0.00373
C 13.4391 26.25578 -0.00191
C 12.16807 25.60086 0.00438
C 12.27859 24.21806 0.01291
C 12.43146 20.1079 0.00093
C 13.54302 17.87028 -0.01634
C 15.74338 19.13606 0.00165
C 15.96235 17.77723 -0.02971
C 14.743 17.04885 0.02894
C 16.93574 20.01699 -0.00368
C 18.29039 19.22308 -0.02696
C 18.38279 17.70828 -0.00114
C 17.2306 17.00785 0.00228
C 17.19675 15.621 0.00798
C 18.45639 14.89298 0.00422
C 18.4297 13.49044 0.0351
C 17.20316 12.83446 -0.03113
C 17.12175 11.35912 0.02098
C 18.33691 10.62362 0.01848
C 18.3926 9.2466 -0.00619
C 17.12451 8.52171 -0.02162
C 17.1329 7.06288 0.00889
C 18.32762 6.36354 -0.00481
C 18.4152 4.98506 0.00979
C 17.20737 4.26852 0.01443
C 17.24952 2.84859 0.03505
C 18.43208 2.09106 -0.02815
C 18.41567 0.7134 -0.04147
C 17.22094 34.0119 -0.05302
C 19.65057 32.69967 0.00213
C 20.85975 31.98822 -0.00066
C 20.8414 30.54426 -0.00289
C 17.04966 21.47007 -0.0108
C 18.36999 22.04012 -0.01957
C 18.46861 23.50409 0.02058
C 17.08703 24.10139 0.01965
C 14.73144 15.63017 -0.01789
C 15.96544 14.94979 0.00444
C 16.00268 13.54304 -0.00925
C 14.73986 12.79005 0.01877
C 14.68928 11.35328 0.01363
C 15.93903 10.64702 -0.02162
C 15.9255 9.22703 0.00415
C 14.70862 8.50044 -0.0014
C 14.68452 7.10246 0.02162
C 15.91482 6.37176 0.0076
C 15.96376 4.94072 0.01241
C 11.05605 13.53321 -0.00892
C 14.82917 4.21564 -0.01454
C 16.06779 2.08829 0.01416
C 16.0532 0.60247 0.03542
C 14.77589 34.04211 0.02299
C 17.1954 32.63769 0.00244
C 18.39788 31.97034 -0.01717
C 18.44631 30.4729 0.05265
C 17.23377 29.7976 -0.01952
C 17.24908 28.36754 -0.02813
C 18.43463 27.66475 0.00374
C 18.34375 26.3099 0.00052
C 17.14324 25.61543 -0.03682
C 14.87388 2.73383 0.01945
C 19.65152 29.89893 0.00028
C 11.06706 15.01812 -0.04848
C 9.88818 17.10891 -0.00095
C 6.08281 32.00139 0.00558
C 6.13475 30.53045 -0.0059
C 4.88604 29.80511 -0.01386
C 4.94717 28.39357 -0.02805
C 6.10841 27.70253 0.00081
C 6.11711 26.24696 0.00245
C 4.93018 25.5541 0.02728
C 4.90024 24.16306 -0.00039
C 6.22315 23.41255 0.0064
C 6.08967 22.0042 0.00211
C 4.84465 21.18538 -0.00449
C 4.94747 19.8762 -0.01979
C 6.17619 19.12239 0.02784
C 6.12141 17.70413 -0.01977
C 4.9028 16.97938 -0.00561
C 4.95122 15.55316 0.00208
C 6.1599 14.94899 0.01707
C 6.07807 13.55956 0.02769
C 4.72743 12.87995 -0.03291
C 4.74046 11.56466 -0.04999
C 6.08121 10.81505 0.04505
C 6.08129 9.36819 0.03284
C 4.89238 8.63248 -0.04307
C 4.9388 32.62735 -0.02375
C 4.88461 7.19891 0.03189
C 2.43058 0.01139 0.00828
C 3.68613 2.1658 0.04421
C 3.70585 30.53758 0.00535
C 2.4302 29.79413 -0.00198
C 2.44776 28.36457 -0.00012
C 3.73864 27.71324 -0.04306
C 3.69345 26.24092 -0.03672
C 2.45082 25.51789 0.01913
C 2.51866 24.16624 0.00267
C 3.67377 23.41344 0.00787
C 3.6477 21.9538 0.02426
C 2.36832 21.28534 0.01218
C 2.42687 19.90017 -0.01471
C 3.63821 19.07246 -0.02827
C 3.65212 17.7051 0.01078
C 2.35315 16.95493 -0.00112
C 2.20845 11.31985 0.03345
C 3.53286 10.66371 0.00748
C 3.60458 9.29088 0.00662
C 2.40996 8.55598 -0.0154
C 2.49401 7.09295 -0.01299
C 3.65476 6.4404 -0.00407
C 3.69956 5.01395 0.01138
C 2.46969 4.31912 0.03278
C 2.47111 2.85772 -0.00177
C 3.65908 0.71036 0.00088
C 6.14151 6.54601 0.00031
C 6.1625 5.08657 -0.003
C 4.94427 4.3682 0.01402
C 7.38461 7.24159 0.00988
C 8.59026 6.50553 0.0276
C 8.60605 5.02679 0.01305
C 7.42146 4.32965 -0.00077
C 7.37169 2.9247 0.03368
C 8.61246 2.20845 -0.02929
C 8.65104 0.78154 -0.00966
C 7.29711 0.08701 -0.03337
C 9.77776 32.78917 0.01227
C 11.02574 31.99607 0.00873
C 10.99834 30.60709 -0.00049
C 9.81184 29.88821 0.00848
C 9.73278 28.4706 -0.01303
C 11.02536 27.72165 -0.01378
C 10.98199 26.33196 0.02635
C 9.83973 25.59369 0.0127
C 9.89987 24.0925 0.01396
C 11.16956 23.46033 0.01849
C 11.17511 21.92696 -0.01142
C 9.86545 21.28354 -0.00562
C 9.82407 19.88811 -0.00494
C 11.1626 19.2878 0.00054
C 11.0976 17.91725 0.03007
C 7.32262 8.6607 -0.01343
C 8.62764 9.34326 0.01087
C 8.64157 10.77583 -0.05697
C 7.31949 11.39425 -0.00725
C 4.86945 2.91818 0.02379
C 6.14885 2.17993 0.00907
C 6.13249 0.85657 0.00643
C 4.85318 0.04133 -0.01509
C 7.31682 32.77409 0.03267
C 8.56127 32.01987 0.02374
C 8.59637 30.6183 0.00402
C 7.37628 29.90743 0.0073
C 7.3562 28.43312 0.0174
C 8.59444 27.74346 0.03828
C 8.5746 26.30455 0.01226
C 9.84654 15.69009 0.01572
C 7.37715 25.60794 -0.00279
C 8.6436 23.43474 -0.03996
C 8.62342 21.95068 0.01465
C 7.34763 21.27382 -0.00074
C 7.40728 19.86556 -0.00518
C 8.57177 19.12945 0.0086
C 8.60908 17.72524 -0.00643
C 7.36183 17.05523 0.017
C 7.4212 15.63377 -0.03113
C 8.638 14.93189 -0.02566
C 8.52114 13.52857 -0.00094
C 7.29911 12.86097 0.02322
C 7.39594 24.10451 0.01996
C 3.69372 31.96162 0.01984
C 19.66966 28.46741 -0.02213
C 20.88605 26.33452 -0.00109
C 29.43794 16.96104 -0.0405
C 29.38868 15.5884 -0.01303
C 30.80358 14.84049 -0.01461
C 30.72038 13.42679 -0.02155
C 29.47666 12.7697 -0.00944
C 29.46183 11.22416 -0.03735
C 30.65349 10.56022 -0.00971
C 30.69135 9.14052 0.01518
C 29.46412 8.38938 0.01908
C 29.53673 7.01305 0.07705
C 30.71517 6.31763 0.0103
C 30.76176 4.85017 0.02108
C 29.49142 4.13674 0.00716
C 29.55312 2.79826 0.00307
C 30.73445 2.04364 0.00346
C 30.70638 0.68511 0.01713
C 29.50111 0.02891 -0.01694
C 31.96361 32.63264 0.01428
C 33.22071 31.95265 -0.02142
C 33.15672 30.61319 0.0544
C 31.95648 29.85825 0.00026
C 32.03259 28.49529 0.00682
C 33.18162 27.77275 -0.01779
C 30.65904 17.70382 0.01705
C 33.18738 26.32451 0.03794
C 30.69924 19.18249 0.0101
C 29.47937 21.24394 0.03531
C 27.12311 11.37772 -0.00621
C 28.27877 10.55213 0.02611
C 28.13615 9.08732 0.02198
C 26.94235 8.423 0.01094
C 27.03453 6.94291 0.00235
C 28.27616 6.29972 0.01495
C 28.26519 4.8855 0.01259
C 27.08193 4.2288 0.01799
C 27.05294 2.74079 0.01699
C 28.29099 2.1166 -0.00416
C 28.29399 0.68693 0.01177
C 26.987 34.06613 0.04266
C 29.49825 32.66779 0.01324
C 30.70166 31.95819 0.0014
C 30.73485 30.53207 0.00924
C 29.48339 29.89771 0.02326
C 29.5292 28.50944 0.00261
C 30.69008 27.7541 0.03265
C 30.74303 26.35999 -0.02049
C 29.49058 25.65281 -0.01854
C 29.49205 24.14664 -0.01415
C 30.67841 23.42638 -0.03039
C 30.70457 22.00966 0.01836
C 29.44092 19.84871 -0.00669
C 31.98108 25.62676 0.01927
C 31.93745 24.17689 0.01574
C 33.14076 23.46026 -0.02383
C 1.16714 26.23974 0.03076
C 34.35117 25.54839 0.00723
C 34.36386 24.16919 0.02712
C 1.15607 23.43906 -0.02213
C 1.11076 22.05472 0.01951
C 34.41353 21.3097 -0.01678
C 34.37934 19.94606 0.01223
C 1.1931 19.10752 0.00648
C 1.18126 17.7507 0.02114
C 34.31623 17.02124 -0.02957
C 34.38956 15.65318 0.00343
C 34.41864 12.6935 -0.02656
C 34.32449 11.23642 -0.02442
C 1.10111 10.51277 -0.00027
C 1.16509 9.10681 -0.00583
C 34.35767 8.34645 -0.02302
C 34.41385 7.04508 -0.02849
C 1.26046 6.38574 0.02931
C 1.22726 4.97345 0.00628
C 0.04159 4.20999 -0.0345
C 0.03286 2.78311 -0.00931
C 1.27497 2.08397 -0.00939
C 1.23894 0.74288 -0.00468
C 1.16339 27.67651 -0.05239
C 34.41395 28.45555 -0.00598
C 34.42128 29.88244 -0.00439
C 1.20407 30.51471 -0.01037
C 33.23016 22.07769 -0.01429
C 31.98611 21.33141 -0.0136
C 31.93712 19.84049 0.00594
C 33.1129 19.16246 -0.02474
C 33.11556 17.66877 0.00369
C 31.89902 16.9519 0.00455
C 31.91436 15.58012 -0.00644
C 33.16118 14.79408 -0.01839
C 33.2115 13.41273 0.00137
C 31.95377 12.69724 0.00199
C 31.92072 11.24606 0.04381
C 27.04256 12.75721 0.00194
C 33.15323 10.60448 0.02806
C 31.94474 8.4421 -0.00069
C 31.96512 6.91926 0.04926
C 33.19729 6.28867 -0.03838
C 33.20152 4.89301 0.00349
C 32.00074 4.17326 -0.00323
C 31.97108 2.73732 -0.00841
C 33.18211 2.10373 0.0001
C 33.23201 0.71045 -0.02927
C 31.99366 34.04717 -0.01404
C 0.04067 32.58934 0.01027
C 1.25781 31.89266 0.01831
C 33.15668 9.16295 0.01504
C 20.87368 27.73692 0.03698
C 28.22931 13.46171 0.04185
C 27.04068 15.6147 0.01257
C 23.39223 30.58473 -0.00652
C 22.07255 29.91465 0.0058
C 22.13429 28.3435 -0.00865
C 23.33939 27.69844 0.00675
C 23.38344 26.2937 -0.00311
C 22.10585 25.58598 0.00742
C 22.1197 24.14317 -0.01594
C 23.36735 23.49053 0.0106
C 23.32348 22.11003 -0.01154
C 22.12765 21.33348 -0.01721
C 22.08724 19.90688 -0.02422
C 23.28814 19.282 0.01277
C 23.31454 17.73556 0.00096
C 22.10699 17.08128 -0.01527
C 22.09774 15.64274 0.01087
C 23.37437 14.91808 0.00199
C 23.36365 13.47258 0.01511
C 22.18368 12.82581 -0.00478
C 22.10026 11.3408 -0.01662
C 23.40346 10.60316 -0.01185
C 23.33471 9.20828 0.01126
C 22.08635 8.58089 0.01852
C 22.0851 7.13484 -0.00381
C 23.36315 31.98204 -0.04076
C 23.27799 6.3729 0.03046
C 22.13644 32.6133 -0.00703
C 20.86884 0.79634 -0.04422
C 19.61923 25.63838 -0.00491
C 19.55189 24.22969 0.03338
C 20.88427 23.52703 -0.0258
C 20.89121 22.10187 -0.0331
C 19.61285 21.28682 -0.00316
C 19.50865 19.86695 0.02188
C 20.82119 19.12234 -0.01979
C 20.90534 17.73263 0.02691
C 19.65345 17.09181 -0.01581
C 19.61419 15.61726 0.01452
C 20.84179 14.89198 0.04892
C 20.92944 13.44606 -0.00111
C 19.71981 12.67515 -0.03557
C 19.67445 11.31918 0.03754
C 20.87051 10.71205 0.01739
C 20.83885 9.24267 0.00755
C 19.6553 8.55228 -0.0054
C 19.597 7.14307 0.00667
C 20.80711 6.4715 0.00143
C 20.80859 5.01504 -0.017
C 19.65763 4.2833 0.00364
C 19.65219 2.88893 -0.00831
C 20.88689 2.24529 -0.02957
C 19.64452 34.07529 0.00654
C 23.27356 4.99556 0.0296
C 22.06687 4.29903 0.03374
C 22.10039 2.88331 -0.02845
C 25.8084 6.38946 -0.00229
C 25.77826 4.98343 -0.00938
C 24.54843 4.2639 -0.0264
C 24.5517 2.81219 -0.01154
C 25.81973 2.08715 0.00684
C 25.75583 0.72492 -0.01052
C 24.49849 0.10447 -0.01679
C 26.99015 32.66251 0.00367
C 28.24537 31.94524 0.04306
C 28.26356 30.55589 0.00996
C 27.04482 29.83194 0.00195
C 27.0909 28.3409 -0.00802
C 28.29272 27.72759 -0.00218
C 28.30624 26.3427 -0.01654
C 27.02492 25.54922 -0.00037
C 27.03077 24.10077 -0.0032
C 28.27077 23.43457 0.00622
C 28.2347 22.00746 -0.02815
C 27.03668 21.30101 -0.00942
C 27.01441 19.94081 0.00487
C 28.24922 19.15547 0.00826
C 28.24089 17.72638 -0.00294
C 27.03137 17.02927 0.00152
C 24.55278 7.02824 -0.01199
C 24.55397 8.44593 -0.009
C 25.79651 9.23563 -0.00285
C 25.83665 10.61147 0.01423
C 23.28306 2.13672 -0.03213
C 23.23923 0.75106 0.02239
C 22.06185 0.03127 0.01153
C 24.57798 32.67767 0.02734
C 25.78721 31.95684 -0.0055
C 25.79844 30.53928 0.01515
C 24.54434 29.82447 -0.00225
C 24.56563 28.43436 0.00071
C 25.86196 27.72014 -0.01107
C 25.85564 26.29029 -0.01586
C 24.61864 25.60643 -0.01971
C 28.1649 14.89812 0.02316
C 24.58441 24.16825 -0.02118
C 25.80401 22.02845 -0.00178
C 24.54734 21.3517 0.00768
C 24.59279 19.95531 -0.0276
C 25.8667 19.19301 0.03005
C 25.84565 17.77816 -0.04078
C 24.56761 17.03995 0.02117
C 24.56725 15.634 0.02737
C 25.75982 14.90414 -0.00498
C 25.76638 13.4745 0.00135
C 24.58632 12.76519 0.03102
C 24.55652 11.26757 0.02555
C 25.8066 23.43132 0.00733
C 2.39431 32.62156 0.01073
