349
Graphene
C 0.0163 0.04642 0.01295
C 12.32632 32.626 0.00422
C 13.4684 31.97486 0.0351
C 13.51025 30.56925 -0.03113
C 13.55446 19.06708 0.02098
C 13.57817 17.84953 0.01848
C 12.3694 17.06687 -0.00619
C 12.25148 15.60239 -0.02162
C 13.45066 14.80989 0.00889
C 13.45491 13.46144 -0.00481
C 12.29076 12.74923 0.00979
C 12.37936 11.3711 0.01443
C 13.52937 10.60364 0.03505
C 13.60362 9.22569 -0.02815
C 12.34773 8.51978 -0.04147
C 12.26622 7.19541 -0.05302
C 13.51426 6.35625 0.00213
C 13.53077 4.89615 -0.00066
C 9.78633 34.02816 0.00798
C 11.11306 0.63169 0.00228
C 11.02357 2.0943 -0.00114
C 9.80263 2.85974 -0.02696
C 11.02798 30.43077 -0.01454
C 9.85664 29.94001 0.01945
C 9.77362 19.9537 0.01416
C 11.0163 19.23826 0.03542
C 11.12187 17.79496 0.02299
C 9.88101 17.06803 0.00244
C 9.86759 15.63101 -0.01717
C 11.05672 14.90441 0.05265
C 12.31906 4.22984 -0.00289
C 11.08188 13.50942 -0.01952
C 9.84163 11.44068 0.00374
C 11.03999 10.67236 0.00052
C 11.06326 9.30291 -0.03682
C 9.87079 8.45731 0.01965
C 9.85603 7.07326 0.02058
C 11.1016 6.41934 -0.01957
C 11.15357 4.96245 -0.0108
C 9.83456 4.19724 -0.00368
C 9.83142 12.81141 -0.02813
C 12.32093 2.79573 0.00028
C 13.48275 2.10215 -0.02213
C 13.54366 0.68686 0.03698
C 17.32106 4.27762 -0.00831
C 17.22145 2.87527 -0.02957
C 18.46033 2.17168 -0.04422
C 18.39599 0.81126 0.00654
C 17.1959 0.01024 -0.00703
C 19.68225 32.60038 -0.04076
C 20.91977 31.90872 -0.00652
C 20.9161 30.56996 0.0058
C 18.47877 4.93541 0.00364
C 19.64482 29.84188 -0.00865
C 20.90489 27.71457 -0.00311
C 20.92034 26.24604 0.00742
C 19.77141 25.5394 -0.01594
C 19.69633 24.14087 0.0106
C 20.91194 23.43989 -0.01154
C 20.90542 21.96635 -0.01721
C 19.63436 21.29974 -0.02422
C 19.60806 7.07854 0.01277
C 19.63493 28.37357 0.00675
C 11.08862 31.87757 0.01241
C 18.46824 6.38241 -0.017
C 18.47542 22.03324 0.00667
C 12.25721 34.0585 -0.00109
C 14.70276 32.67217 -0.00491
C 15.89875 31.98218 0.03338
C 16.00984 30.55437 -0.0258
C 14.72329 8.50041 -0.0331
C 14.77776 7.07372 -0.00316
C 16.0135 6.39989 0.02188
C 16.03269 4.99679 -0.01979
C 17.21428 7.11404 0.00143
C 14.81766 4.28457 0.02691
C 15.99409 2.13864 0.01452
C 15.99555 0.65707 0.04892
C 14.73039 34.04514 -0.00111
C 17.20053 32.63944 -0.03557
C 18.49355 31.9667 0.03754
C 18.40681 30.51523 0.01739
C 17.13129 29.8522 0.00755
C 18.42017 27.71295 -0.0054
C 14.76414 2.83599 -0.01581
C 9.76624 32.63155 0.0076
C 7.37288 0.03783 0.02162
C 8.65157 0.6939 -0.0014
C 2.42052 7.06448 -0.00892
C 3.66794 6.34389 -0.01362
C 3.64338 4.95623 -0.0008
C 2.47049 4.23868 0.0288
C 2.43235 2.8275 0.00393
C 3.71862 2.12532 0.00895
C 3.72675 0.74558 0.00685
C 2.43665 0.06278 0.02888
C 2.46777 8.46752 -0.04848
C 4.88595 32.67878 -0.00482
C 6.13623 30.51445 0.03693
C 4.91836 29.85093 0.01745
C 4.90384 28.34214 0.00488
C 4.84033 25.59938 -0.01004
C 4.89875 24.20717 -0.02896
C 6.0976 23.42601 -0.00131
C 6.15307 22.03729 -0.01118
C 4.91878 21.36088 -0.014
C 6.1585 31.90202 -0.01384
C 4.91768 19.93595 0.02147
C 3.70256 9.24146 0.01572
C 2.4824 11.35467 0.03007
C 3.62467 30.60731 0.03368
C 2.48791 29.84375 -0.02929
C 2.44181 28.37667 -0.00966
C 3.65808 27.68737 -0.03337
C 3.65242 26.31512 0.01227
C 2.51092 25.50578 0.00873
C 2.52879 24.16988 -0.00049
C 3.66433 23.4103 0.00848
C 3.78039 10.62671 -0.00095
C 3.69373 22.00771 -0.01303
C 2.39411 19.86894 0.02635
C 3.66563 19.27448 0.0127
C 3.70248 17.77202 0.01396
C 2.50193 17.03138 0.01849
C 2.45073 15.64407 -0.01142
C 3.73456 14.88471 -0.00562
C 3.66493 13.43949 -0.00494
C 2.50284 12.74426 0.00054
C 2.36314 21.26771 -0.01378
C 20.85424 6.49007 0.00096
C 6.11072 19.23083 0.00373
C 4.90275 17.05257 0.00438
C 7.40481 19.92184 -0.02245
C 8.60454 19.10717 -0.00428
C 8.65722 17.75371 0.03101
C 7.39792 17.08832 -0.01536
C 7.37981 15.65807 -0.02689
C 8.61209 14.91922 -0.01046
C 8.57523 13.43986 -0.00891
C 7.37167 12.75521 0.02819
C 7.45357 21.32322 0.00985
C 7.3854 11.33333 0.00165
C 8.61942 9.2638 0.02894
C 7.3896 8.5975 -0.01789
C 7.35029 7.12833 0.00444
C 8.65828 6.37581 -0.00925
C 8.67967 4.9652 0.01877
C 7.41406 4.29857 0.01363
C 7.34678 2.73463 -0.02162
C 8.58884 2.09751 0.00415
C 8.57536 10.67817 -0.02971
C 6.10266 17.71054 -0.00191
C 8.61598 22.02699 -0.01275
C 8.56022 30.52444 0.02841
C 4.90019 15.64148 0.01291
C 6.18484 14.85755 0.00093
C 6.14206 13.51521 0.00057
C 4.91587 12.81177 -0.01634
C 4.96938 11.39696 -0.00334
C 6.14623 10.65687 0.02339
C 6.17008 9.2596 0.01641
C 4.95868 8.57345 -0.00719
C 7.35552 29.82958 -0.01111
C 4.87603 7.16418 0.01364
C 6.19927 4.97211 -0.00033
C 4.92146 4.31867 0.03589
C 4.91627 2.8833 -0.02759
C 6.16483 2.17666 0.0402
C 6.09816 0.80259 0.00572
C 4.88902 0.05275 0.03592
C 7.37391 32.6799 0.00406
C 8.52444 31.95789 0.00943
C 6.14661 6.45188 -0.01062
C 3.69009 31.96982 -0.00077
C 20.91691 4.94288 -0.01527
C 19.65073 2.86663 0.00199
C 33.18192 30.5855 0.01428
C 31.99146 29.82303 -0.02142
C 31.91936 28.39314 0.0544
C 33.15257 27.73344 0.00026
C 33.1913 26.25238 0.00682
C 31.98855 25.54558 -0.01779
C 31.92958 24.1918 0.03794
C 33.17307 23.45172 0.01927
C 33.2616 22.06443 0.01574
C 32.01025 21.26561 -0.02383
C 31.96133 19.90504 -0.01429
C 33.1515 19.16297 -0.0136
C 33.21206 17.74709 0.00594
C 31.96349 17.07029 -0.02474
C 31.90729 15.61716 0.00369
C 33.14703 14.88654 0.00455
C 33.17637 13.41839 -0.00644
C 33.20724 32.01214 -0.01694
C 31.92459 32.64695 0.01713
C 29.52057 0.02539 0.00346
C 30.74742 0.66984 0.00307
C 29.50003 19.87442 0.01836
C 30.73363 19.19145 0.03531
C 30.77613 17.74546 -0.00669
C 29.54346 17.09335 0.0101
C 29.49725 15.61093 0.01705
C 30.73831 14.90978 -0.0405
C 30.72602 13.49835 -0.01303
C 29.43739 12.842 -0.01461
C 32.00739 12.76088 -0.01839
C 29.54317 11.31044 -0.02155
C 30.79391 9.18542 -0.03735
C 29.49389 8.55287 -0.00971
C 29.51748 7.13043 0.01518
C 30.76132 6.40475 0.01908
C 30.73422 4.9667 0.07705
C 29.50834 4.24262 0.0103
C 29.49885 2.85473 0.02108
C 30.78919 2.17083 0.00716
C 30.75485 10.57529 -0.00944
C 32.00103 11.31267 0.00137
C 33.20936 10.66752 0.00199
C 33.18315 9.26962 0.04381
C 1.23177 19.11486 -0.01678
C 1.17968 17.75518 0.01223
C 0.03931 16.97394 0.00648
C 34.37903 15.55441 0.02114
C 1.19586 14.93359 -0.02957
C 1.20538 13.46472 0.00343
C 34.3973 12.79986 -0.02656
C 34.41016 11.37004 -0.02442
C 0.00816 19.82286 0.01951
C 1.25501 10.65234 -0.00027
C 34.42033 8.56451 -0.02302
C 0.05754 7.08569 -0.02849
C 1.21624 6.29908 0.02931
C 1.24012 4.94338 0.00628
C 0.04446 4.21788 -0.0345
C 34.40571 2.80798 -0.00931
C 1.25514 2.11407 -0.00939
C 1.24131 0.73038 -0.00468
C 1.20739 9.24387 -0.00583
C 29.55815 21.37991 -0.03039
C 34.42323 21.29967 -0.02213
C 1.27227 23.50929 0.00723
C 31.93395 8.55284 0.02806
C 31.97676 7.11596 0.01504
C 33.19792 6.3933 -0.00069
C 33.26209 5.01166 0.04926
C 32.01277 4.27074 -0.03838
C 31.9521 2.80658 0.00349
C 33.19031 2.14925 -0.00323
C 33.20061 0.71101 -0.00841
C 1.25023 22.09719 0.02712
C 31.92454 33.99018 0.0001
C 1.18629 31.935 -0.01404
C 1.22736 30.52404 0.01027
C 0.06254 29.82502 0.01831
C 34.36818 28.36846 -0.01037
C 1.16802 27.6908 -0.00439
C 1.22603 26.22005 -0.00598
C 34.39533 25.56575 -0.05239
C 34.41756 24.09721 0.03076
C 34.42923 32.73203 -0.02927
C 30.77886 22.07166 -0.01415
C 30.7544 23.44424 -0.01854
C 29.50674 24.09689 -0.02049
C 22.08108 34.04187 -0.02118
C 24.53056 32.65697 0.00733
C 25.81748 31.95998 -0.00178
C 25.85282 30.48371 0.00768
C 24.59592 29.81645 -0.0276
C 24.55185 28.44952 0.03005
C 25.81257 27.73311 -0.04078
C 25.81186 26.33982 0.02117
C 23.338 0.72058 -0.01971
C 24.5681 25.5733 0.02737
C 25.84419 23.48486 0.00135
C 25.85612 22.00882 0.03102
C 24.61099 21.28007 0.02555
C 24.62957 19.80994 0.01423
C 25.76439 19.17615 -0.00285
C 25.81384 9.23611 -0.009
C 24.59154 7.17269 -0.01199
C 25.81028 6.35352 -0.00229
C 24.61136 24.13979 -0.00498
C 25.77359 4.96416 -0.00938
C 23.36879 2.15947 -0.01586
C 22.16104 4.26846 0.00071
C 20.82669 2.06266 0.01511
C 20.85675 0.69028 -0.00478
C 19.67419 0.00738 -0.01662
C 22.13318 32.60306 -0.01185
C 23.32884 31.95095 0.01126
C 23.39279 30.48223 0.01852
C 22.15217 29.79862 -0.00381
C 22.17072 28.39886 0.03046
C 22.09647 2.81686 -0.01107
C 23.38849 27.6288 0.0296
C 22.11639 25.52074 -0.02845
C 22.10104 24.12812 -0.03213
C 23.38826 23.45251 0.02239
C 23.40919 21.98047 0.01153
C 22.10638 21.35381 0.02734
C 22.03425 7.07034 -0.0055
C 23.28037 6.40978 0.01515
C 23.36516 4.90346 -0.00225
C 23.32176 26.2672 0.03374
C 19.73019 4.24 0.01087
C 24.62673 4.26482 -0.0264
C 25.73791 2.13553 0.00684
C 28.22662 9.17259 -0.00621
C 27.04272 8.51008 0.02611
C 27.06921 7.06887 0.02198
C 28.33223 6.33668 0.01094
C 28.32637 4.91448 0.00235
C 27.08925 4.25015 0.01495
C 27.03622 2.84024 0.01259
C 28.30771 2.06938 0.01799
C 28.24109 10.62781 0.00194
C 28.267 0.7253 0.01699
C 29.57772 32.60309 0.01177
C 30.81629 31.88327 0.04266
C 30.72344 30.4727 0.01324
C 29.4947 29.8044 0.0014
C 29.5381 28.39891 0.00924
C 30.75019 27.65134 0.02326
C 30.77526 26.2613 0.00261
C 29.47785 25.52705 0.03265
C 27.0509 0.02114 -0.00416
C 24.63351 2.8501 -0.01154
C 27.14326 11.37312 0.04185
C 28.32212 14.91737 0.01257
C 25.82758 0.73492 -0.01052
C 24.63406 34.00263 -0.01679
C 27.0327 32.6704 0.00367
C 28.30553 31.97774 0.04306
C 28.25277 30.59873 0.00996
C 27.02186 29.82569 0.00195
C 27.05266 28.43393 -0.00802
C 28.25654 27.73982 -0.00218
C 28.2464 13.50224 0.02316
C 28.33339 26.30844 -0.01654
C 27.05264 24.22079 -0.0032
C 28.27243 23.37814 0.00622
C 28.32118 22.05249 -0.02815
C 27.10018 21.29165 -0.00942
C 27.08389 19.83413 0.00487
C 28.2137 19.14046 0.00826
C 28.28256 17.76099 -0.00294
C 27.04654 16.9927 0.00152
C 27.20205 25.62271 -0.00037
C 2.41795 32.7043 0.01305
