311
Graphene
C 0.0137 0.0212 0.01295
C 20.9103 22.01442 -0.00316
C 19.64715 21.33944 0.02188
C 19.69897 19.89551 -0.01979
C 20.92965 19.18444 0.02691
C 20.94498 17.78121 -0.01581
C 19.69351 17.05667 0.01452
C 19.65081 15.58036 0.04892
C 20.90569 14.90921 -0.00111
C 20.87503 13.40432 -0.03557
C 19.69166 12.76737 0.03754
C 19.72332 11.36461 0.01739
C 20.91252 10.61676 0.00755
C 20.94426 9.20881 -0.0054
C 19.6971 8.51134 0.00667
C 19.66822 7.13622 0.00143
C 20.90569 23.39707 -0.0331
C 19.68373 24.09445 -0.0258
C 19.62039 25.5311 0.03338
C 20.93651 26.19432 -0.00491
C 18.4071 9.23868 -0.02162
C 17.18908 8.55472 0.00889
C 17.19187 7.0809 -0.00481
C 18.40778 6.41399 0.00979
C 18.41002 5.02294 0.01443
C 17.21942 4.26339 0.03505
C 17.23092 2.84619 -0.02815
C 20.92237 6.39687 -0.017
C 18.4755 2.15698 -0.04147
C 17.20083 34.07674 0.00213
C 19.67141 32.63997 -0.00066
C 20.92454 31.96743 -0.00289
C 20.95463 30.58184 0.00028
C 19.68496 29.82402 -0.02213
C 19.66403 28.45115 0.03698
C 20.91502 27.60414 -0.00109
C 18.44999 0.72669 -0.05302
C 18.47432 10.67534 -0.00619
C 20.96694 4.99853 0.00364
C 19.66644 2.8206 -0.02957
C 23.3502 14.92029 0.01511
C 23.37802 13.46317 -0.00478
C 22.0803 12.76661 -0.01662
C 22.13858 11.34129 -0.01185
C 23.44667 10.62823 0.01126
C 23.35538 9.21776 0.01852
C 22.15886 8.50956 -0.00381
C 22.11449 7.13964 0.03046
C 23.3655 6.40372 0.0296
C 23.34605 4.91323 0.03374
C 22.13991 4.22609 -0.02845
C 22.13672 2.85727 -0.03213
C 23.37092 2.16291 0.02239
C 23.36731 0.71772 0.01153
C 22.0893 34.072 0.02734
C 22.15393 15.58798 0.00199
C 22.18185 17.05317 0.01087
C 23.35713 17.73296 -0.01527
C 23.34644 19.1475 0.00096
C 20.90797 2.14015 -0.04422
C 20.92372 0.70797 0.00654
C 19.62496 34.05355 -0.00703
C 22.14313 32.6418 -0.04076
C 23.41106 31.93456 -0.00652
C 23.382 30.50558 0.0058
C 22.12222 29.83533 -0.00865
C 19.67026 4.26653 -0.00831
C 22.12841 28.40722 0.00675
C 23.3334 26.29309 0.00742
C 22.1512 25.53714 -0.01594
C 22.1371 24.12769 0.0106
C 23.37797 23.42283 -0.01154
C 23.35942 22.00936 -0.01721
C 22.11398 21.31298 -0.02422
C 22.1401 19.88882 0.01277
C 23.38179 27.70211 -0.00311
C 24.58983 32.6592 -0.0055
C 17.22305 11.31253 0.01848
C 18.41831 13.44903 -0.03113
C 8.59159 0.69808 0.00572
C 7.3791 0.04767 0.03592
C 9.80878 32.66226 0.00406
C 11.03886 31.94687 0.00943
C 9.80072 2.8696 0.02841
C 11.05507 2.127 -0.01111
C 11.03831 0.7469 -0.01275
C 9.84235 0.0231 0.00985
C 12.31685 32.66085 -0.02245
C 13.49241 31.95727 -0.00428
C 13.53803 30.4916 0.03101
C 12.26688 15.57739 -0.01536
C 13.5123 14.90233 -0.02689
C 12.2989 2.84938 -0.01046
C 13.57817 2.1128 -0.00891
C 8.64529 2.16139 0.0402
C 7.35731 2.8563 -0.02759
C 8.60899 31.92937 0.03589
C 7.35292 32.6627 -0.00033
C 3.68282 30.50472 -0.01118
C 2.4605 29.86104 -0.014
C 2.45474 16.97627 0.02147
C 2.44599 15.67 0.00373
C 3.67175 5.01204 -0.00191
C 2.4794 4.25562 0.00438
C 2.43857 2.85576 0.01291
C 13.54353 0.73592 0.02819
C 3.72708 2.10485 0.00093
C 2.4703 0.0407 -0.01634
C 4.95628 32.68332 -0.00334
C 6.15912 31.98102 0.02339
C 4.88516 2.90271 0.01641
C 6.19146 2.16718 -0.00719
C 6.13541 0.71343 0.01364
C 4.92229 0.03988 -0.01062
C 3.67206 0.7267 0.00057
C 17.23096 12.73381 0.02098
C 12.3354 0.03323 0.00165
C 15.96796 31.9384 0.02894
C 18.48109 30.49972 -0.02813
C 17.22973 29.8038 0.00374
C 17.15157 28.37249 0.00052
C 18.45557 27.76555 -0.03682
C 18.4509 26.27726 0.01965
C 17.25162 25.5121 0.02058
C 18.42272 23.45335 -0.01957
C 18.47035 22.01398 -0.0108
C 17.21423 21.2741 -0.00368
C 17.24511 19.84492 -0.02696
C 18.40031 19.13339 -0.00114
C 18.4343 17.81213 0.00228
C 17.19249 17.05691 0.00798
C 17.17448 15.65589 0.00422
C 18.47337 14.91187 0.0351
C 18.43026 31.87526 -0.01952
C 17.25784 32.64903 0.05265
C 14.78332 0.0307 -0.01717
C 15.99766 0.72222 0.00244
C 15.96854 30.54492 -0.01789
C 14.71071 29.78876 0.00444
C 15.96649 27.6804 -0.00925
C 16.0186 19.16925 0.01877
C 15.99841 17.73411 0.01363
C 14.76838 17.02921 -0.02162
C 14.73003 15.66633 0.00415
C 14.73495 32.67955 -0.02971
C 16.03362 14.90409 -0.0014
C 16.0317 10.59999 0.0076
C 16.00066 9.28025 0.01241
C 15.97904 6.29783 -0.01454
C 15.96048 4.96863 0.01945
C 14.71635 4.29565 0.01416
C 14.71736 2.80913 0.03542
C 16.03097 2.12303 0.02299
C 15.99429 13.5223 0.02162
C 3.68674 31.99314 -0.00131
C 25.84198 31.92405 0.01515
C 24.56452 29.86819 0.00071
C 33.2191 26.27439 0.01927
C 32.00508 25.55705 0.01574
C 31.9969 24.13982 -0.02383
C 33.21752 23.43519 -0.01429
C 33.23124 22.0359 -0.0136
C 31.94822 21.31012 0.00594
C 31.95618 19.91669 -0.02474
C 33.2501 19.13439 0.00369
C 33.22716 17.75674 0.00455
C 31.99734 17.04617 -0.00644
C 31.97876 15.65488 -0.01839
C 33.1665 14.93137 0.00137
C 33.17058 13.50275 0.00199
C 31.96069 12.79531 0.04381
C 31.94162 11.34676 0.02806
C 33.21414 27.72779 0.03794
C 31.97876 28.37587 -0.01779
C 31.97213 29.80453 0.00682
C 33.19205 30.56687 0.00026
C 30.73586 13.49718 -0.00944
C 29.52394 12.82262 -0.03735
C 29.46336 11.35601 -0.00971
C 30.72521 10.67132 0.01518
C 30.75175 9.23033 0.01908
C 29.5378 8.51682 0.07705
C 29.46154 7.11805 0.0103
C 33.16437 10.67865 0.01504
C 30.78139 6.44302 0.02108
C 29.53124 4.21175 0.00307
C 29.50807 2.82853 0.00346
C 30.68802 2.11673 0.01713
C 30.75899 0.70672 -0.01694
C 29.51124 0.0179 0.01428
C 31.9321 32.64271 -0.02142
C 33.19497 31.94964 0.0544
C 30.72811 4.91602 0.00716
C 30.76702 14.94322 -0.02155
C 33.16455 9.23693 -0.00069
C 31.98463 7.12658 -0.03838
C 34.41806 15.59102 0.02114
C 1.22968 14.8951 -0.02957
C 1.22016 13.51938 0.00343
C 0.02924 12.75373 -0.02656
C 34.42943 11.40387 -0.02442
C 1.20244 10.65404 -0.00027
C 1.22393 9.2449 -0.00583
C 34.41562 8.52328 -0.02302
C 34.39644 7.13625 -0.02849
C 1.2341 6.35992 0.02931
C 1.22987 4.92953 0.00628
C 0.035 4.20809 -0.0345
C 0.00305 2.84339 -0.00931
C 1.25169 2.1583 -0.00939
C 1.26534 0.71197 -0.00468
C 34.42832 17.00055 0.00648
C 1.22337 17.7383 0.01223
C 1.23022 19.20004 -0.01678
C 0.03198 19.91806 0.01951
C 33.21145 6.3716 0.00349
C 33.22009 4.9342 -0.00323
C 31.97973 4.24629 -0.00841
C 31.97036 2.86425 0.0001
C 33.20097 2.09673 -0.02927
C 33.17466 0.7345 -0.01404
C 32.00959 34.04191 0.01027
C 31.94731 8.49577 0.04926
C 34.40137 32.67001 0.01831
C 1.2135 30.48055 -0.00439
C 34.41789 29.84634 -0.00598
C 34.42833 28.43088 -0.05239
C 1.21989 27.66381 0.03076
C 0.01914 25.55778 0.00723
C 34.40802 24.19796 0.02712
C 0.02255 21.29035 -0.02213
C 1.23196 31.92953 -0.01037
C 25.81839 30.54212 -0.00225
C 29.52927 15.61693 -0.01461
C 30.75955 17.75247 -0.0405
C 24.57767 7.10589 -0.00229
C 25.84626 6.41714 -0.00938
C 25.80536 4.98911 -0.0264
C 24.63646 4.3176 -0.01154
C 24.57635 2.84699 0.00684
C 25.83918 2.12684 -0.01052
C 25.83395 0.71269 -0.01679
C 24.58649 0.01738 0.00367
C 27.07408 32.66969 0.04306
C 28.30182 31.97942 0.00996
C 28.30671 30.52911 0.00195
C 27.04209 29.80783 -0.00802
C 27.0596 28.4455 -0.00218
C 28.28079 27.70595 -0.01654
C 28.30317 26.29568 -0.00037
C 24.58594 8.44746 -0.01199
C 25.8041 9.21385 -0.009
C 25.82908 10.63212 -0.00285
C 24.64062 11.36549 0.01423
C 24.55491 28.36311 -0.01107
C 25.79956 27.69225 -0.01586
C 25.81621 26.26006 -0.01971
C 24.55992 25.55309 -0.02118
C 24.56667 24.11512 0.00733
C 25.81938 23.43679 -0.00178
C 25.80187 22.03556 0.00768
C 27.07821 25.57258 -0.0032
C 24.59321 21.31998 -0.0276
C 25.76314 19.13546 -0.04078
C 25.77322 17.77133 0.02117
C 24.61204 17.06582 0.02737
C 24.65167 15.62301 -0.00498
C 25.83143 14.92132 0.00135
C 25.80454 13.50417 0.03102
C 24.58119 12.77184 0.02555
C 24.57949 19.92916 0.03005
C 29.50345 17.05147 -0.01303
C 27.02407 24.13267 0.00622
C 28.28782 22.02215 -0.00942
C 27.06351 0.00239 0.01324
C 29.52827 32.6526 0.0014
C 30.73043 31.91192 0.00924
C 30.75266 30.49873 0.02326
C 29.48199 29.81964 0.00261
C 29.49855 28.42352 0.03265
C 30.74597 27.60558 -0.02049
C 30.75159 26.25834 -0.01854
C 29.47381 25.57555 -0.01415
C 29.54844 24.17156 -0.03039
C 30.7783 23.41184 0.01836
C 30.6922 21.96248 0.03531
C 29.50537 21.27707 -0.00669
C 29.51082 19.87889 0.0101
C 30.74044 19.13052 0.01705
C 28.28939 0.70411 0.04266
C 28.27178 2.10095 0.01177
C 27.06376 2.82492 -0.00416
C 27.06723 4.26168 0.01699
C 27.02795 21.27694 0.00487
C 27.0478 19.83871 0.00826
C 28.26158 19.17239 -0.00294
C 28.26304 17.73036 0.00152
C 27.06943 17.04923 0.01257
C 27.06927 15.5852 0.02316
C 28.28602 14.92051 0.04185
C 28.24204 23.40753 -0.02815
C 28.24967 13.47933 0.00194
C 27.06828 11.33348 0.02611
C 28.25688 10.65448 0.02198
C 28.33131 9.2112 0.01094
C 27.08335 8.51654 0.00235
C 26.98627 7.10285 0.01495
C 28.24683 6.36591 0.01259
C 28.29903 4.95217 0.01799
C 27.05444 12.78071 -0.00621
C 2.47161 32.66661 -0.02896
