267
Graphene
C 34.30814 0.06103 0.01295
C 23.35046 14.83354 -0.01662
C 22.17292 15.56455 -0.00478
C 22.16337 16.93471 0.01511
C 23.31298 17.71788 0.00199
C 23.19259 19.18764 0.01087
C 21.86719 19.82866 -0.01527
C 22.08189 21.20548 0.00096
C 23.27923 21.9923 0.01277
C 23.29721 23.36638 -0.02422
C 23.35499 26.29919 -0.01721
C 23.40611 27.47208 -0.01154
C 23.27976 30.49715 0.0106
C 23.26318 31.86404 -0.01594
C 22.04763 32.61495 0.00742
C 19.65788 33.93536 -0.00311
C 20.88888 0.73983 0.00675
C 20.91004 2.22185 -0.00865
C 19.67662 2.89774 0.0058
C 19.51614 4.37163 -0.00652
C 20.77603 5.00857 -0.04076
C 20.88431 6.41344 -0.00703
C 19.60296 7.10528 0.00654
C 19.65476 8.5006 -0.04422
C 20.83241 9.20343 -0.02957
C 20.84533 10.62535 -0.00831
C 19.5562 11.41017 0.00364
C 19.5357 12.7559 -0.017
C 20.82225 13.51774 0.00143
C 20.84652 14.92607 0.00667
C 23.31521 13.45619 -0.01185
C 22.11919 12.78475 0.01126
C 22.06626 11.33154 0.01852
C 23.33371 10.68582 -0.00381
C 24.59483 12.82863 -0.00285
C 25.84266 13.5588 0.01423
C 25.82356 14.97001 0.02555
C 24.53566 15.59743 0.03102
C 24.61088 17.06995 0.00135
C 25.82518 17.7939 -0.00498
C 25.75555 19.19115 0.02737
C 24.40852 19.83978 0.02117
C 24.53109 21.20132 -0.04078
C 25.77193 21.87031 0.03005
C 25.76628 23.27324 -0.0276
C 24.55455 24.04623 0.00768
C 24.54156 25.36006 -0.00178
C 25.77156 26.25559 0.00733
C 19.55461 15.84065 -0.0054
C 25.78359 27.62949 -0.02118
C 24.54687 29.76122 -0.01586
C 25.75202 30.47483 -0.01107
C 25.83546 31.91201 0.00071
C 24.54851 32.59721 -0.00225
C 22.06997 0.01994 0.01515
C 23.34716 0.63964 -0.0055
C 23.25917 2.10291 0.02734
C 22.10177 2.80361 0.01153
C 22.0417 4.2626 0.02239
C 23.26772 4.96843 -0.03213
C 23.30718 6.40882 -0.02845
C 22.12162 7.08204 0.03374
C 22.07176 8.55578 0.0296
C 23.25612 9.31962 0.03046
C 24.50686 28.44665 -0.01971
C 24.57927 11.43128 -0.009
C 19.66569 17.17409 0.00755
C 20.74617 19.11935 0.03754
C 6.94589 32.68895 0.00422
C 4.7563 33.9659 0.00798
C 5.82271 0.76396 0.00228
C 5.10593 2.19066 -0.00114
C 6.27041 23.56034 -0.02696
C 5.01925 24.05531 -0.00368
C 4.91529 25.53064 -0.0108
C 6.10512 26.32795 -0.01957
C 5.99088 27.68537 0.02058
C 4.72714 28.3752 0.01965
C 4.81426 29.82764 -0.03682
C 5.98002 30.44877 0.00052
C 5.89681 31.88177 0.00374
C 4.67135 32.56503 -0.02813
C 2.35365 0.05661 -0.01952
C 3.63276 0.63194 0.05265
C 3.90532 2.12948 -0.01717
C 2.6692 2.9202 0.00244
C 2.47952 4.22612 0.02299
C 2.42862 21.22509 0.03542
C 3.41807 21.91013 0.01416
C 3.73583 23.43786 0.01945
C 2.45901 24.09277 -0.01454
C 2.46996 25.55742 0.01241
C 3.66505 26.23604 0.0076
C 3.52295 27.66573 0.02162
C 2.35126 28.40403 -0.0014
C 2.31601 29.78448 0.00415
C 3.53556 30.49812 -0.02162
C 8.23272 31.98024 0.0351
C 8.57539 30.48621 -0.03113
C 7.37343 29.66614 0.02098
C 7.11991 28.43007 0.01848
C 20.79941 31.92387 -0.03557
C 19.7357 32.5187 -0.00111
C 17.23473 0.04627 0.04892
C 18.54381 0.56602 0.01452
C 18.543 2.07584 -0.01581
C 17.30031 2.78001 0.02691
C 17.14455 4.23368 -0.01979
C 18.26415 4.99397 0.02188
C 18.31444 6.50229 -0.00316
C 17.36125 7.4494 -0.0331
C 18.43767 9.18124 -0.0258
C 18.41245 10.38334 0.03338
C 18.51974 13.7767 -0.00491
C 18.46765 14.93247 -0.00109
C 21.02116 17.61212 0.01739
C 19.24877 18.78245 0.03698
C 16.00995 0.54654 0.00028
C 16.06568 2.02266 -0.00289
C 15.06424 3.36641 -0.00066
C 15.86845 4.63792 0.00213
C 12.26941 1.01933 -0.05302
C 13.70765 1.23348 -0.04147
C 14.17893 2.43553 -0.02815
C 9.78216 0.101 0.03505
C 11.09966 0.73191 0.01443
C 9.26924 32.86423 0.00979
C 7.13418 0.11669 -0.00481
C 8.38056 0.57208 0.00889
C 7.29751 24.47888 -0.02162
C 7.39621 25.8129 -0.00619
C 14.61177 0.20314 -0.02213
C 3.4779 31.97514 0.01363
C 25.76749 10.70857 -0.01199
C 24.54934 8.57817 -0.00938
C 31.99157 8.64169 0.00349
C 33.21882 9.3614 -0.03838
C 33.19756 10.72533 0.04926
C 31.99698 11.45905 -0.00069
C 32.04862 12.9097 0.01504
C 33.28757 13.65491 0.02806
C 33.33205 15.11006 0.04381
C 32.03099 15.71671 0.00199
C 31.99935 17.0652 0.00137
C 33.26836 17.7191 -0.01839
C 33.19985 19.15114 -0.00644
C 31.97195 19.83667 0.00455
C 31.97468 21.35724 0.00369
C 33.23276 21.99803 -0.02474
C 33.19413 23.44078 0.00594
C 31.99068 24.12668 -0.0136
C 31.96326 25.58575 -0.01429
C 33.19031 26.30747 -0.02383
C 33.16145 27.66929 0.01574
C 31.92729 28.38251 0.01927
C 31.94296 29.81476 0.03794
C 33.13325 30.52948 -0.01779
C 33.07328 31.94877 0.00682
C 31.89662 32.73309 0.00026
C 29.46369 0.07521 0.0544
C 30.71973 0.79579 -0.02142
C 30.77181 2.19868 0.01428
C 29.48557 2.851 -0.01694
C 29.51805 4.29932 0.01713
C 31.98429 7.16847 -0.00323
C 33.27386 6.52421 -0.00841
C 33.29981 5.10723 0.0001
C 32.00718 4.33555 -0.02927
C 1.12392 0.79183 -0.00468
C 1.23447 2.20087 -0.00939
C 0.0219 2.94611 -0.00931
C 0.12806 4.38632 -0.0345
C 1.4711 5.18448 0.00628
C 1.18611 6.55512 0.02931
C 0.057 7.34996 -0.02849
C 0.01898 8.74649 -0.02302
C 34.41361 11.56444 -0.00583
C 34.31004 12.74698 -0.00027
C 0.04785 15.96866 -0.02442
C 0.15847 17.20175 -0.02656
C 1.18706 19.20339 0.00343
C 34.38272 19.85965 -0.02957
C 30.77219 4.99776 0.00346
C 0.0269 21.29224 0.02114
C 1.25449 23.3758 0.01223
C 0.01193 24.07895 -0.01678
C 34.4177 25.51571 0.01951
C 1.21065 26.23255 -0.02213
C 1.16179 27.69225 0.02712
C 34.38443 28.35676 0.00723
C 34.36196 29.76279 0.03076
C 1.17278 30.55563 -0.05239
C 1.04447 32.0105 -0.00598
C 34.25084 32.73315 -0.00439
C 31.91839 0.10825 -0.01037
C 33.1453 0.83366 0.01831
C 33.24143 2.23452 0.01027
C 32.04733 2.93599 -0.01404
C 1.24374 21.92476 0.00648
C 25.74856 9.34771 -0.00229
C 30.72252 6.4251 0.00307
C 29.45543 8.60602 0.02108
C 27.04126 11.4248 0.01094
C 27.04773 12.83218 0.02198
C 28.24965 13.52042 0.02611
C 28.2697 14.92885 -0.00621
C 27.04794 15.67558 0.00194
C 27.08876 17.04485 0.04185
C 28.26752 17.68576 0.02316
C 28.20192 19.14923 0.01257
C 26.97044 19.84492 0.00152
C 27.00243 21.27734 -0.00294
C 28.3028 21.95432 0.00826
C 28.29257 23.38544 0.00487
C 27.03152 24.02309 -0.00942
C 27.06971 25.4877 -0.02815
C 28.28456 26.18545 0.00622
C 28.23568 27.59225 -0.0032
C 27.0338 28.39633 -0.00037
C 27.04063 29.81236 -0.01654
C 28.23837 30.60231 -0.00218
C 28.2559 31.9564 -0.00802
C 26.98806 32.7116 0.00195
C 24.58965 34.07052 0.00996
C 25.79481 0.71198 0.04306
C 25.73872 2.14068 0.00367
C 24.56375 2.84104 -0.01679
C 24.53304 4.26421 -0.01052
C 25.75613 4.99339 0.00684
C 25.76959 6.38757 -0.01154
C 24.51274 7.12722 -0.0264
C 28.25496 10.66827 0.00235
C 28.22417 9.30143 0.01495
C 27.00056 8.52986 0.01259
C 26.9872 7.07875 0.01799
C 30.69491 9.25582 0.0103
C 30.77984 10.72749 0.07705
C 29.48887 11.41094 0.01908
C 29.53842 12.81426 0.01518
C 30.75332 13.49823 -0.00971
C 30.81227 14.95501 -0.03735
C 29.52495 15.58632 -0.00944
C 29.55936 17.03445 -0.02155
C 30.74456 17.77434 -0.01461
C 30.71663 19.20188 -0.01303
C 29.5225 19.91104 -0.0405
C 29.52092 21.29143 0.01705
C 30.66028 22.05445 0.0101
C 30.77314 23.4632 -0.00669
C 29.47741 7.17708 0.00716
C 29.50929 24.12068 0.03531
C 30.71685 26.23787 -0.03039
C 30.6617 27.70863 -0.01415
C 29.43859 28.42553 -0.01854
C 29.53978 29.81605 -0.02049
C 30.77901 30.55857 0.03265
C 30.67157 31.95879 0.00261
C 29.47613 32.69704 0.02326
C 27.00506 0.02425 0.00924
C 28.14804 0.75971 0.0014
C 28.18674 2.17423 0.01324
C 26.99201 2.86672 0.04266
C 26.96629 4.33105 0.01177
C 28.2939 5.03286 -0.00416
C 28.27437 6.47991 0.01699
C 29.47547 25.50333 0.01836
C 2.25914 32.73604 0.01877
