384
Graphene
C 34.30715 34.04911 0.01295
C 11.00942 5.09187 0.02162
C 9.8047 4.41063 0.0076
C 9.80799 2.90462 0.01241
C 11.05262 2.14943 -0.01454
C 11.01505 0.71958 0.01945
C 9.76071 0.06404 0.01416
C 12.30364 32.69587 0.03542
C 13.48402 31.91205 0.02299
C 13.518 30.46732 0.00244
C 11.01858 6.49072 -0.0014
C 12.26856 29.75382 -0.01717
C 13.54868 27.6071 -0.01952
C 13.52658 26.12916 -0.02813
C 12.28729 25.48862 0.00374
C 12.29023 24.10203 0.00052
C 13.52688 23.3637 -0.03682
C 13.58979 21.99148 0.01965
C 12.31426 21.33832 0.02058
C 12.27463 19.84692 -0.01957
C 13.46501 19.15987 -0.0108
C 12.28191 28.40858 0.05265
C 13.43926 17.72901 -0.00368
C 9.79194 7.14725 0.00415
C 11.08521 9.27094 0.01363
C 11.09772 30.54871 0.00943
C 9.77558 29.87404 0.02841
C 9.79809 28.51013 -0.01111
C 11.00203 27.74569 -0.01275
C 11.08627 26.27615 0.00985
C 9.86248 25.6005 -0.02245
C 9.89137 24.14049 -0.00428
C 11.0498 23.42066 0.03101
C 11.05941 22.00869 -0.01536
C 9.82458 8.59157 -0.02162
C 9.80585 21.36875 -0.02689
C 11.07133 19.12909 -0.00891
C 11.06945 17.64657 0.02819
C 9.81248 16.95635 0.00165
C 9.84555 15.55388 -0.02971
C 11.10516 14.89685 0.02894
C 11.11251 13.50505 -0.01789
C 9.85053 12.84945 0.00444
C 9.83355 11.43237 -0.00925
C 11.08452 10.67472 0.01877
C 9.88775 19.90234 -0.01046
C 11.03146 31.92059 0.00406
C 12.3304 16.93476 -0.02696
C 13.55915 14.83788 0.00228
C 16.03759 21.91558 0.03338
C 14.79412 21.25474 -0.0258
C 14.61597 19.88167 -0.0331
C 15.93377 19.02673 -0.00316
C 16.00019 17.62806 0.02188
C 14.74276 17.06039 -0.01979
C 14.79084 15.56565 0.02691
C 15.93605 14.85551 -0.01581
C 14.98171 13.04262 0.01452
C 15.99712 23.31722 -0.00491
C 14.92508 11.56362 0.04892
C 15.98503 9.18861 -0.03557
C 14.67402 8.44264 0.03754
C 14.62327 7.11008 0.01739
C 15.87743 6.42938 0.00755
C 15.97108 5.03763 -0.0054
C 14.78905 4.26629 0.00667
C 14.83803 2.84733 0.00143
C 15.98635 2.01726 -0.017
C 15.98236 0.5866 0.00364
C 15.85162 10.41577 -0.00111
C 12.32745 15.55414 -0.00114
C 14.77267 24.13078 -0.00109
C 15.94208 26.11466 -0.02213
C 13.6323 13.47599 0.00798
C 12.38033 12.74042 0.00422
C 12.32794 11.37707 0.0351
C 13.61258 10.7685 -0.03113
C 13.65387 9.31824 0.02098
C 12.39105 8.65618 0.01848
C 12.27529 7.2274 -0.00619
C 13.41598 6.37735 -0.02162
C 13.50308 5.01233 0.00889
C 14.71512 25.4741 0.03698
C 12.24999 4.33107 -0.00481
C 13.50827 2.19021 0.01443
C 13.53079 0.78079 0.03505
C 12.24304 0.09609 -0.02815
C 14.80632 32.64938 -0.04147
C 15.99738 31.87741 -0.05302
C 15.91418 30.52466 0.00213
C 14.72593 29.76531 -0.00066
C 14.74574 28.32431 -0.00289
C 15.95513 27.55011 0.00028
C 12.26384 2.92495 0.00979
C 14.75096 34.07668 -0.00831
C 9.84203 32.76808 0.03592
C 8.55827 0.76518 0.0402
C 3.61721 5.02627 -0.02566
C 2.38762 4.30545 -0.00094
C 2.35566 2.91548 0.02322
C 3.59228 2.27868 -0.00725
C 3.64173 0.84104 -0.05697
C 2.41931 0.09718 0.01087
C 4.86518 32.76781 -0.01343
C 6.13536 32.06059 0.00988
C 6.12356 30.6149 0.0276
C 3.64171 6.42693 -0.03113
C 4.86105 29.92447 0.01305
C 6.14876 27.76791 0.03368
C 6.14254 26.37006 -0.02929
C 4.89531 25.60719 -0.00966
C 4.87761 24.12283 -0.03337
C 6.18161 23.51145 0.01227
C 6.17627 22.03783 0.00873
C 5.00196 21.41568 -0.00049
C 4.98673 19.93541 0.00848
C 6.13961 19.13632 -0.01303
C 4.83922 28.46136 -0.00077
C 6.13517 17.75796 -0.01378
C 2.39335 7.08997 0.017
C 3.57221 9.25715 0.0086
C 3.61061 30.61898 0.00031
C 2.40945 29.87687 -0.003
C 2.37254 28.46115 0.01402
C 3.60341 27.73672 0.02379
C 3.60057 26.33117 0.00907
C 2.46318 25.58706 0.00643
C 2.44435 24.175 -0.01509
C 3.63157 23.42776 0.03267
C 3.71409 22.01747 0.02374
C 2.3871 8.56626 -0.00643
C 2.47803 21.36132 0.00402
C 3.72184 19.22343 0.0174
C 3.73437 17.7991 0.03828
C 2.50878 17.07768 0.01226
C 2.48283 15.66027 -0.00279
C 3.67619 14.95179 0.01996
C 3.64175 13.51169 -0.03996
C 2.36253 12.8357 0.01465
C 2.45709 11.44248 -0.00074
C 3.60827 10.65862 -0.00518
C 2.46594 19.9673 0.0073
C 7.35335 0.11263 0.00572
C 4.92627 17.03691 0.02635
C 6.16601 14.92701 0.01396
C 8.53765 22.04414 -0.00131
C 7.39109 21.30854 -0.01118
C 7.36666 19.86791 -0.014
C 8.62146 19.27249 0.02147
C 8.62435 17.82429 0.00373
C 7.36842 17.03231 -0.00191
C 7.39733 15.6319 0.00438
C 8.63838 14.84315 0.01291
C 8.57334 13.46693 0.00093
C 8.56548 23.52335 -0.02896
C 7.34192 12.84349 0.00057
C 8.55737 10.70871 -0.00334
C 8.61152 9.30242 0.02339
C 7.32939 8.62234 0.01641
C 7.24992 7.21752 -0.00719
C 8.52608 6.47114 0.01364
C 8.56128 5.04608 -0.01062
C 7.34465 4.3647 -0.00033
C 7.33282 2.96768 0.03589
C 8.57267 2.22254 -0.02759
C 7.33006 11.36447 -0.01634
C 4.92715 15.62876 0.0127
C 7.4183 24.26758 -0.01004
C 8.5854 26.35608 0.01745
C 6.09843 13.46022 0.01849
C 4.82144 12.77034 -0.01142
C 4.87511 11.36558 -0.00562
C 6.04493 10.73809 -0.00494
C 6.03997 9.29821 0.00054
C 4.80381 8.55656 0.03007
C 4.84307 7.1642 -0.00095
C 6.09076 6.46106 0.01572
C 6.11336 5.04558 -0.04848
C 7.36778 25.63793 0.00488
C 4.80888 4.35898 -0.00892
C 6.11451 2.23183 -0.0008
C 6.1443 0.85224 0.0288
C 4.8889 0.13141 0.00393
C 7.34943 32.79688 0.00895
C 8.58547 32.07278 0.00685
C 8.54418 30.65258 0.02888
C 7.30055 29.9459 -0.00482
C 7.37055 28.56819 -0.01384
C 8.57167 27.77826 0.03693
C 4.86675 2.91726 -0.01362
C 17.14892 32.60468 -0.02957
C 18.37519 31.90556 -0.04422
C 18.38804 30.39792 0.00654
C 29.45589 4.2627 0.0103
C 29.37633 2.78794 0.02108
C 30.64217 2.11993 0.00716
C 30.70227 0.69049 0.00307
C 29.41847 0.03731 0.00346
C 31.93538 32.74095 0.01713
C 33.08638 31.95109 -0.01694
C 33.15653 30.57905 0.01428
C 31.95502 29.80559 -0.02142
C 30.57685 4.99526 0.07705
C 32.00478 28.36845 0.0544
C 33.25406 26.29021 0.00682
C 31.94469 25.65114 -0.01779
C 31.9266 24.06545 0.03794
C 33.0944 23.36292 0.01927
C 33.15141 21.98042 0.01574
C 31.90476 21.2268 -0.02383
C 31.86135 19.84202 -0.01429
C 33.13108 19.16805 -0.0136
C 33.21629 17.78003 0.00594
C 33.21314 27.68505 0.00026
C 31.93132 17.06601 -0.02474
C 30.60447 6.35259 0.01908
C 29.54814 8.47541 -0.00971
C 29.45103 32.69518 0.0014
C 30.7031 32.06379 0.00924
C 30.67336 30.60381 0.02326
C 29.50655 29.87767 0.00261
C 29.5049 28.44 0.03265
C 30.7803 27.77822 -0.02049
C 30.6994 26.27724 -0.01854
C 29.49153 25.55688 -0.01415
C 29.49399 24.10145 -0.03039
C 29.27198 7.10498 0.01518
C 30.70848 23.3146 0.01836
C 29.37846 21.22105 -0.00669
C 29.18252 19.84136 0.0101
C 30.55362 19.22343 0.01705
C 30.66118 17.78289 -0.0405
C 29.46451 17.14227 -0.01303
C 30.87407 14.85141 -0.01461
C 30.78368 13.50746 -0.02155
C 30.71066 10.75943 -0.00944
C 30.59929 9.25171 -0.03735
C 30.72526 21.85202 0.03531
C 26.98512 0.00294 0.01324
C 32.02286 15.65466 0.00369
C 33.24851 13.55164 -0.00644
C 0.02547 21.3032 -0.02213
C 0.00889 19.87381 0.01951
C 1.24975 19.15023 -0.01678
C 1.29481 17.75007 0.01223
C 34.42761 17.07914 0.00648
C 0.05204 15.64056 0.02114
C 1.23581 14.96214 -0.02957
C 1.15798 13.53154 0.00343
C 34.42055 12.83744 -0.02656
C 1.26809 22.04806 0.02712
C 0.00772 11.34231 -0.02442
C 1.15862 9.2742 -0.00583
C 34.33342 8.54258 -0.02302
C 34.28574 7.09935 -0.02849
C 1.12992 6.42477 0.02931
C 1.14908 5.02975 0.00628
C 34.34728 4.34276 -0.0345
C 34.33699 2.93803 -0.00931
C 1.07372 2.17748 -0.00939
C 1.08321 0.73687 -0.00468
C 1.2381 10.65797 -0.00027
C 33.28131 14.92013 0.00455
C 1.20734 23.47526 0.00723
C 34.37944 25.48884 -0.05239
C 32.02606 12.74401 -0.01839
C 31.96605 11.33249 0.00137
C 33.1959 10.66008 0.00199
C 33.11544 9.28417 0.04381
C 31.88108 8.58069 0.02806
C 31.88409 7.10331 0.01504
C 33.03911 6.38589 -0.00069
C 33.0379 4.98472 0.04926
C 31.79652 4.32905 -0.03838
C 34.34113 24.09583 0.03076
C 31.86333 2.87458 0.00349
C 33.14396 0.79492 -0.00841
C 31.94537 0.0274 0.0001
C 34.31934 32.65216 -0.02927
C 1.17647 32.04777 -0.01404
C 1.15158 30.58438 0.01027
C 34.37089 29.86709 0.01831
C 34.3511 28.4208 -0.01037
C 1.14932 27.79693 -0.00439
C 1.12047 26.28515 -0.00598
C 33.14839 2.203 -0.00323
C 28.17714 0.74799 0.04266
C 28.21032 2.08502 0.01177
C 26.99359 2.81797 -0.00416
C 20.87939 27.67195 -0.00381
C 20.93459 26.22733 0.03046
C 19.74634 25.44791 0.0296
C 19.71897 24.00385 0.03374
C 21.03154 23.39377 -0.02845
C 21.05404 21.9395 -0.03213
C 19.74837 21.14098 0.02239
C 19.66381 19.78219 0.01153
C 20.85952 5.02758 0.02734
C 19.69066 28.36832 0.01852
C 19.67251 4.22786 -0.0055
C 20.83569 2.02586 -0.00225
C 20.8011 0.62111 0.00071
C 19.58123 34.04078 -0.01107
C 22.03012 32.51173 -0.01586
C 23.36582 31.83995 -0.01971
C 23.4091 30.48935 -0.02118
C 22.09614 29.76338 0.00733
C 22.08737 28.41163 -0.00178
C 23.4426 27.66511 0.00768
C 19.65212 2.79063 0.01515
C 23.34062 26.20703 -0.0276
C 19.63854 29.72303 0.01126
C 20.78985 31.85994 -0.01662
C 17.16268 29.7107 -0.00703
C 17.20304 28.21793 -0.04076
C 18.41921 27.5188 -0.00652
C 18.4547 26.12457 0.0058
C 17.30111 25.40492 -0.00865
C 17.22359 23.9629 0.00675
C 18.46214 23.30176 -0.00311
C 18.4595 21.92239 0.00742
C 17.22304 21.2381 -0.01594
C 20.8425 30.46735 -0.01185
C 17.20046 19.74774 0.0106
C 17.1935 7.04165 -0.01721
C 18.3354 6.51935 -0.02422
C 18.39035 4.97143 0.01277
C 17.22236 4.32703 0.00096
C 17.18864 2.87225 -0.01527
C 18.40115 2.21754 0.01087
C 18.34776 0.64983 0.00199
C 17.19782 33.98157 0.01511
C 19.59833 32.64533 -0.00478
C 18.4053 19.14725 -0.01154
C 22.16849 25.47566 0.03005
C 22.24825 24.08906 -0.04078
C 23.49895 23.37002 0.02117
C 25.72667 0.71552 0.00622
C 24.50586 34.06153 -0.02815
C 27.06057 32.62374 -0.00942
C 28.30669 31.95162 0.00487
C 28.22716 30.55621 0.00826
C 27.03254 29.86542 -0.00294
C 27.06489 28.43169 0.00152
C 28.28703 27.64306 0.01257
C 28.23818 26.26199 0.02316
C 25.74561 2.14329 -0.0032
C 27.0143 25.53925 0.04185
C 28.30181 23.39675 -0.00621
C 28.16545 21.88017 0.02611
C 26.90683 21.29356 0.02198
C 26.53686 19.91397 0.01094
C 27.84632 19.15225 0.00235
C 28.33314 17.8668 0.01495
C 27.9844 6.29461 0.01259
C 28.23814 4.95415 0.01799
C 27.01029 4.21895 0.01699
C 27.13049 24.14438 0.00194
C 24.54006 2.92278 -0.00037
C 24.59156 4.37193 -0.01654
C 25.8423 4.94828 -0.00218
C 23.42995 21.86532 0.02737
C 22.23305 21.29318 -0.00498
C 23.25986 4.87383 0.00135
C 22.047 4.23629 0.03102
C 22.07829 2.78248 0.02555
C 23.3007 2.09972 0.01423
C 23.30043 0.68881 -0.00285
C 22.02951 33.99053 -0.009
C 24.53506 32.66248 -0.01199
C 25.79917 31.93926 -0.00229
C 25.73664 30.53007 -0.00938
C 24.61726 29.82647 -0.0264
C 24.595 28.41304 -0.01154
C 25.84357 27.62569 0.00684
C 25.79064 26.25828 -0.01052
C 24.4854 25.55567 -0.01679
C 24.65176 24.13048 0.00367
C 25.83668 23.48042 0.04306
C 25.78806 22.10682 0.00996
C 24.70205 21.262 0.00195
C 25.26243 19.90491 -0.00802
C 3.66752 32.02627 0.03189
C 2.44925 32.78336 -0.04307
