313
Graphene
C 0.01332 0.02153 0.01295
C 11.10146 27.6588 -0.0331
C 11.00733 26.33245 -0.00316
C 9.83285 25.58454 0.02188
C 9.87862 24.11738 -0.01979
C 11.11289 23.48957 0.02691
C 11.092 22.02709 -0.01581
C 9.80693 21.27984 0.01452
C 9.81799 19.84644 0.04892
C 11.08827 19.11702 -0.00111
C 9.81468 16.99936 -0.03557
C 9.89614 8.5465 0.03754
C 9.88372 7.06581 0.01739
C 11.07078 6.36469 0.00755
C 11.12127 4.95037 -0.0054
C 9.80768 4.32097 0.00667
C 9.85587 28.37916 -0.0258
C 9.81803 29.76474 0.03338
C 11.02002 30.47432 -0.00491
C 11.10266 31.85785 -0.00109
C 8.58053 14.89028 -0.00619
C 8.58007 13.55712 -0.02162
C 7.37888 12.76305 0.00889
C 7.33579 11.40159 -0.00481
C 8.52275 10.68145 0.00979
C 8.64791 9.28036 0.01443
C 7.38302 8.51105 0.03505
C 9.86452 2.84203 0.00143
C 7.38529 7.09946 -0.02815
C 8.59434 5.00624 -0.05302
C 7.38224 4.24114 0.00213
C 7.38946 2.84413 -0.00066
C 8.62007 2.1869 -0.00289
C 8.63418 0.71844 0.00028
C 7.38733 0.04069 -0.02213
C 9.84879 32.62357 0.03698
C 8.632 6.40139 -0.04147
C 7.40147 15.62037 0.01848
C 11.12513 2.11886 -0.017
C 9.8434 34.04712 -0.00831
C 15.98408 30.53424 0.00199
C 14.75328 29.78567 0.01511
C 14.71949 28.38922 -0.00478
C 15.98409 27.68272 -0.01662
C 16.03196 26.2671 -0.01185
C 14.78627 25.5499 0.01126
C 14.75839 24.1246 0.01852
C 15.96886 23.46752 -0.00381
C 15.95953 22.00715 0.03046
C 14.77709 21.26944 0.0296
C 14.74204 4.21179 0.03374
C 14.75994 2.86503 -0.02845
C 15.98718 2.10564 -0.03213
C 15.96901 0.7612 0.02239
C 14.77358 0.01843 0.01153
C 16.00432 31.90497 0.01087
C 14.78744 32.71283 -0.01527
C 12.26989 34.03148 0.00096
C 13.54017 0.69666 0.01277
C 12.30347 32.66061 -0.02957
C 13.54931 31.93831 -0.04422
C 13.48931 30.55702 0.00654
C 12.26707 29.77579 -0.00703
C 12.33249 28.35897 -0.04076
C 13.57351 27.67801 -0.00652
C 13.52517 26.28759 0.0058
C 11.0492 0.7375 0.00364
C 12.26512 25.56389 -0.00865
C 13.47824 23.45964 -0.00311
C 13.52782 22.02522 0.00742
C 12.31205 21.26634 -0.01594
C 12.31567 19.82332 0.0106
C 12.30616 4.26542 -0.01154
C 12.29275 2.86375 -0.01721
C 13.50086 2.14834 -0.02422
C 12.34292 24.16194 0.00675
C 7.36986 17.03508 0.02098
C 8.60697 17.69098 -0.03113
C 8.59384 19.12981 0.0351
C 3.67966 9.21768 -0.02759
C 2.49235 8.54602 0.0402
C 2.42376 7.095 0.00572
C 3.64058 6.42363 0.03592
C 3.65086 4.99416 0.00406
C 2.44761 4.24061 0.00943
C 2.41387 2.85815 0.02841
C 3.68062 2.14194 -0.01111
C 3.71961 0.73529 -0.01275
C 2.45092 34.07786 0.00985
C 4.90596 32.62996 -0.02245
C 6.10587 31.95375 -0.00428
C 6.15353 30.51698 0.03101
C 4.87282 29.79064 -0.01536
C 4.92816 28.38304 -0.02689
C 3.70848 10.65755 0.03589
C 2.42925 11.40789 -0.00033
C 2.49271 12.7931 -0.01062
C 3.66865 13.51541 0.01364
C 3.66619 30.56705 -0.02896
C 2.46976 29.87453 -0.00131
C 2.48253 28.33675 -0.01118
C 3.6622 27.70016 -0.014
C 3.66198 26.28944 0.02147
C 2.44279 25.57058 0.00373
C 2.46426 24.16959 -0.00191
C 6.16708 27.74867 -0.01046
C 3.73417 23.39625 0.00438
C 2.48152 21.32648 0.00093
C 2.47933 19.88961 0.00057
C 3.6973 19.19534 -0.01634
C 3.6705 17.8071 -0.00334
C 2.48169 17.07738 0.02339
C 2.46446 15.622 0.01641
C 3.69974 14.91567 -0.00719
C 3.64384 22.04551 0.01291
C 6.21155 26.23003 -0.00891
C 4.97396 25.57106 0.02819
C 4.91154 24.14681 0.00165
C 6.21612 2.09501 0.05265
C 6.14182 0.67848 -0.01952
C 4.86422 34.05515 -0.02813
C 7.3648 32.71175 0.00374
C 8.5904 31.94609 0.00052
C 8.65442 30.52906 -0.03682
C 7.37392 29.83898 0.01965
C 4.96495 2.83434 -0.01717
C 7.3658 28.35337 0.02058
C 8.64063 26.26364 -0.0108
C 7.33652 25.52621 -0.00368
C 7.36957 24.16284 -0.02696
C 8.58622 23.45304 -0.00114
C 8.59397 22.0337 0.00228
C 7.39859 21.3214 0.00798
C 7.3461 19.85138 0.00422
C 8.62645 27.69773 -0.01957
C 17.19649 32.66362 0.02734
C 4.92942 4.27626 0.00244
C 6.12768 6.39 0.03542
C 6.12482 23.40852 -0.02971
C 6.13465 21.99123 0.02894
C 4.93431 21.32289 -0.01789
C 4.91639 19.85661 0.00444
C 6.13728 19.19154 -0.00925
C 6.15637 17.78979 0.01877
C 4.90882 17.04214 0.01363
C 6.22356 4.96156 0.02299
C 4.96029 15.60182 -0.02162
C 6.17531 13.5309 -0.0014
C 4.90197 12.71687 0.02162
C 4.90904 11.32527 0.0076
C 6.1143 10.6547 0.01241
C 6.12178 9.1651 -0.01454
C 4.91086 8.52533 0.01945
C 4.89568 7.14557 0.01416
C 6.11429 14.93281 0.00415
C 3.67391 31.92111 -0.01004
C 18.42301 31.96352 -0.0055
C 17.19813 29.8425 -0.00225
C 33.24049 31.95089 0.01927
C 33.20595 30.50671 0.01574
C 32.00688 29.8307 -0.02383
C 32.00376 28.43155 -0.01429
C 33.2033 27.70094 -0.0136
C 33.15937 26.30957 0.00594
C 32.0031 25.56219 -0.02474
C 32.00247 24.14513 0.00369
C 33.21613 23.42752 0.00455
C 33.24906 22.02578 -0.00644
C 31.93164 21.35961 -0.01839
C 31.9427 19.88075 0.00137
C 33.19998 19.17268 0.00199
C 33.13043 17.75393 0.04381
C 31.99652 17.05144 0.02806
C 31.99379 32.66148 0.03794
C 29.52049 34.05462 -0.01779
C 30.71219 0.73634 0.00682
C 30.73277 2.17607 0.00026
C 30.76794 31.9375 -0.00944
C 30.70479 30.55819 -0.03735
C 29.47371 29.84302 -0.00971
C 29.51949 28.37502 0.01518
C 30.76968 27.69736 0.01908
C 30.71708 26.3136 0.07705
C 29.47499 25.55726 0.0103
C 33.21623 14.9766 0.01504
C 29.53669 24.12155 0.02108
C 30.74118 22.00841 0.00307
C 29.48038 21.27469 0.00346
C 29.4984 19.85678 0.01713
C 30.73948 19.19682 -0.01694
C 30.67328 4.94757 0.01428
C 29.51646 4.25721 -0.02142
C 29.51729 2.80106 0.0544
C 30.75503 23.44652 0.00716
C 29.49517 32.65467 -0.02155
C 33.21016 6.41962 -0.00069
C 31.9777 4.24524 -0.03838
C 34.41127 15.60602 0.02114
C 1.22636 14.92508 -0.02957
C 1.25495 13.50353 0.00343
C 0.02341 12.76209 -0.02656
C 34.40347 11.38665 -0.02442
C 1.20573 10.68372 -0.00027
C 1.21981 9.22185 -0.00583
C 34.38793 8.56324 -0.02302
C 0.01799 7.10472 -0.02849
C 1.22253 6.33451 0.02931
C 1.25494 4.9298 0.00628
C 34.42903 4.24601 -0.0345
C 0.00461 2.84506 -0.00931
C 1.26444 2.14437 -0.00939
C 1.24497 0.70348 -0.00468
C 34.43153 17.00365 0.00648
C 1.2078 17.76005 0.01223
C 1.27616 19.21564 -0.01678
C 34.429 19.83293 0.01951
C 32.00207 2.84463 0.00349
C 33.20973 2.12789 -0.00323
C 33.19484 0.71333 -0.00841
C 31.97954 34.05199 0.0001
C 34.39709 32.66699 -0.02927
C 1.26168 31.93317 -0.01404
C 1.20612 30.49345 0.01027
C 33.18112 4.99369 0.04926
C 34.40178 29.79513 0.01831
C 1.20621 27.68315 -0.00439
C 1.23016 26.27708 -0.00598
C 0.00386 25.54925 -0.05239
C 0.01164 24.14293 0.03076
C 1.22845 23.47404 0.00723
C 1.252 22.01475 0.02712
C 34.42413 21.24725 -0.02213
C 0.01241 28.42622 -0.01037
C 27.06741 34.07573 -0.01461
C 28.26342 0.70317 -0.01303
C 28.32513 2.12654 -0.0405
C 20.91805 23.41297 -0.01199
C 20.8785 22.0295 -0.00229
C 19.7238 2.90612 -0.00938
C 20.87592 2.14488 -0.0264
C 20.95928 0.76007 -0.01154
C 19.63681 0.02443 0.00684
C 22.13394 32.63172 -0.01052
C 23.39439 31.93144 -0.01679
C 23.38918 30.57237 0.00367
C 22.18044 29.8338 0.04306
C 22.10164 28.37131 0.00996
C 23.36453 27.71402 0.00195
C 23.37422 26.29374 -0.00802
C 22.16599 25.62713 -0.00218
C 22.10504 24.09385 -0.01654
C 19.65213 24.12671 -0.009
C 19.6795 25.53933 -0.00285
C 20.95149 26.27569 0.01423
C 20.84523 27.6442 0.02555
C 17.15967 28.43937 0.00071
C 18.43273 27.64951 -0.01107
C 18.4342 26.2597 -0.01586
C 17.20826 25.53549 -0.01971
C 17.19704 24.17893 -0.02118
C 18.428 23.46233 0.00733
C 18.44726 21.97791 -0.00178
C 23.36451 23.40757 -0.00037
C 17.15297 2.81071 0.00768
C 18.39712 0.73237 0.03005
C 17.18681 34.0795 -0.04078
C 19.68428 32.64223 0.02117
C 20.92423 31.95676 0.02737
C 20.9159 30.58727 -0.00498
C 19.68556 29.85942 0.00135
C 19.66995 28.42975 0.03102
C 18.42959 2.18561 -0.0276
C 23.36526 22.01413 -0.0032
C 22.10681 21.33962 0.00622
C 22.15188 4.22704 -0.02815
C 24.62501 34.06209 0.04266
C 27.0332 32.64238 0.01324
C 28.27457 31.93488 0.0014
C 28.27236 30.52454 0.00924
C 27.06135 29.84509 0.02326
C 27.0403 28.35696 0.00261
C 28.28035 27.64603 0.03265
C 25.75823 0.69755 0.01177
C 28.28153 26.23528 -0.02049
C 27.07816 24.16308 -0.01415
C 28.27227 23.40719 -0.03039
C 28.26929 21.98672 0.01836
C 27.05456 21.28755 0.03531
C 27.07649 19.8178 -0.00669
C 28.2269 19.19912 0.0101
C 27.08383 2.79341 0.01705
C 27.0675 25.56709 -0.01854
C 18.46481 30.55325 0.01515
C 25.81088 2.11957 -0.00416
C 24.6188 19.8338 0.01799
C 22.12761 2.82205 -0.00942
C 23.3373 2.10829 0.00487
C 23.36019 0.70174 0.00826
C 22.15614 34.07292 -0.00294
C 24.59171 32.67138 0.00152
C 25.7833 31.95591 0.01257
C 25.7672 30.49831 0.02316
C 24.5837 2.77828 0.01699
C 24.57491 29.81407 0.04185
C 25.85046 27.68939 -0.00621
C 25.85598 26.27952 0.02611
C 24.53226 25.56507 0.02198
C 24.57276 24.093 0.01094
C 25.84606 23.423 0.00235
C 25.8173 21.99243 0.01495
C 24.62499 21.2763 0.01259
C 24.62639 28.36923 0.00194
C 2.46507 32.66539 0.00488
