327
Graphene
C 0.01627 0.0264 0.01295
C 14.78892 32.62985 0.00213
C 15.94147 31.99031 -0.00066
C 15.99104 30.55922 -0.00289
C 14.81124 29.80057 0.00028
C 14.81251 28.43002 -0.02213
C 15.99984 27.70657 0.03698
C 15.94123 26.19802 -0.00109
C 12.26216 0.02286 -0.05302
C 14.72413 25.44704 -0.00491
C 15.99247 23.4058 -0.0258
C 16.02241 22.01953 -0.0331
C 14.76118 21.28897 -0.00316
C 14.78474 19.86816 0.02188
C 16.0409 19.15243 -0.01979
C 15.9692 17.83403 0.02691
C 14.77332 17.02525 -0.01581
C 14.73636 24.07513 0.03338
C 13.49427 0.70837 -0.04147
C 13.57844 2.0676 -0.02815
C 13.47789 10.6131 0.03505
C 12.27789 29.84879 -0.0108
C 12.31504 28.36633 -0.00368
C 13.51304 27.70373 -0.02696
C 13.46867 26.30508 -0.00114
C 12.31246 25.60076 0.00228
C 12.31073 24.15477 0.00798
C 13.50958 23.45991 0.00422
C 13.53913 22.00139 0.0351
C 12.27304 21.29219 -0.03113
C 12.30491 19.85976 0.02098
C 13.55653 19.17512 0.01848
C 13.54661 17.81534 -0.00619
C 12.27924 17.06836 -0.02162
C 12.27658 15.68133 0.00889
C 13.52296 14.87595 -0.00481
C 13.5263 13.46724 0.00979
C 12.30788 12.83903 0.01443
C 14.81913 15.61329 0.01452
C 13.50101 30.48411 -0.01957
C 15.98843 14.91847 0.04892
C 14.76545 12.73527 -0.03557
C 18.41215 23.39786 0.0106
C 18.45416 22.00917 -0.01154
C 17.26695 21.30507 -0.01721
C 17.20059 19.89763 -0.02422
C 18.46084 19.17065 0.01277
C 18.38471 17.79863 0.00096
C 17.18837 17.06487 -0.01527
C 17.22321 24.05452 -0.01594
C 17.22593 15.57133 0.01087
C 18.42482 13.51948 0.01511
C 17.2302 12.76239 -0.00478
C 17.1808 11.36283 -0.01662
C 18.4104 10.66215 -0.01185
C 17.25837 8.45749 0.01126
C 17.23995 7.15567 0.01852
C 17.21573 4.2049 -0.00381
C 18.48441 14.8892 0.00199
C 17.22993 25.54125 0.00742
C 18.4626 26.24015 -0.00311
C 18.41812 27.69336 0.00675
C 14.7525 11.33851 0.03754
C 16.01163 10.59767 0.01739
C 15.99364 9.19229 0.00755
C 14.7629 8.52199 -0.0054
C 14.71973 7.12646 0.00667
C 15.96961 6.38899 0.00143
C 15.94332 4.99797 -0.017
C 14.76732 4.31933 0.00364
C 14.74692 2.86719 -0.00831
C 16.01838 2.11405 -0.02957
C 15.99665 0.71946 -0.04422
C 14.76732 0.04021 0.00654
C 17.20606 32.65745 -0.00703
C 18.49559 31.9578 -0.04076
C 18.47325 30.54896 -0.00652
C 17.22989 29.78313 0.0058
C 17.19145 28.3717 -0.00865
C 15.99668 13.49212 -0.00111
C 17.25367 2.85286 0.03046
C 13.51018 31.92532 0.02058
C 9.86081 0.03272 -0.03682
C 6.1379 31.95917 0.00438
C 6.12861 30.53524 0.01291
C 4.8895 29.82217 0.00093
C 4.92644 28.41207 0.00057
C 6.18797 27.69478 -0.01634
C 6.14897 26.27326 -0.00334
C 4.92404 25.53339 0.02339
C 4.89244 32.67236 -0.00191
C 4.93783 24.13984 0.01641
C 6.11896 22.01413 0.01364
C 4.95258 21.32361 -0.01062
C 4.9489 19.89936 -0.00033
C 6.1137 19.21203 0.03589
C 6.16132 17.70796 -0.02759
C 4.90035 17.05743 0.0402
C 4.89911 15.62631 0.00572
C 6.1743 23.47482 -0.00719
C 2.47764 34.04507 0.00373
C 3.68662 0.71293 0.02147
C 2.43514 12.81704 -0.014
C 3.67168 30.51981 -0.00892
C 2.43754 29.82963 -0.01362
C 2.4462 28.46719 -0.0008
C 3.71441 27.65883 0.0288
C 3.70854 26.31273 0.00393
C 2.47838 25.58916 0.00895
C 2.46148 24.16568 0.00685
C 3.64583 23.4672 0.02888
C 3.70023 22.03245 -0.00482
C 2.43864 21.26007 -0.01384
C 2.44311 19.867 0.03693
C 3.65069 19.1788 0.01745
C 3.7 17.71758 0.00488
C 2.46877 17.06695 -0.01004
C 2.42974 15.63855 -0.02896
C 3.74885 14.90895 -0.00131
C 3.69207 13.44938 -0.01118
C 6.07158 14.9264 0.03592
C 12.28221 32.73707 0.01965
C 4.88848 0.02624 0.00406
C 8.63004 31.94805 0.02841
C 9.83593 28.4265 -0.0014
C 11.11821 27.68733 0.02162
C 11.04463 26.22415 0.0076
C 9.86562 25.53838 0.01241
C 9.77045 24.08118 -0.01454
C 11.04493 23.49976 0.01945
C 11.02633 22.07073 0.01416
C 9.79975 29.83329 0.00415
C 9.86133 21.33475 0.03542
C 11.08218 19.10003 0.00244
C 11.10477 17.75814 -0.01717
C 9.87264 17.0618 0.05265
C 9.81297 15.62254 -0.01952
C 11.03999 14.89257 -0.02813
C 11.07076 13.42312 0.00374
C 11.012 0.66711 0.00052
C 9.90792 19.88328 0.02299
C 11.0712 30.48728 -0.02162
C 11.08548 31.97163 0.01363
C 9.84289 32.7138 0.01877
C 8.56931 30.53528 -0.01111
C 7.41662 29.84526 -0.01275
C 7.43114 28.40888 0.00985
C 8.62904 27.73433 -0.02245
C 8.56532 26.20313 -0.00428
C 7.36365 25.54551 0.03101
C 7.33691 24.14242 -0.01536
C 8.55598 23.38164 -0.02689
C 8.63101 22.02293 -0.01046
C 7.40158 21.31595 -0.00891
C 7.37974 19.89647 0.02819
C 8.64394 19.14028 0.00165
C 8.60029 17.78608 -0.02971
C 7.36831 17.06042 0.02894
C 7.39017 15.64236 -0.01789
C 8.5888 14.90138 0.00444
C 7.37361 34.07783 -0.00925
C 7.39935 32.68661 0.00943
C 3.65529 31.94512 -0.04848
C 18.42966 2.16282 0.0296
C 17.25073 34.05431 -0.02845
C 33.20005 30.5703 0.00682
C 31.96718 29.83485 -0.01779
C 32.00893 28.44417 0.03794
C 33.18873 27.74412 0.01927
C 33.19585 26.29103 0.01574
C 32.0099 25.57801 -0.02383
C 31.92746 24.14748 -0.01429
C 33.21239 31.98985 0.00026
C 33.21311 23.42652 -0.0136
C 31.98515 21.29493 -0.02474
C 31.97273 19.88673 0.00369
C 33.19388 19.18366 0.00455
C 33.23201 17.74446 -0.00644
C 31.91267 17.04353 -0.01839
C 31.91981 15.62537 0.00137
C 33.18574 14.8826 0.00199
C 33.20263 22.0037 0.00594
C 31.95305 32.69427 0.0544
C 29.50485 34.07965 -0.02142
C 30.78939 0.75068 0.01428
C 29.55702 28.36877 -0.0405
C 30.74832 27.70774 -0.01303
C 30.69844 26.27608 -0.01461
C 29.53289 25.55881 -0.02155
C 29.50133 24.15033 -0.00944
C 30.67951 23.45929 -0.03735
C 30.69587 22.01483 -0.00971
C 29.49944 21.25634 0.01518
C 29.53033 19.92768 0.01908
C 30.70976 19.17764 0.07705
C 30.728 17.76988 0.0103
C 29.50401 17.03908 0.02108
C 30.74096 14.88933 0.00716
C 30.73021 4.96206 0.00307
C 29.57396 4.24971 0.00346
C 29.50321 2.87337 0.01713
C 30.73657 2.11929 -0.01694
C 33.1681 13.49288 0.04381
C 29.50412 29.8107 0.01705
C 31.94204 12.81123 0.02806
C 33.22616 9.24187 -0.00069
C 0.01325 19.82144 0.00648
C 1.26389 19.1385 0.02114
C 1.21682 17.76624 -0.02957
C 0.00011 17.06418 0.00343
C 0.00417 15.59704 -0.02656
C 1.20489 14.92077 -0.02442
C 1.21347 13.50143 -0.00027
C 34.41002 21.31102 0.01223
C 0.03907 12.81382 -0.00583
C 1.21977 10.59233 -0.02849
C 0.00806 8.44505 0.02931
C 0.00431 7.12268 0.00628
C 34.41211 4.26041 -0.0345
C 0.02718 2.79753 -0.00931
C 1.21589 2.14527 -0.00939
C 1.29164 0.67842 -0.00468
C 34.39563 11.32252 -0.02302
C 1.2141 22.04057 -0.01678
C 1.20086 23.42205 0.01951
C 34.39337 24.16645 -0.02213
C 31.96619 8.50193 0.04926
C 31.98758 7.07535 -0.03838
C 33.23343 6.40503 0.00349
C 33.20976 4.98115 -0.00323
C 32.01512 4.23025 -0.00841
C 31.97254 2.78295 0.0001
C 33.20478 2.12889 -0.02927
C 33.23913 0.70444 -0.01404
C 31.95431 34.0673 0.01027
C 0.00153 32.64242 0.01831
C 1.22721 31.97796 -0.01037
C 1.21838 30.51875 -0.00439
C 0.0224 29.87787 -0.00598
C 34.41914 28.42709 -0.05239
C 1.25024 27.7447 0.03076
C 1.19598 26.30933 0.00723
C 34.42064 25.57694 0.02712
C 33.17975 10.66481 0.01504
C 18.47774 0.72888 0.03374
C 30.75694 30.51974 0.0101
C 29.48423 32.61263 0.03531
C 22.13692 32.70939 0.00135
C 23.37204 31.95167 0.03102
C 23.37795 30.55665 0.02555
C 22.10373 29.76204 0.01423
C 22.11246 28.36526 -0.00285
C 23.35909 27.68288 -0.009
C 23.42891 26.24894 -0.01199
C 19.65614 34.07968 -0.00498
C 22.0731 25.59131 -0.00229
C 23.34132 23.40673 -0.0264
C 23.36769 22.02094 -0.01154
C 22.11775 21.25708 0.00684
C 22.1245 19.89182 -0.01052
C 23.40015 19.18625 -0.01679
C 23.33008 17.75352 0.00367
C 22.18247 17.06617 0.04306
C 22.11945 24.13874 -0.00938
C 20.87986 0.74213 0.02737
C 20.86691 2.17041 0.02117
C 19.70283 2.76357 -0.04078
C 19.68137 32.64865 -0.03213
C 20.88509 32.02717 0.02239
C 20.92976 30.55199 0.01153
C 19.64202 29.84575 0.02734
C 19.64439 28.4055 -0.0055
C 20.87697 27.69719 0.01515
C 20.88886 26.31133 -0.00225
C 19.67114 25.58581 0.00071
C 19.68772 24.13171 -0.01107
C 20.89698 23.40298 -0.01586
C 20.88793 22.01251 -0.01971
C 19.64741 21.30985 -0.02118
C 19.64306 19.94443 0.00733
C 20.9074 19.10094 -0.00178
C 20.88209 17.7185 0.00768
C 19.62396 17.04927 -0.0276
C 19.66498 15.66539 0.03005
C 23.41307 2.14443 0.00996
C 30.70345 31.88754 -0.00669
C 23.3399 0.71464 0.00195
C 24.61644 32.67931 -0.00218
C 27.05034 29.77053 0.01799
C 27.02729 28.40416 0.01699
C 28.31204 27.65199 -0.00416
C 28.27495 26.26238 0.01177
C 27.09821 25.55338 0.04266
C 27.03305 24.12799 0.01324
C 28.29923 23.37326 0.0014
C 28.27531 30.5202 0.01259
C 28.26247 21.98366 0.00924
C 27.04757 19.87082 0.00261
C 28.31378 19.12253 0.03265
C 28.28882 17.71881 -0.02049
C 27.00448 2.84916 -0.01854
C 28.22108 2.13823 -0.01415
C 28.31416 0.67457 -0.03039
C 27.0317 34.07647 0.01836
C 27.1057 21.26149 0.02326
C 28.29142 31.93704 0.01495
C 26.98847 32.66849 0.00235
C 24.56522 34.03577 0.01094
C 25.83105 31.94709 -0.01654
C 25.83056 30.50413 -0.00037
C 24.64205 29.79378 -0.0032
C 24.61856 28.36208 0.00622
C 25.85167 27.65655 -0.02815
C 25.82026 26.26112 -0.00942
C 24.6074 25.49326 0.00487
C 24.54886 24.11012 0.00826
C 25.79537 23.46425 -0.00294
C 25.86816 21.95808 0.00152
C 24.66761 21.27691 0.01257
C 24.56573 19.83719 0.02316
C 25.82425 19.13683 0.04185
C 25.84477 17.75832 0.00194
C 24.56477 2.81203 -0.00621
C 25.87351 2.1695 0.02611
C 25.79677 0.69609 0.02198
C 22.14468 0.02886 -0.00802
C 2.47011 32.66316 0.01572
