332
Graphene
C 34.43248 0.07101 0.01295
C 13.57646 31.94548 0.03505
C 13.52651 30.53326 -0.02815
C 12.33653 29.82441 -0.04147
C 12.29097 28.34792 -0.05302
C 13.46633 27.57578 0.00213
C 13.47963 26.07493 -0.00066
C 12.17965 25.72986 -0.00289
C 12.32209 32.62574 0.01443
C 12.14628 7.27578 0.00028
C 13.45463 5.05432 0.03698
C 12.23543 4.36412 -0.00109
C 12.25501 2.87834 -0.00491
C 13.5021 2.21131 0.03338
C 13.53876 0.72179 -0.0258
C 12.32327 0.00204 -0.0331
C 14.76004 32.63475 -0.00316
C 13.45522 6.61154 -0.02213
C 9.893 0.00503 0.00979
C 11.18578 0.70797 -0.00481
C 10.98534 2.17612 0.00889
C 8.64942 0.73945 -0.03682
C 7.40262 0.06596 0.01965
C 9.88542 32.67088 0.02058
C 11.08019 31.98741 -0.01957
C 11.09972 30.60563 -0.0108
C 9.83375 30.00192 -0.00368
C 9.76725 28.59024 -0.02696
C 10.98539 27.90371 -0.00114
C 11.00859 26.48902 0.00228
C 9.84471 25.7364 0.00798
C 10.00759 24.34303 0.00422
C 9.52681 8.36776 0.0351
C 9.78896 7.06277 -0.03113
C 11.0902 6.47615 0.02098
C 11.01406 5.06158 0.01848
C 9.78887 4.29211 -0.00619
C 9.75479 2.88936 -0.02162
C 15.99903 31.89065 0.02188
C 15.90977 30.47899 -0.01979
C 14.75692 29.82392 0.02691
C 14.68275 28.31157 -0.01581
C 18.41507 5.06354 0.00675
C 17.21026 4.27869 -0.00311
C 17.22323 2.84553 0.00742
C 18.45437 2.06305 -0.01594
C 18.47075 0.6248 0.0106
C 17.12546 0.04412 -0.01154
C 19.61163 32.63953 -0.01721
C 20.84557 31.91465 -0.02422
C 20.88565 30.4435 0.01277
C 19.66664 29.71226 0.00096
C 19.59338 28.24065 -0.01527
C 20.92672 27.63352 0.01087
C 19.73615 25.37018 0.00199
C 20.4589 24.38852 0.01511
C 21.02635 9.20041 -0.00478
C 19.87172 8.74129 -0.01662
C 19.73043 7.31757 -0.01185
C 18.55476 6.59222 -0.00865
C 8.58841 2.07373 0.00052
C 17.24384 7.27534 0.0058
C 18.3963 26.07275 -0.04076
C 15.91545 27.64177 0.01452
C 15.86916 26.13423 0.04892
C 14.65675 25.44325 -0.00111
C 14.75045 6.99834 -0.03557
C 16.01002 6.62517 0.03754
C 15.95482 4.98493 0.01739
C 14.75029 4.32807 0.00755
C 14.7169 2.92492 -0.0054
C 15.98137 2.15498 0.00667
C 15.99619 0.73768 0.00143
C 14.80275 0.04347 -0.017
C 17.13039 32.62756 0.00364
C 18.443 31.91038 -0.00831
C 18.40903 30.47689 -0.02957
C 17.14327 29.8435 -0.04422
C 17.13792 28.32033 0.00654
C 18.37609 27.51985 -0.00703
C 17.16149 25.62887 -0.00652
C 20.92543 6.43893 0.01126
C 7.36885 2.75704 0.00374
C 8.44614 4.90362 -0.01952
C 2.3776 8.4901 -0.01118
C 2.36042 7.05399 -0.014
C 3.62293 6.39979 0.02147
C 3.65802 4.98919 0.00373
C 2.47038 4.27134 -0.00191
C 2.40557 2.84322 0.00438
C 3.6088 2.14296 0.01291
C 3.60959 9.19896 -0.00131
C 3.63448 0.74773 0.00093
C 4.93288 32.69919 -0.01634
C 6.1553 32.06036 -0.00334
C 6.12113 30.653 0.02339
C 4.8774 29.85413 0.01641
C 4.84571 28.43529 -0.00719
C 6.13747 27.75247 0.01364
C 6.22411 26.30736 -0.01062
C 2.43764 0.0174 0.00057
C 3.50987 10.65768 -0.02896
C 2.30755 11.35104 -0.01004
C 2.36664 12.73289 0.00488
C 3.58616 30.53983 0.00054
C 2.37884 29.85602 0.03007
C 2.42868 28.36213 -0.00095
C 3.6396 27.77125 0.01572
C 3.7289 26.28716 -0.04848
C 2.48987 25.62867 -0.00892
C 2.51161 24.21927 -0.01362
C 3.76302 23.50065 -0.0008
C 3.69178 22.02267 0.0288
C 2.42164 21.36098 0.00393
C 2.4006 19.94163 0.00895
C 3.66152 19.21767 0.00685
C 3.65864 17.72027 0.02888
C 2.30785 17.03595 -0.00482
C 2.4 15.60612 -0.01384
C 3.63111 14.88286 0.03693
C 3.62324 13.42909 0.01745
C 5.0071 25.61539 -0.00033
C 4.95814 24.17207 0.03589
C 6.20708 23.49789 -0.02759
C 6.19695 21.99987 0.0402
C 7.39365 32.74963 -0.00925
C 8.57981 31.99746 0.01877
C 8.68069 30.66147 0.01363
C 7.35277 29.87206 -0.02162
C 7.3549 28.57097 0.00415
C 8.56826 27.83069 -0.0014
C 8.5305 26.36943 0.02162
C 7.42999 25.65627 0.0076
C 7.43558 24.22469 0.01241
C 8.85418 23.60537 -0.01454
C 8.63319 22.29881 0.01945
C 7.58708 21.49809 0.01416
C 6.90275 11.87617 0.03542
C 8.68254 9.24975 0.02299
C 7.40286 8.5828 0.00244
C 7.3684 7.19538 -0.01717
C 8.50325 6.37224 0.05265
C 4.91616 0.08638 0.00444
C 7.28986 4.163 -0.02813
C 6.11772 0.75714 -0.01789
C 4.94432 2.90934 -0.02971
C 4.99234 21.28776 0.00572
C 4.90496 19.98925 0.03592
C 6.11422 19.17474 0.00406
C 5.99213 17.82222 0.00943
C 5.02074 16.93044 0.02841
C 4.99135 15.44572 -0.01111
C 5.95143 14.3479 -0.01275
C 6.27816 13.09989 0.00985
C 4.81369 12.74054 -0.02245
C 4.72582 11.28807 -0.00428
C 5.98838 10.70753 0.03101
C 6.13816 9.23558 -0.01536
C 4.88282 8.53762 -0.02689
C 4.86403 7.07463 -0.01046
C 6.17033 6.42545 -0.00891
C 6.12863 5.00018 0.02819
C 4.87092 4.32742 0.00165
C 6.15609 2.20138 0.02894
C 20.90876 4.96008 0.01852
C 19.63355 4.25891 -0.00381
C 19.71973 2.81262 0.03046
C 33.15713 27.69597 0.00026
C 33.23947 26.33243 0.00682
C 31.97328 25.65634 -0.01779
C 31.9788 24.23911 0.03794
C 33.23737 23.50304 0.01927
C 33.15858 22.13771 0.01574
C 31.78454 21.5207 -0.02383
C 31.7868 28.28162 0.0544
C 31.73062 20.03591 -0.01429
C 33.07826 17.94115 0.00594
C 31.82166 17.22881 -0.02474
C 31.81902 15.70439 0.00369
C 33.11774 14.98622 0.00455
C 33.1194 13.47029 -0.00644
C 31.88729 12.76968 -0.01839
C 31.92855 11.33631 0.00137
C 33.02131 19.35712 -0.0136
C 31.87966 29.77195 -0.02142
C 33.1298 30.41767 0.01428
C 33.15007 31.967 -0.01694
C 29.30345 15.62156 0.01705
C 30.68518 14.94667 -0.0405
C 30.69501 13.55202 -0.01303
C 29.4953 12.79913 -0.01461
C 29.40365 11.40833 -0.02155
C 30.6458 10.61551 -0.00944
C 30.71692 9.28486 -0.03735
C 29.41959 8.51686 -0.00971
C 29.39196 7.1078 0.01518
C 30.59606 6.35263 0.01908
C 30.67576 4.89551 0.07705
C 29.42557 4.20264 0.0103
C 29.46295 2.73305 0.02108
C 30.67236 2.09639 0.00716
C 30.68895 0.59375 0.00307
C 29.39883 33.99086 0.00346
C 31.96736 32.6584 0.01713
C 33.16246 10.59611 0.00199
C 33.15113 9.20365 0.04381
C 31.91436 8.47392 0.02806
C 31.91816 7.04215 0.01504
C 1.15421 17.84589 0.01223
C 34.33974 17.12319 0.00648
C 34.35416 15.69367 0.02114
C 1.07514 14.94882 -0.02957
C 1.1226 13.50392 0.00343
C 34.30755 12.72008 -0.02656
C 34.41285 11.35417 -0.02442
C 1.14596 10.64314 -0.00027
C 1.1454 9.22005 -0.00583
C 34.34097 8.54281 -0.02302
C 34.39447 7.06779 -0.02849
C 1.21411 6.3402 0.02931
C 1.19066 4.95793 0.00628
C 34.38409 4.28189 -0.0345
C 34.41025 2.86315 -0.00931
C 1.19838 2.22086 -0.00939
C 1.13395 0.79156 -0.00468
C 1.07765 19.27867 -0.01678
C 29.28569 17.0486 0.0101
C 34.29712 20.00639 0.01951
C 1.19194 22.07652 0.02712
C 33.1437 6.3679 -0.00069
C 33.17597 4.96296 0.04926
C 31.91428 4.21574 -0.03838
C 31.91901 2.81196 0.00349
C 33.22432 2.11852 -0.00323
C 33.19006 0.69218 -0.00841
C 31.9869 34.04108 0.0001
C 34.34728 32.75167 -0.02927
C 1.10097 31.93879 -0.01404
C 1.18221 30.52669 0.01027
C 34.35777 29.78314 0.01831
C 34.41411 28.40981 -0.01037
C 1.18436 27.70321 -0.00439
C 1.23297 26.34399 -0.00598
C 0.03445 25.60153 -0.05239
C 0.06733 24.25064 0.03076
C 1.28291 23.4732 0.00723
C 34.29551 21.40536 -0.02213
C 30.51488 17.83932 -0.00669
C 30.44984 19.2377 0.03531
C 29.12233 20.09306 0.01836
C 23.31532 2.08634 0.02117
C 23.34675 0.71283 0.02737
C 22.16137 34.01096 -0.00498
C 24.53507 32.53251 0.00135
C 25.77847 31.73034 0.03102
C 25.85429 30.16864 0.02555
C 24.55992 29.64146 0.01423
C 26.51118 19.13759 -0.00285
C 25.8581 17.94551 -0.009
C 24.55818 17.40983 -0.01199
C 24.33382 15.71642 -0.00229
C 25.68823 14.87751 -0.00938
C 25.69982 13.46563 -0.0264
C 24.5218 12.73537 -0.01154
C 24.58559 11.28894 0.00684
C 25.85994 10.54368 -0.01052
C 25.83181 9.12986 -0.01679
C 22.13318 2.73252 -0.04078
C 24.58054 8.54483 0.00367
C 22.15044 4.24 0.03005
C 23.34312 6.36102 0.00768
C 20.87187 2.0917 0.0296
C 20.88252 0.67153 0.03374
C 19.673 34.04515 -0.02845
C 22.13452 32.60666 -0.03213
C 23.27213 31.82346 0.02239
C 23.3585 30.33303 0.01153
C 22.10225 29.73437 0.02734
C 21.98736 28.2665 -0.0055
C 22.64334 19.33119 0.01515
C 23.45039 18.395 -0.00225
C 23.30785 14.696 0.00071
C 23.25608 13.51003 -0.01107
C 21.99551 11.27988 -0.01586
C 23.35021 10.65101 -0.01971
C 23.43055 9.18945 -0.02118
C 22.26366 8.51251 0.00733
C 22.17842 7.02688 -0.00178
C 23.3912 4.92333 -0.0276
C 3.66624 32.00232 -0.00494
C 24.55339 7.07109 0.04306
C 25.81797 4.94311 0.00195
C 28.25481 6.33631 0.01495
C 28.21049 4.92798 0.01259
C 27.04017 4.17699 0.01799
C 27.06141 2.69916 0.01699
C 28.23036 1.97836 -0.00416
C 28.16702 0.55979 0.01177
C 26.97442 33.89107 0.04266
C 29.47029 32.60868 0.01324
C 30.70327 31.95142 0.0014
C 30.68713 30.517 0.00924
C 29.53007 29.84879 0.02326
C 29.41208 28.53172 0.00261
C 30.40809 27.6128 0.03265
C 30.70049 26.21368 -0.02049
C 30.73007 23.61727 -0.01854
C 30.48724 22.26927 -0.01415
C 29.28709 21.50436 -0.03039
C 27.05123 7.04754 0.00235
C 25.80102 6.38543 0.00996
C 27.05623 8.49101 0.01094
C 28.24904 10.68557 0.02611
C 24.64063 4.31209 -0.00802
C 24.60378 2.87887 -0.00218
C 25.76077 2.03765 -0.01654
C 25.79035 0.61635 -0.00037
C 24.58986 33.95715 -0.0032
C 26.98096 32.51419 0.00622
C 28.10991 31.87069 -0.02815
C 28.22921 30.46925 -0.00942
C 27.1362 29.63917 0.00487
C 28.13449 19.25996 0.00826
C 28.13758 17.69626 -0.00294
C 26.90068 16.97355 0.00152
C 26.88793 15.55496 0.01257
C 28.13323 14.85157 0.02316
C 28.25909 13.42608 0.04185
C 26.98774 12.68852 0.00194
C 27.05043 11.28819 -0.00621
C 28.22481 9.2178 0.02198
C 2.37117 32.70591 -0.00562
