381
Graphene
C 34.32307 0.03318 0.01295
C 12.22094 32.6816 -0.01454
C 13.44586 31.85687 0.01945
C 13.48905 30.3484 0.01416
C 12.10519 29.9084 0.03542
C 13.5475 22.18799 0.02299
C 12.26206 21.65094 0.00244
C 12.32432 20.10146 -0.01717
C 13.60918 19.50218 0.05265
C 13.62197 17.95405 -0.01952
C 12.40899 17.18758 -0.02813
C 12.31669 15.74334 0.00374
C 13.47615 14.88821 0.00052
C 13.41176 13.43165 -0.03682
C 12.12269 12.8052 0.01965
C 12.19108 11.38116 0.02058
C 13.51391 10.64215 -0.01957
C 13.55801 9.20474 -0.0108
C 12.3278 8.5165 -0.00368
C 12.29073 7.11423 -0.02696
C 9.73774 0.17386 0.01241
C 11.00469 0.73588 0.0076
C 10.96633 2.21682 0.02162
C 9.74844 2.88264 -0.0014
C 9.86581 29.96863 -0.01275
C 10.00021 28.60056 0.00985
C 9.79376 24.16907 -0.02245
C 10.8844 22.2076 -0.00428
C 9.81766 21.35091 0.03101
C 9.91799 19.92939 -0.01536
C 11.11216 19.21819 -0.02689
C 11.14139 17.72081 -0.01046
C 10.15459 16.74419 -0.00891
C 13.51529 6.30279 -0.00114
C 10.97489 15.29587 0.02819
C 9.60731 12.97584 -0.02971
C 9.74591 11.51412 0.02894
C 10.9874 10.70818 -0.01789
C 10.96017 9.27255 0.00444
C 9.79994 8.61888 -0.00925
C 9.84562 7.08438 0.01877
C 11.08753 6.44165 0.01363
C 11.07303 5.00237 -0.02162
C 9.7644 4.28885 0.00415
C 10.91718 13.63183 0.00165
C 13.43772 4.92916 0.00228
C 12.2185 4.27065 0.00798
C 12.28375 2.82107 0.00422
C 14.70719 4.1823 -0.0331
C 14.76329 2.83699 -0.00316
C 15.95647 2.05331 0.02188
C 15.90737 0.60042 -0.01979
C 14.69645 34.03529 0.02691
C 17.17493 32.6941 -0.01581
C 18.43449 31.94058 0.01452
C 18.41514 30.49797 0.04892
C 17.11514 29.72616 -0.00111
C 15.96233 4.95092 -0.0258
C 17.08524 28.4348 -0.03557
C 18.35008 26.08024 0.01739
C 17.02228 23.47509 0.00755
C 18.45642 23.32366 -0.0054
C 18.5202 21.87212 0.00667
C 17.24686 21.30568 0.00143
C 17.19735 19.8709 -0.017
C 18.43357 19.0559 0.00364
C 18.36392 17.68266 -0.00831
C 17.19048 16.86014 -0.02957
C 18.24838 27.53846 0.03754
C 10.99633 30.72954 -0.01111
C 15.95801 6.32739 0.03338
C 14.70295 8.39476 -0.00109
C 13.47349 2.10008 0.0351
C 13.49283 0.65932 -0.03113
C 12.27902 34.04544 0.02098
C 14.59949 32.60916 0.01848
C 15.90155 31.99737 -0.00619
C 15.96426 30.54325 -0.02162
C 14.83565 29.79001 0.00889
C 16.27507 22.25889 -0.00481
C 14.90201 21.63952 0.00979
C 14.69864 6.97389 -0.00491
C 14.88638 20.11572 0.01443
C 16.00394 17.69665 -0.02815
C 14.76034 17.05776 -0.04147
C 14.79725 15.58903 -0.05302
C 15.95623 14.80473 0.00213
C 15.89829 13.40228 -0.00066
C 14.6645 12.74932 -0.00289
C 14.77703 11.37077 0.00028
C 16.01675 10.53966 -0.02213
C 15.95842 9.11491 0.03698
C 16.05474 19.19897 0.03505
C 11.00097 32.14419 0.02841
C 9.74202 32.8334 0.00943
C 7.32551 0.07634 0.00406
C 3.65281 5.10502 -0.00725
C 2.45505 4.37366 -0.05697
C 2.3957 2.95472 0.01087
C 3.55287 2.17926 -0.01343
C 3.59067 0.79349 0.00988
C 2.32875 0.04669 0.0276
C 4.8441 32.75016 0.01305
C 6.07048 32.05656 -0.00077
C 6.17922 30.59583 0.03368
C 3.62459 6.40437 0.02322
C 4.88115 29.88503 -0.02929
C 6.2058 27.76208 -0.03337
C 6.21181 26.35699 0.01227
C 4.92353 25.63436 0.00873
C 4.95879 24.15708 -0.00049
C 6.16609 23.48302 0.00848
C 6.21976 22.00701 -0.01303
C 4.92777 21.37421 -0.01378
C 4.91999 19.92229 0.02635
C 6.19066 19.14786 0.0127
C 4.93755 28.40613 -0.00966
C 6.28059 17.62107 0.01396
C 2.3727 7.22437 -0.00094
C 3.62406 9.32388 -0.03113
C 3.66348 30.62783 0.02379
C 2.38915 29.79902 0.00907
C 2.45264 28.44571 0.00643
C 3.75926 27.70763 -0.01509
C 3.72594 26.27856 0.03267
C 2.40742 25.6306 0.02374
C 2.45007 24.19564 0.00402
C 3.63436 23.46784 0.0073
C 3.73021 22.07923 0.0174
C 2.35036 8.59354 -0.02566
C 2.45543 21.34821 0.03828
C 3.74104 19.25064 -0.00279
C 3.76404 17.76639 0.01996
C 2.49421 17.21427 -0.03996
C 2.46148 15.71473 0.01465
C 3.68402 14.95587 -0.00074
C 3.61554 13.53462 -0.00518
C 2.34493 12.84626 0.0086
C 2.38053 11.48083 -0.00643
C 3.58337 10.69799 0.017
C 2.46141 19.98668 0.01226
C 17.16223 15.45951 -0.04422
C 4.93291 16.9641 0.01849
C 6.16843 14.78946 -0.00562
C 8.64586 22.02997 0.02147
C 7.42587 21.31115 0.00373
C 7.40592 19.86672 -0.00191
C 8.66397 19.19166 0.00438
C 8.8661 17.42782 0.01291
C 7.54605 16.79546 0.00093
C 7.45468 15.3738 0.00057
C 8.37039 13.82555 -0.01634
C 7.29744 12.85691 -0.00334
C 8.70454 23.47909 -0.014
C 7.37496 11.36155 0.02339
C 8.5326 9.35806 -0.00719
C 7.36096 8.61065 0.01364
C 7.33069 7.17321 -0.01062
C 8.52961 6.40263 -0.00033
C 8.58224 5.00515 0.03589
C 7.27518 4.29987 -0.02759
C 7.24523 2.85942 0.0402
C 8.52203 2.2201 0.00572
C 8.52205 0.81853 0.03592
C 8.57375 10.74821 0.01641
C 4.93827 15.57621 -0.01142
C 7.3771 24.16851 -0.01118
C 8.72096 26.13718 -0.02896
C 6.09902 13.41795 -0.00494
C 4.8545 12.72548 0.00054
C 4.82251 11.28396 0.03007
C 6.13806 10.6826 -0.00095
C 6.12692 9.22941 0.01572
C 4.8763 8.55961 -0.04848
C 4.77684 7.1808 -0.00892
C 6.05894 6.45828 -0.01362
C 6.10303 5.01106 -0.0008
C 7.45576 25.57359 -0.00131
C 4.86925 4.3281 0.0288
C 6.04394 2.14858 0.00895
C 6.03997 0.81917 0.00685
C 4.81827 0.07205 0.02888
C 7.32851 32.75861 -0.00482
C 8.59107 32.08712 -0.01384
C 8.51675 30.6066 0.03693
C 7.42024 29.88255 0.01745
C 7.44299 28.40691 0.00488
C 8.85392 27.69816 -0.01004
C 4.77262 2.9303 0.00393
C 3.65853 32.03348 0.01402
C 18.4674 14.7795 0.00654
C 17.25402 12.64434 -0.04076
C 30.64339 22.09605 0.02108
C 29.42238 21.27276 0.00716
C 29.925 8.64236 0.00307
C 29.5642 7.22874 0.00346
C 30.74961 6.40105 0.01713
C 30.74886 4.98934 -0.01694
C 29.4504 4.30046 0.01428
C 29.42685 2.87302 -0.02142
C 30.67087 2.03481 0.0544
C 30.64769 0.63935 0.00026
C 29.43818 0.01175 0.00682
C 31.92178 32.68489 -0.01779
C 33.17273 31.96225 0.03794
C 33.12486 30.5609 0.01927
C 31.91025 29.79233 0.01574
C 31.86584 28.3926 -0.02383
C 33.13793 27.70422 -0.01429
C 33.22308 26.33926 -0.0136
C 31.99902 25.6019 0.00594
C 30.68198 23.46891 0.0103
C 29.43614 24.13813 0.07705
C 29.43724 25.53882 0.01908
C 30.70364 26.2451 0.01518
C 28.14755 26.26239 0.00924
C 26.97088 25.45763 0.02326
C 26.98012 24.02628 0.00261
C 28.21167 23.42406 0.03265
C 28.19475 21.85173 -0.02049
C 26.96125 21.36464 -0.01854
C 26.98171 7.10759 -0.01415
C 28.24838 6.5107 -0.03039
C 28.24944 5.01741 0.01836
C 32.00787 24.15642 -0.02474
C 27.07627 4.31021 0.03531
C 28.22286 2.11589 0.0101
C 28.22585 0.7587 0.01705
C 26.98816 34.0773 -0.0405
C 29.4138 32.6909 -0.01303
C 30.63008 31.99863 -0.01461
C 30.72825 30.59946 -0.02155
C 29.46385 29.79776 -0.00944
C 29.45137 28.39021 -0.03735
C 30.71589 27.69199 -0.00971
C 26.9812 2.90321 -0.00669
C 33.20241 23.39321 0.00369
C 33.15163 22.03079 0.00455
C 31.85998 21.31971 -0.00644
C 0.00053 21.34829 -0.02213
C 34.36711 19.91554 0.01951
C 1.27319 19.30588 -0.01678
C 1.19311 17.86406 0.01223
C 0.01926 17.10557 0.00648
C 0.12125 15.81091 0.02114
C 1.2137 14.96007 -0.02957
C 1.13021 13.56727 0.00343
C 34.31332 12.94907 -0.02656
C 1.22258 22.01082 0.02712
C 34.28789 11.47057 -0.02442
C 1.08361 9.38612 -0.00583
C 34.26373 8.60138 -0.02302
C 34.31338 7.18211 -0.02849
C 1.12076 6.475 0.02931
C 1.21386 5.05737 0.00628
C 34.42299 4.25916 -0.0345
C 34.36191 2.88952 -0.00931
C 1.14272 2.19661 -0.00939
C 1.10111 0.84588 -0.00468
C 1.08718 10.74664 -0.00027
C 28.23918 27.66209 0.0014
C 1.204 23.4181 0.00723
C 34.38612 25.57514 -0.05239
C 31.90483 19.93038 -0.01839
C 33.1775 19.28328 0.00137
C 33.28032 10.57484 0.00199
C 32.93462 9.2604 0.04381
C 31.61063 8.54874 0.02806
C 31.90025 7.10788 0.01504
C 33.0827 6.46554 -0.00069
C 33.18984 5.00528 0.04926
C 32.00313 4.28989 -0.03838
C 0.0039 24.13793 0.03076
C 31.87187 2.86361 0.00349
C 33.10716 0.81975 -0.00841
C 31.86916 34.07603 0.0001
C 34.41341 32.65803 -0.02927
C 1.20026 31.94949 -0.01404
C 1.16168 30.54879 0.01027
C 34.42326 29.77588 0.01831
C 34.37782 28.43464 -0.01037
C 1.19621 27.7393 -0.00439
C 1.22531 26.30483 -0.00598
C 33.11417 2.20786 -0.00323
C 26.96834 28.4479 0.01324
C 27.02468 29.84865 0.04266
C 28.24092 30.5242 0.01177
C 19.71141 19.6672 0.0296
C 21.07198 18.98261 0.03374
C 20.84773 17.61201 -0.02845
C 19.64351 16.95212 -0.03213
C 19.68005 15.42574 0.02239
C 20.78942 14.57037 0.01153
C 21.04325 13.25654 0.02734
C 19.62781 12.71583 -0.0055
C 19.5531 11.28845 0.01515
C 19.72038 21.12547 0.03046
C 20.87052 10.79458 -0.00225
C 19.57627 8.42611 -0.01107
C 19.70755 7.02417 -0.01586
C 20.96879 6.34067 -0.01971
C 20.8883 4.8997 -0.02118
C 19.62681 4.26844 0.00733
C 19.63553 2.80974 -0.00178
C 20.82793 2.17985 0.00768
C 20.88836 0.73541 -0.0276
C 19.71408 0.00837 0.03005
C 20.8671 9.16172 0.00071
C 22.02574 32.72252 -0.04078
C 20.90627 21.93158 -0.00381
C 19.63472 24.01879 0.01126
C 17.19745 11.22987 -0.00652
C 18.38884 10.47856 0.0058
C 18.42011 9.13253 -0.00865
C 17.20317 8.45885 0.00675
C 17.23535 7.02794 -0.00311
C 18.50318 6.31264 0.00742
C 18.40304 4.94962 -0.01594
C 17.15784 4.15611 0.0106
C 17.21169 2.7454 -0.01154
C 20.90286 23.36648 0.01852
C 18.39726 2.12235 -0.01721
C 17.17725 0.09836 0.01277
C 19.59278 32.64268 0.00096
C 20.83676 31.93022 -0.01527
C 20.78646 30.43409 0.01087
C 19.56622 29.73569 0.00199
C 19.61424 28.34958 0.01511
C 20.82143 27.65045 -0.00478
C 20.86828 26.26029 -0.01662
C 19.60333 25.46265 -0.01185
C 18.41662 0.75105 -0.02422
C 18.427 13.38196 -0.00703
C 23.30253 31.96067 0.02117
C 22.01728 29.70368 -0.00498
C 24.60643 29.80651 -0.02815
C 24.51792 28.39086 -0.00942
C 25.82672 27.72309 0.00487
C 25.84637 26.25001 0.00826
C 24.65813 25.51034 -0.00294
C 24.58336 24.06695 0.00152
C 25.77925 23.26832 0.01257
C 25.57399 21.64611 0.02316
C 24.27558 21.07855 0.04185
C 25.86315 30.59895 0.00622
C 24.47739 8.53122 0.00194
C 25.88897 6.4035 0.02611
C 25.75069 4.99634 0.02198
C 24.60092 4.29316 0.01094
C 24.55052 2.87127 0.00235
C 25.77022 2.11587 0.01495
C 25.83377 0.66069 0.01259
C 24.61072 0.03556 0.01799
C 26.97953 32.67532 0.01699
C 28.20285 31.9785 -0.00416
C 24.59848 7.07795 -0.00621
C 23.3626 30.49797 0.02737
C 25.75701 31.97031 -0.0032
C 22.2003 0.05124 -0.01654
C 22.02379 28.36996 0.00135
C 23.25943 27.66716 0.03102
C 23.33556 26.25507 0.02555
C 22.0721 25.55024 0.01423
C 22.10638 24.06676 -0.00285
C 23.31933 23.41636 -0.009
C 23.27569 22.01634 -0.01199
C 22.09398 21.31548 -0.00229
C 22.36395 19.82947 -0.00938
C 24.49605 32.67242 -0.00037
C 23.88533 19.85766 -0.0264
C 23.27016 9.1732 0.00684
C 22.08585 8.57419 -0.01052
C 22.13669 7.07386 -0.01679
C 23.41275 6.3183 0.00367
C 23.31087 4.92943 0.04306
C 22.02105 4.25543 0.00996
C 22.11617 2.86839 0.00195
C 23.34637 2.09867 -0.00802
C 23.42184 0.75933 -0.00218
C 21.88145 11.73446 -0.01154
C 2.37437 32.69727 -0.003
