344
Graphene
C 34.3827 34.07207 0.01295
C 9.93342 8.54805 0.02098
C 9.75683 7.23221 0.01848
C 10.94309 6.48901 -0.00619
C 11.19889 5.14989 -0.02162
C 9.91227 4.35739 0.00889
C 9.8172 2.91226 -0.00481
C 10.97022 2.09673 0.00979
C 11.04341 0.73231 0.01443
C 9.72549 34.06881 0.03505
C 12.31063 32.67569 -0.02815
C 13.56671 32.00595 -0.04147
C 13.55563 30.56192 -0.05302
C 12.33258 29.83282 0.00213
C 12.38205 28.43198 -0.00066
C 13.51661 27.65001 -0.00289
C 13.5724 26.20655 0.00028
C 12.30388 25.51979 -0.02213
C 11.05367 19.12822 -0.03113
C 9.81451 19.75361 0.0351
C 9.77244 21.19442 0.00422
C 11.0158 21.92705 0.00798
C 7.33329 7.1991 0.03542
C 8.5868 6.4946 0.02299
C 8.62658 5.05205 0.00244
C 7.39149 4.36782 -0.01717
C 7.34754 2.93763 0.05265
C 8.54337 2.21225 -0.01952
C 8.53255 0.80216 -0.02813
C 7.37053 0.03418 0.00374
C 12.3015 24.11713 0.03698
C 9.84974 32.71451 0.00052
C 11.10929 30.56365 0.01965
C 9.84542 29.75998 0.02058
C 9.86784 28.42696 -0.01957
C 11.13827 27.73951 -0.0108
C 11.08563 26.3005 -0.00368
C 9.83005 25.5879 -0.02696
C 9.81958 24.08046 -0.00114
C 11.00343 23.33685 0.00228
C 11.1304 31.96479 -0.03682
C 7.40561 8.67335 0.01416
C 13.50347 23.31076 -0.00109
C 12.26174 21.28353 0.03338
C 14.73333 0.09136 0.00654
C 17.26693 32.73519 -0.00703
C 18.47422 31.91908 -0.04076
C 18.46697 30.51161 -0.00652
C 17.18874 29.799 0.0058
C 17.17294 28.39381 -0.00865
C 18.39972 27.68069 0.00675
C 18.4185 26.3035 -0.00311
C 17.14785 25.53086 0.00742
C 17.18303 24.10511 -0.01594
C 18.4094 23.42375 0.0106
C 18.36653 21.9895 -0.01154
C 17.15001 21.35947 -0.01721
C 17.03284 19.90449 -0.02422
C 18.56009 0.70054 0.01277
C 17.32063 0.05167 0.00096
C 19.66253 32.66175 -0.01527
C 16.01607 0.74579 -0.04422
C 15.77034 2.11228 -0.02957
C 14.75758 2.69053 -0.00831
C 14.92383 19.86503 0.00364
C 12.21764 19.87332 -0.0258
C 12.12587 4.21748 -0.0331
C 12.18521 2.83112 -0.00316
C 13.37029 2.09762 0.02188
C 13.48858 0.70948 -0.01979
C 12.28151 0.04675 0.02691
C 14.75317 32.71811 -0.01581
C 16.02853 32.06531 0.01452
C 13.52298 21.93694 -0.00491
C 16.03283 30.58251 0.04892
C 14.78039 28.30384 -0.03557
C 16.01113 27.70464 0.03754
C 15.94097 26.2668 0.01739
C 14.7167 25.53262 0.00755
C 14.75695 24.12478 -0.0054
C 15.97006 23.38625 0.00667
C 15.90728 21.94227 0.00143
C 14.73804 21.2299 -0.017
C 14.7522 29.82932 -0.00111
C 20.88124 31.90388 0.01087
C 8.70669 9.3348 0.01945
C 7.45989 11.42159 0.01241
C 2.47728 7.11619 0.00895
C 3.65163 6.4433 0.00685
C 3.70735 4.96186 0.02888
C 2.45329 4.28035 -0.00482
C 2.45289 2.81753 -0.01384
C 3.72047 2.16979 0.03693
C 3.72379 0.74813 0.01745
C 2.44728 0.02425 0.00488
C 4.88562 32.72026 -0.01004
C 6.17647 31.98915 -0.02896
C 6.13986 30.54302 -0.00131
C 4.86412 29.81077 -0.01118
C 4.8151 28.40355 -0.014
C 6.08879 27.69703 0.02147
C 6.11774 26.29479 0.00373
C 4.88169 25.57222 -0.00191
C 4.86698 24.10713 0.00438
C 2.46222 8.50687 0.00393
C 3.66307 9.25262 0.0288
C 3.71067 10.67453 -0.0008
C 2.48215 11.40541 -0.01362
C 3.63201 30.59514 0.00873
C 2.36638 29.84848 -0.00049
C 2.43043 28.47768 0.00848
C 3.65487 27.68481 -0.01303
C 3.59919 26.28346 -0.01378
C 2.38703 25.55988 0.02635
C 2.38882 24.1582 0.0127
C 3.64503 23.39976 0.01396
C 6.1002 23.4485 0.01291
C 3.62132 22.04173 0.01849
C 2.38014 19.85749 -0.00562
C 3.59399 19.15344 -0.00494
C 3.68707 17.71473 0.00054
C 2.46937 17.07003 0.03007
C 2.44274 15.59921 -0.00095
C 3.68513 14.91331 0.01572
C 3.71679 13.52399 -0.04848
C 2.5305 12.78046 -0.00892
C 2.40317 21.27013 -0.01142
C 8.56542 10.61124 -0.01454
C 6.10379 21.99387 0.00093
C 4.89903 19.90609 -0.01634
C 7.34815 29.78422 -0.02689
C 7.37214 28.38092 -0.01046
C 8.68661 27.76738 -0.00891
C 8.61975 26.32401 0.02819
C 7.42341 25.571 0.00165
C 7.37396 24.0975 -0.02971
C 8.56388 23.30057 0.02894
C 8.61477 21.92225 -0.01789
C 7.35665 21.27755 0.00444
C 7.36919 19.8685 -0.00925
C 8.56371 19.13485 0.01877
C 8.64146 17.6935 0.01363
C 7.36186 17.0841 -0.02162
C 7.29488 15.75079 0.00415
C 8.45591 14.76862 -0.0014
C 8.68387 13.59165 0.02162
C 7.49078 12.78832 0.0076
C 8.60397 30.565 -0.01536
C 8.51482 31.94187 0.03101
C 7.32957 32.78954 -0.00428
C 4.93565 0.05108 -0.02245
C 6.17617 19.11795 -0.00334
C 6.12549 17.75437 0.02339
C 4.93807 17.0132 0.01641
C 4.94159 15.5948 -0.00719
C 6.19519 14.91819 0.01364
C 6.31328 13.57768 -0.01062
C 5.05404 12.82935 -0.00033
C 4.97964 11.39276 0.03589
C 4.90062 21.27557 0.00057
C 6.22241 10.68648 -0.02759
C 4.881 8.48549 0.00572
C 4.86631 7.10071 0.03592
C 6.07031 6.45174 0.00406
C 6.10481 4.97368 0.00943
C 4.88762 4.30302 0.02841
C 4.95022 2.88603 -0.01111
C 6.18133 2.19155 -0.01275
C 6.18862 0.78519 0.00985
C 6.13877 9.33818 0.0402
C 20.94159 30.47443 0.00199
C 19.6383 29.7642 0.01511
C 19.61795 28.4264 -0.00478
C 31.96505 29.80969 -0.02142
C 31.95145 28.36203 0.0544
C 33.11684 27.68555 0.00026
C 33.17126 26.24316 0.00682
C 31.94777 25.52975 -0.01779
C 31.94555 24.12595 0.03794
C 33.13427 23.36819 0.01927
C 33.12782 21.94615 0.01574
C 31.94253 21.26636 -0.02383
C 32.00516 19.89447 -0.01429
C 33.24119 19.1498 -0.0136
C 33.16528 17.79716 0.00594
C 31.9133 17.08862 -0.02474
C 32.00178 15.68445 0.00369
C 33.20478 14.96227 0.00455
C 33.20593 13.56468 -0.00644
C 31.94977 12.82625 -0.01839
C 33.16441 30.52677 0.01428
C 33.19861 31.97872 -0.01694
C 31.95059 32.65301 0.01713
C 29.57875 0.08317 0.00346
C 30.70154 19.17195 0.03531
C 30.7273 17.81832 -0.00669
C 29.47597 17.08224 0.0101
C 29.46937 15.65825 0.01705
C 30.75029 14.94477 -0.0405
C 30.75823 13.45005 -0.01303
C 29.49018 12.79525 -0.01461
C 29.51837 11.36851 -0.02155
C 31.92271 11.33213 0.00137
C 30.70955 10.65757 -0.00944
C 29.48738 8.43465 -0.00971
C 29.50409 6.9811 0.01518
C 30.74727 6.42257 0.01908
C 30.72456 4.95409 0.07705
C 29.39517 4.23647 0.0103
C 29.39808 2.84796 0.02108
C 30.75178 2.18353 0.00716
C 30.77724 0.78276 0.00307
C 30.69334 9.28275 -0.03735
C 29.44983 19.87724 0.01836
C 33.17477 10.64884 0.00199
C 31.91798 8.50893 0.02806
C 1.24416 17.72189 0.01223
C 34.39662 17.03122 0.00648
C 0.01324 15.67293 0.02114
C 1.22477 14.91474 -0.02957
C 1.20909 13.57142 0.00343
C 0.01132 12.79226 -0.02656
C 34.42058 11.35484 -0.02442
C 1.27988 10.68953 -0.00027
C 1.25888 9.18719 -0.00583
C 34.4206 8.55593 -0.02302
C 0.02704 7.12139 -0.02849
C 1.22467 6.38351 0.02931
C 1.28071 4.99055 0.00628
C 0.04867 4.25986 -0.0345
C 0.01326 2.86785 -0.00931
C 1.18775 2.08309 -0.00939
C 1.18124 0.6743 -0.00468
C 1.15175 19.2113 -0.01678
C 34.37229 19.92296 0.01951
C 34.33876 21.29845 -0.02213
C 1.16554 21.99804 0.02712
C 31.99408 7.14554 0.01504
C 33.27871 6.39466 -0.00069
C 33.2412 4.91269 0.04926
C 32.00213 4.28085 -0.03838
C 31.9942 2.86768 0.00349
C 33.21945 2.12732 -0.00323
C 33.18415 0.69886 -0.00841
C 31.99781 0.09752 0.0001
C 33.1564 9.2085 0.04381
C 34.40576 32.64118 -0.02927
C 1.15314 30.59171 0.01027
C 34.3911 29.81638 0.01831
C 34.35916 28.47583 -0.01037
C 1.20239 27.75837 -0.00439
C 1.2005 26.35946 -0.00598
C 34.42463 25.55535 -0.05239
C 34.38964 24.08863 0.03076
C 1.14372 23.37933 0.00723
C 1.20305 32.02309 -0.01404
C 29.45347 21.29431 -0.03039
C 30.63549 22.04961 -0.01415
C 30.70803 23.44175 -0.01854
C 22.22862 19.93122 -0.00178
C 23.28122 19.3449 0.00768
C 23.61287 2.06498 -0.0276
C 23.44138 0.62738 0.03005
C 22.14676 34.06135 -0.04078
C 24.62354 32.53904 0.02117
C 25.91487 31.90153 0.02737
C 25.88109 30.5104 -0.00498
C 24.6045 29.82646 0.00135
C 24.60578 28.41202 0.03102
C 25.81394 27.68066 0.02555
C 25.80587 26.33303 0.01423
C 24.60311 25.57425 -0.00285
C 24.54282 24.16044 -0.009
C 25.76241 23.44987 -0.01199
C 25.68455 22.0651 -0.00229
C 24.53388 21.37255 -0.00938
C 22.05033 21.39888 0.00733
C 23.27682 22.01855 -0.02118
C 23.32879 23.44113 -0.01971
C 22.04 24.08272 -0.01586
C 20.82846 27.75336 -0.01662
C 20.87103 26.32769 -0.01185
C 19.6506 25.53239 0.01126
C 19.6283 24.14511 0.01852
C 20.80396 23.39608 -0.00381
C 20.75341 22.04126 0.03046
C 19.58786 21.25048 0.0296
C 21.09067 2.1479 0.03374
C 24.668 19.95706 -0.0264
C 21.01595 0.75016 -0.02845
C 22.17159 32.71522 0.02239
C 23.40023 31.92504 0.01153
C 23.31962 30.49218 0.02734
C 22.12497 29.78127 -0.0055
C 22.12239 28.4139 0.01515
C 23.33503 27.72254 -0.00225
C 23.32142 26.29503 0.00071
C 22.08813 25.50425 -0.01107
C 19.78767 0.02664 -0.03213
C 25.81613 19.19814 -0.01154
C 25.70132 17.77575 0.00684
C 25.47529 2.05945 -0.01052
C 28.19501 9.0493 0.02611
C 27.09697 7.23893 0.02198
C 28.26733 6.35987 0.01094
C 28.12651 4.98201 0.00235
C 27.02746 4.2142 0.01495
C 26.6733 2.92001 0.01259
C 28.0577 2.18648 0.01799
C 28.22775 0.76305 0.01699
C 28.48346 10.36403 -0.00621
C 27.03128 34.07111 -0.00416
C 30.79494 31.94738 0.04266
C 30.719 30.56883 0.01324
C 29.52411 29.77701 0.0014
C 29.51874 28.35477 0.00924
C 30.73572 27.66965 0.02326
C 30.71837 26.23062 0.00261
C 29.51827 25.55841 0.03265
C 29.47732 24.14391 -0.02049
C 29.50601 32.67187 0.01177
C 3.6751 31.98916 0.01227
C 28.27801 13.44572 0.00194
C 27.38485 15.84719 0.02316
C 25.7751 0.65477 -0.01679
C 24.60775 33.95019 0.00367
C 27.09732 32.65925 0.04306
C 28.30711 31.94634 0.00996
C 28.29836 30.51453 0.00195
C 27.06094 29.87264 -0.00802
C 27.07869 28.40274 -0.00218
C 28.3008 27.65772 -0.01654
C 28.22935 14.85741 0.04185
C 28.23827 26.22789 -0.00037
C 26.94242 24.18812 0.00622
C 28.25539 23.51737 -0.02815
C 28.21095 22.09134 -0.00942
C 26.95175 21.31473 0.00487
C 26.99556 19.88595 0.00826
C 28.17558 19.19182 -0.00294
C 28.25503 17.72747 0.00152
C 26.84048 17.04018 0.01257
C 27.03015 25.60347 -0.0032
C 2.4612 32.65902 -0.03337
