362
Graphene
C 34.38268 0.02893 0.01295
C 9.83669 11.34668 0.01965
C 11.00662 10.78505 0.02058
C 11.20591 9.32239 -0.01957
C 9.90016 8.52859 -0.0108
C 9.85225 7.16658 -0.00368
C 11.0244 6.39111 -0.02696
C 11.0756 4.99838 -0.00114
C 9.84026 4.34627 0.00228
C 9.67021 12.65516 -0.03682
C 9.81791 2.86559 0.00798
C 11.13883 0.78742 0.0351
C 9.93238 34.01189 -0.03113
C 12.298 32.66287 0.02098
C 13.58273 31.91971 0.01848
C 13.52947 30.57436 -0.00619
C 12.27011 29.92069 -0.02162
C 12.23278 28.42237 0.00889
C 13.41428 27.7152 -0.00481
C 11.13783 2.12095 0.00422
C 10.90466 13.55471 0.00052
C 10.98734 14.74417 0.00374
C 9.83966 15.56667 -0.02813
C 8.57347 2.15151 0.00444
C 8.5685 0.69294 -0.00925
C 7.40419 0.04468 0.01877
C 9.82124 32.65643 0.01363
C 11.03371 31.99657 -0.02162
C 11.03155 30.5976 0.00415
C 9.7945 29.87834 -0.0014
C 9.79443 28.44511 0.02162
C 10.99281 27.72493 0.0076
C 10.9812 26.32754 0.01241
C 9.77419 25.52913 -0.01454
C 9.84319 24.18779 0.01945
C 11.06273 23.42958 0.01416
C 11.11598 22.03217 0.03542
C 9.87026 21.32949 0.02299
C 9.96656 19.83648 0.00244
C 11.12588 19.14104 -0.01717
C 11.18227 17.76165 0.05265
C 9.91441 16.98297 -0.01952
C 13.42044 26.31625 0.00979
C 7.34765 2.90043 -0.01789
C 12.26338 25.62908 0.01443
C 13.40558 23.48027 -0.02815
C 15.92536 23.48863 0.01739
C 15.80359 22.11989 0.00755
C 14.8163 21.4187 -0.0054
C 14.94031 6.84127 0.00667
C 15.94663 6.17188 0.00143
C 16.14132 4.72202 -0.017
C 14.74579 4.19239 0.00364
C 14.77337 2.83987 -0.00831
C 14.60924 24.18848 0.03754
C 16.02993 2.11283 -0.02957
C 14.85621 34.05615 0.00654
C 17.2484 32.64822 -0.00703
C 18.40491 31.89244 -0.04076
C 18.32848 30.43848 -0.00652
C 17.08871 29.77813 0.0058
C 17.11605 28.40607 -0.00865
C 18.38265 27.64478 0.00675
C 18.41311 26.19543 -0.00311
C 16.01063 0.7222 -0.04422
C 14.68038 25.63123 -0.03557
C 15.87959 26.30272 -0.00111
C 15.93707 27.73634 0.04892
C 13.43201 22.06928 -0.04147
C 12.29753 21.33598 -0.05302
C 12.35646 19.87809 0.00213
C 13.58308 19.0306 -0.00066
C 12.41905 17.08537 -0.00289
C 12.36352 8.45978 0.00028
C 12.2364 7.06841 -0.02213
C 13.52608 6.36151 0.03698
C 13.54818 4.95367 -0.00109
C 12.34761 4.28984 -0.00491
C 12.29938 2.90501 0.03338
C 13.59068 2.11419 -0.0258
C 13.65023 0.71171 -0.0331
C 12.30949 0.02887 -0.00316
C 14.81604 32.5751 0.02188
C 16.01773 31.95056 -0.01979
C 15.93237 30.53491 0.02691
C 14.72222 29.82964 -0.01581
C 14.74993 28.42182 0.01452
C 12.25308 24.21901 0.03505
C 7.32619 4.34855 0.02894
C 8.60199 5.02007 -0.02971
C 8.57745 6.42415 0.00165
C 3.65562 6.53445 0.02635
C 3.62614 5.11148 0.0127
C 2.46109 4.38062 0.01396
C 2.41382 2.94412 0.01849
C 3.5969 2.24061 -0.01142
C 3.68082 0.72979 -0.00562
C 2.43355 0.06631 -0.00494
C 4.83119 32.6693 0.00054
C 2.39758 7.18976 -0.01378
C 6.14762 31.98837 0.03007
C 4.90717 29.89867 0.01572
C 4.90198 28.43818 -0.04848
C 6.15788 27.68993 -0.00892
C 6.17945 26.29641 -0.01362
C 4.90582 25.63584 -0.0008
C 4.97534 24.11274 0.0288
C 6.19957 23.45198 0.00393
C 6.15007 22.01006 0.00895
C 6.13995 30.62594 -0.00095
C 2.41988 8.62608 -0.01303
C 3.66563 9.35253 0.00848
C 3.62688 10.72839 -0.00049
C 3.66209 30.5267 0.017
C 2.43447 29.88616 -0.03113
C 2.42966 28.41323 -0.02566
C 3.66173 27.74698 -0.00094
C 3.65051 26.27724 0.02322
C 2.46252 25.61142 -0.00725
C 2.42302 24.16638 -0.05697
C 3.63699 23.39155 0.01087
C 3.68423 22.02652 -0.01343
C 2.46724 21.25681 0.00988
C 2.49273 19.8255 0.0276
C 3.73763 19.21747 0.01305
C 3.80458 17.79591 -0.00077
C 2.48113 16.99853 0.03368
C 2.50668 15.59211 -0.02929
C 3.70397 14.89282 -0.00966
C 3.67215 13.59186 -0.03337
C 2.39048 12.84615 0.01227
C 2.32349 11.38913 0.00873
C 4.97225 21.28908 0.00685
C 4.98969 19.80539 0.02888
C 6.24385 19.19236 -0.00482
C 6.23316 17.82083 -0.01384
C 8.61222 26.32468 0.03589
C 7.39346 25.60919 -0.02759
C 7.38807 24.14714 0.0402
C 8.62572 23.50367 0.00572
C 8.6604 22.10654 0.03592
C 7.39682 21.2914 0.00406
C 7.47945 19.89144 0.00943
C 8.67841 19.14948 0.02841
C 8.65346 17.72177 -0.01111
C 7.45861 17.00425 -0.01275
C 7.4111 15.59096 0.00985
C 8.59199 14.9745 -0.02245
C 8.54147 13.49384 -0.00428
C 7.36494 12.78165 0.03101
C 7.30143 11.36646 -0.01536
C 8.49541 10.59193 -0.02689
C 8.63653 9.20373 -0.01046
C 7.36813 8.49399 -0.00891
C 7.35292 7.09225 0.02819
C 8.60824 27.71987 -0.00033
C 17.10796 25.52941 0.00742
C 7.32658 28.49338 -0.01062
C 8.61338 30.55128 -0.00719
C 4.97355 17.05405 0.03693
C 4.98305 15.68602 0.01745
C 6.1524 14.90549 0.00488
C 6.15658 13.48505 -0.01004
C 4.88592 12.87378 -0.02896
C 4.89191 11.42447 -0.00131
C 6.04174 10.7284 -0.01118
C 6.06398 9.22739 -0.014
C 4.83784 8.61564 0.02147
C 4.86238 7.2291 0.00373
C 6.10245 6.44917 -0.00191
C 6.07866 5.03982 0.00438
C 4.80801 4.34523 0.01291
C 4.84715 2.95076 0.00093
C 6.13572 2.18026 0.00057
C 6.15859 0.73781 -0.01634
C 4.87838 0.06567 -0.00334
C 7.36532 32.72339 0.02339
C 8.61707 31.94068 0.01641
C 7.30214 29.88967 0.01364
C 17.1171 24.11984 -0.01594
C 18.40969 23.32188 0.0106
C 18.46471 21.96773 -0.01154
C 29.42201 0.01745 0.00346
C 31.89501 32.70384 0.01713
C 33.13184 32.04064 -0.01694
C 33.13295 30.56086 0.01428
C 31.82559 29.97463 -0.02142
C 31.84653 28.50688 0.0544
C 33.14524 27.7268 0.00026
C 33.19336 26.29948 0.00682
C 30.69406 0.66317 0.00307
C 31.89217 25.60119 -0.01779
C 33.07371 23.4131 0.01927
C 33.2293 22.08532 0.01574
C 31.93677 21.27668 -0.02383
C 32.00531 19.86008 -0.01429
C 33.26318 19.14627 -0.0136
C 33.22628 17.74908 0.00594
C 31.97546 17.01065 -0.02474
C 31.95136 15.56272 0.00369
C 31.86841 24.21673 0.03794
C 30.75218 2.11818 0.00716
C 29.50026 2.86367 0.02108
C 29.49729 4.31908 0.0103
C 29.47389 24.2175 -0.02049
C 30.67761 23.45052 -0.01854
C 30.66851 22.0018 -0.01415
C 29.4428 21.34575 -0.03039
C 29.45306 19.88438 0.01836
C 30.7346 19.12504 0.03531
C 30.75554 17.72811 -0.00669
C 29.45187 17.13054 0.0101
C 29.53848 15.70949 0.01705
C 30.70203 14.84771 -0.0405
C 30.75871 13.48341 -0.01303
C 29.49578 12.72351 -0.01461
C 29.52429 11.34694 -0.02155
C 30.74974 10.62407 -0.00944
C 30.70818 9.18232 -0.03735
C 29.44983 8.53197 -0.00971
C 29.46095 7.17478 0.01518
C 30.7515 6.33083 0.01908
C 30.70893 4.92575 0.07705
C 33.13928 14.9813 0.00455
C 33.15689 13.52546 -0.00644
C 31.94562 12.77811 -0.01839
C 31.9364 11.32227 0.00137
C 0.03312 19.91166 0.01951
C 1.23715 19.15691 -0.01678
C 1.22582 17.76581 0.01223
C 0.04756 17.03667 0.00648
C 34.36939 15.61748 0.02114
C 1.15091 14.89742 -0.02957
C 1.17556 13.44678 0.00343
C 34.34532 12.82142 -0.02656
C 34.39306 11.42061 -0.02442
C 1.14035 10.66272 -0.00027
C 1.18339 9.21113 -0.00583
C 34.39977 8.57163 -0.02302
C 34.36742 7.09498 -0.02849
C 1.20245 6.46848 0.02931
C 1.17866 5.0315 0.00628
C 0.01861 4.35323 -0.0345
C 34.40373 2.91607 -0.00931
C 1.16656 2.24331 -0.00939
C 1.1861 0.73571 -0.00468
C 0.00055 21.33251 -0.02213
C 29.46834 25.58803 0.03265
C 1.26583 22.01106 0.02712
C 34.41167 24.15501 0.03076
C 33.15356 10.65616 0.00199
C 33.14754 9.25212 0.04381
C 31.96094 8.46203 0.02806
C 32.01207 7.01414 0.01504
C 33.14337 6.34638 -0.00069
C 33.20816 4.99556 0.04926
C 32.00214 4.2679 -0.03838
C 31.98169 2.82494 0.00349
C 33.21226 2.12755 -0.00323
C 33.19128 0.77994 -0.00841
C 31.97379 0.03287 0.0001
C 34.31572 32.69516 -0.02927
C 1.19444 32.03448 -0.01404
C 1.19322 30.55336 0.01027
C 34.35359 29.87843 0.01831
C 34.3336 28.46575 -0.01037
C 1.1722 27.75408 -0.00439
C 1.18235 26.349 -0.00598
C 34.41528 25.59077 -0.05239
C 1.1999 23.42806 0.00723
C 3.63093 31.98558 -0.00643
C 30.65756 26.34538 0.00261
C 29.35522 28.44686 0.00924
C 23.27174 27.64427 0.01515
C 23.22588 26.2105 -0.00225
C 22.06875 25.42141 0.00071
C 22.12652 23.99156 -0.01107
C 23.33656 23.25523 -0.01586
C 23.31412 21.84136 -0.01971
C 22.15041 2.78045 -0.02118
C 23.41349 2.15453 0.00733
C 22.01195 28.25955 -0.0055
C 23.33276 0.71869 -0.00178
C 24.45656 32.72655 -0.0276
C 25.71574 31.96575 0.03005
C 25.7586 30.47835 -0.04078
C 24.5417 29.77505 0.02117
C 24.5212 28.33829 0.02737
C 25.71296 27.57768 -0.00498
C 25.74743 26.20069 0.00135
C 24.48447 25.49322 0.03102
C 22.16142 34.05995 0.00768
C 22.11388 29.73701 0.02734
C 23.27996 30.49821 0.01153
C 23.30355 31.88913 0.02239
C 17.19567 2.86344 -0.01721
C 18.38143 2.20746 -0.02422
C 18.45892 0.72705 0.01277
C 17.22083 0.01308 0.00096
C 19.65782 32.58783 -0.01527
C 20.86215 31.88887 0.01087
C 20.78618 30.44639 0.00199
C 19.59796 29.72007 0.01511
C 19.62155 28.34868 -0.00478
C 20.87416 27.549 -0.01662
C 20.90049 26.15988 -0.01185
C 19.60487 25.46478 0.01126
C 19.60242 24.03931 0.01852
C 20.9091 23.31974 -0.00381
C 20.92966 21.94679 0.03046
C 21.1137 2.07757 0.0296
C 20.92113 0.61008 0.03374
C 19.68414 33.96163 -0.02845
C 22.09727 32.66426 -0.03213
C 24.51211 24.04605 0.02555
C 25.6888 23.35042 0.01423
C 25.7831 21.94877 -0.00285
C 24.64865 21.05657 -0.009
C 28.22907 17.75753 0.00152
C 27.04489 16.91933 0.01257
C 28.34789 14.86899 0.02316
C 28.32597 13.66189 0.04185
C 28.37763 10.63155 0.00194
C 28.14747 9.25916 -0.00621
C 26.98458 8.38144 0.02611
C 27.10368 7.05186 0.02198
C 28.37715 6.3846 0.01094
C 28.29681 4.99249 0.00235
C 27.05694 4.2648 0.01495
C 26.90082 2.85832 0.01259
C 28.23999 2.14917 0.01799
C 28.20634 0.74384 0.01699
C 26.99438 0.04642 -0.00416
C 29.44407 32.687 0.01177
C 30.67063 31.98009 0.04266
C 30.6088 30.62663 0.01324
C 29.38219 29.88327 0.0014
C 28.21757 19.17105 -0.00294
C 30.67105 27.79716 0.02326
C 26.97659 19.90219 0.00826
C 28.21472 22.11046 -0.00942
C 25.62595 19.48485 -0.01199
C 24.86216 7.29816 -0.00229
C 25.89422 6.32941 -0.00938
C 25.7802 4.90107 -0.0264
C 24.63811 4.32059 -0.01154
C 24.52681 2.90099 0.00684
C 25.80167 2.15033 -0.01052
C 25.7273 0.73674 -0.01679
C 24.56978 0.00528 0.00367
C 26.93758 32.6654 0.04306
C 28.11222 31.94781 0.00996
C 28.16876 30.53218 0.00195
C 26.99003 29.79366 -0.00802
C 26.90937 28.41468 -0.00218
C 28.15333 27.72131 -0.01654
C 28.19138 26.26508 -0.00037
C 27.02934 25.50024 -0.0032
C 26.99749 24.11197 0.00622
C 28.25602 23.50806 -0.02815
C 27.06606 21.32527 0.00487
C 2.43426 32.74149 0.0086
