394
Graphene
C 0.01406 0.01987 0.01295
C 11.0955 0.69098 -0.00925
C 9.8059 0.04744 0.01877
C 12.31324 32.68058 0.01363
C 13.54647 31.9145 -0.02162
C 13.5358 30.56571 0.00415
C 12.32564 29.84224 -0.0014
C 12.27324 28.38522 0.02162
C 13.50112 27.65962 0.0076
C 13.50563 26.19399 0.01241
C 11.05613 2.11028 0.00444
C 12.33932 25.55667 -0.01454
C 13.53334 23.43374 0.01416
C 13.54365 22.00368 0.03542
C 12.366 21.28126 0.02299
C 12.28845 19.92548 0.00244
C 13.54115 19.14834 -0.01717
C 13.54396 17.68358 0.05265
C 12.24309 16.99372 -0.01952
C 12.32599 15.56208 -0.02813
C 13.50143 14.88281 0.00374
C 12.27035 24.17353 0.01945
C 9.83539 2.82793 -0.01789
C 9.81695 4.28581 0.02894
C 11.01688 5.02516 -0.02971
C 11.074 27.72147 -0.00033
C 11.0736 26.28102 0.03589
C 9.84663 25.56064 -0.02759
C 9.8543 24.15708 0.0402
C 11.04673 23.43721 0.00572
C 11.05405 22.02614 0.03592
C 9.84465 21.32646 0.00406
C 9.83465 19.92368 0.00943
C 11.04136 19.19616 0.02841
C 11.04708 17.78863 -0.01111
C 9.85213 17.03558 -0.01275
C 9.85313 15.61824 0.00985
C 11.08228 14.93815 -0.02245
C 11.1042 13.49944 -0.00428
C 9.81629 12.74623 0.03101
C 9.81811 11.36576 -0.01536
C 11.07463 10.62427 -0.02689
C 11.04951 9.24284 -0.01046
C 9.88885 8.50673 -0.00891
C 9.91081 7.10046 0.02819
C 11.07655 6.41997 0.00165
C 13.52754 13.49036 0.00052
C 9.82884 28.49896 -0.01062
C 12.30838 12.81357 -0.03682
C 13.51798 10.58436 0.02058
C 14.8 17.01682 0.00028
C 14.78213 15.64815 -0.02213
C 15.9884 14.89655 0.03698
C 15.95725 13.45407 -0.00109
C 14.73798 12.7699 -0.00491
C 14.7485 11.33315 0.03338
C 16.0363 10.69398 -0.0258
C 15.98385 9.18795 -0.0331
C 14.74098 8.54451 -0.00316
C 15.99696 17.74615 -0.00289
C 14.77944 7.07006 0.02188
C 15.95726 5.00258 0.02691
C 14.75181 4.25098 -0.01581
C 14.77006 2.81147 0.01452
C 16.0052 2.09107 0.04892
C 15.99872 0.73895 -0.00111
C 14.71736 34.05593 -0.03557
C 17.21047 32.67085 0.03754
C 18.42348 31.95802 0.01739
C 18.41285 30.55094 0.00755
C 15.99903 6.39602 -0.01979
C 16.00224 19.14013 -0.00066
C 14.75788 19.86835 0.00213
C 14.76392 21.34053 -0.05302
C 13.51434 9.25347 -0.01957
C 12.32741 8.5378 -0.0108
C 12.31268 7.11018 -0.00368
C 13.53902 6.33397 -0.02696
C 13.51074 4.94146 -0.00114
C 12.28659 4.27554 0.00228
C 12.31812 2.8541 0.00798
C 13.47823 2.15379 0.00422
C 13.5098 0.69662 0.0351
C 12.25936 34.07015 -0.03113
C 14.75065 32.6376 0.02098
C 15.95619 31.93277 0.01848
C 15.99326 30.55333 -0.00619
C 14.7791 29.8286 -0.02162
C 14.73008 28.40453 0.00889
C 15.96361 27.66392 -0.00481
C 15.94759 26.25107 0.00979
C 14.77604 25.5578 0.01443
C 14.71607 24.1107 0.03505
C 16.00117 23.4121 -0.02815
C 16.03787 22.03925 -0.04147
C 12.28337 11.40105 0.01965
C 9.85083 29.81554 0.01364
C 11.07942 30.549 -0.00719
C 11.06673 31.97792 0.01641
C 2.47386 4.29683 0.01996
C 2.47278 2.8023 -0.03996
C 3.68793 2.14342 0.01465
C 3.66687 0.72388 -0.00074
C 2.45409 0.00186 -0.00518
C 4.94539 32.6648 0.0086
C 6.14367 31.98432 -0.00643
C 6.15335 30.52273 0.017
C 4.94256 29.83363 -0.03113
C 3.65689 5.01237 -0.00279
C 4.93276 28.4105 -0.02566
C 6.08989 26.2962 0.02322
C 4.94959 25.54672 -0.00725
C 4.90548 24.12924 -0.05697
C 6.13026 23.44434 0.01087
C 6.12379 22.02695 -0.01343
C 4.93166 21.27237 0.00988
C 4.93041 19.92072 0.0276
C 6.12782 19.17703 0.01305
C 6.19103 17.75286 -0.00077
C 6.14205 27.68539 -0.00094
C 3.66091 6.36797 0.01226
C 2.4226 7.14957 0.03828
C 2.45784 8.52927 0.0174
C 3.71288 30.50258 -0.00561
C 2.45635 29.83894 0.00208
C 2.50414 28.40219 0.01707
C 3.68758 27.70109 0.02769
C 3.75906 26.23696 -0.03291
C 2.42145 25.5223 -0.04999
C 2.46095 24.17866 0.04505
C 3.65121 23.43503 0.03284
C 3.65962 21.99894 -0.04307
C 2.46019 21.30461 0.03189
C 2.45843 19.8231 0.00031
C 3.71104 19.20159 -0.003
C 3.68848 17.79334 0.01402
C 2.45096 17.08116 0.02379
C 2.45614 15.64603 0.00907
C 3.66145 14.88002 0.00643
C 3.66084 13.48053 -0.01509
C 2.49342 12.76786 0.03267
C 2.48351 11.35151 0.02374
C 3.73274 10.67061 0.00402
C 3.70688 9.2745 0.0073
C 4.89468 17.05903 0.03368
C 4.97908 15.59605 -0.02929
C 6.194 14.91321 -0.00966
C 6.14744 13.51937 -0.03337
C 7.35602 19.79149 0.02888
C 8.59516 19.15594 -0.00482
C 8.56181 17.73755 -0.01384
C 7.34771 16.99537 0.03693
C 7.37212 15.59744 0.01745
C 8.5829 14.93806 0.00488
C 8.56041 13.51917 -0.01004
C 7.38518 12.77178 -0.02896
C 7.3735 11.40418 -0.00131
C 8.61536 10.64423 -0.01118
C 8.61436 9.24236 -0.014
C 7.36028 8.51727 0.02147
C 7.38925 7.11181 0.00373
C 8.64063 6.439 -0.00191
C 8.63373 4.97211 0.00438
C 7.33739 4.30104 0.01291
C 7.427 2.8374 0.00093
C 8.62393 2.15974 0.00057
C 8.60853 0.75122 -0.01634
C 7.42455 0.04144 -0.00334
C 9.81556 32.73043 0.02339
C 7.36047 21.34077 0.00685
C 17.25283 29.81669 -0.0054
C 8.56934 22.02186 0.00895
C 7.39475 24.16941 0.0288
C 4.92918 12.77828 0.01227
C 4.96808 11.37522 0.00873
C 6.14364 10.67121 -0.00049
C 6.12423 9.2587 0.00848
C 4.9552 8.5328 -0.01303
C 4.88379 7.12716 -0.01378
C 6.13526 6.41361 0.02635
C 6.14899 4.96622 0.0127
C 4.93112 4.24491 0.01396
C 4.8977 2.89664 0.01849
C 6.1582 2.15408 -0.01142
C 6.17334 0.73522 -0.00562
C 4.93471 34.01718 -0.00494
C 7.38888 32.67024 0.00054
C 8.57507 31.92664 0.03007
C 8.6181 30.5138 -0.00095
C 7.33651 29.85704 0.01572
C 7.29145 28.39371 -0.04848
C 8.58681 27.68775 -0.00892
C 8.5683 26.23647 -0.01362
C 7.36807 25.6233 -0.0008
C 8.58311 23.45177 0.00393
C 17.20566 28.43441 0.00667
C 17.22714 25.50203 0.00143
C 17.2131 24.14636 -0.017
C 30.74962 6.42608 0.01908
C 30.77515 4.97992 0.07705
C 29.50778 4.28197 0.0103
C 29.5116 2.84424 0.02108
C 30.73817 2.11782 0.00716
C 30.73744 0.69488 0.00307
C 29.47434 0.01567 0.00346
C 31.98332 32.65017 0.01713
C 33.21605 31.92058 -0.01694
C 29.56151 7.07596 0.01518
C 33.20427 30.54269 0.01428
C 31.98807 28.41333 0.0544
C 33.21958 27.70469 0.00026
C 33.17903 26.26916 0.00682
C 31.9623 25.5348 -0.01779
C 31.96514 24.16513 0.03794
C 33.2524 23.44675 0.01927
C 33.21843 21.94718 0.01574
C 32.02754 21.282 -0.02383
C 31.98744 19.89602 -0.01429
C 31.97286 29.83471 -0.02142
C 29.50792 8.48502 -0.00971
C 30.70969 9.26935 -0.03735
C 30.78744 10.59979 -0.00944
C 26.99741 2.80559 0.01177
C 28.2834 2.12936 0.04266
C 28.25905 0.69143 0.01324
C 27.0244 0.00729 0.0014
C 29.5038 32.64284 0.00924
C 30.77146 31.8822 0.02326
C 30.74691 30.51163 0.00261
C 30.74515 27.66559 0.03265
C 30.78551 26.22759 -0.02049
C 30.75599 23.39873 -0.01854
C 30.74092 22.04405 -0.01415
C 29.5829 21.29112 -0.03039
C 29.49575 19.85557 0.01836
C 30.7473 19.14449 0.03531
C 30.75452 17.73741 -0.00669
C 29.493 17.04406 0.0101
C 29.53299 15.65643 0.01705
C 30.76745 14.9215 -0.0405
C 30.77301 13.52852 -0.01303
C 29.47696 12.80955 -0.01461
C 29.53524 11.36442 -0.02155
C 33.20444 19.17155 -0.0136
C 33.21485 17.78839 0.00594
C 32.00248 17.04604 -0.02474
C 31.9796 15.56664 0.00369
C 1.2061 22.04709 0.02712
C 34.4294 21.30673 -0.02213
C 0.0186 19.92713 0.01951
C 1.21387 19.12982 -0.01678
C 1.19618 17.7247 0.01223
C 34.42676 17.01041 0.00648
C 0.03097 15.61045 0.02114
C 1.18769 14.8836 -0.02957
C 1.19794 13.50614 0.00343
C 34.4282 12.72534 -0.02656
C 34.39288 11.36721 -0.02442
C 1.21342 10.64389 -0.00027
C 1.23233 9.26626 -0.00583
C 34.42747 8.55285 -0.02302
C 34.42842 7.1004 -0.02849
C 1.214 6.35743 0.02931
C 1.18914 4.92991 0.00628
C 34.39465 4.23887 -0.0345
C 0.01253 2.84168 -0.00931
C 1.28208 2.10966 -0.00939
C 1.26044 0.70122 -0.00468
C 1.20192 23.47766 0.00723
C 27.05995 4.26572 -0.00416
C 34.41646 24.19097 0.03076
C 1.22621 26.27992 -0.00598
C 33.19916 14.8837 0.00455
C 33.22868 13.4996 -0.00644
C 31.96954 12.78689 -0.01839
C 31.97674 11.33914 0.00137
C 33.1684 10.62173 0.00199
C 33.16818 9.23169 0.04381
C 31.97029 8.52265 0.02806
C 31.94572 7.16912 0.01504
C 33.20107 6.36052 -0.00069
C 33.20224 4.95139 0.04926
C 31.93962 4.25734 -0.03838
C 31.97902 2.88187 0.00349
C 33.22566 2.11913 -0.00323
C 33.15551 0.64824 -0.00841
C 31.95306 34.07749 0.0001
C 0.0074 32.65926 -0.02927
C 1.22063 31.93099 -0.01404
C 1.21351 30.53783 0.01027
C 0.00881 29.78946 0.01831
C 0.01723 28.41565 -0.01037
C 1.25727 27.6752 -0.00439
C 34.4135 25.5788 -0.05239
C 3.67556 31.91049 -0.01977
C 28.26609 4.94793 0.01699
C 27.0384 7.10611 0.01259
C 20.89769 17.75368 -0.01662
C 19.69514 17.01639 -0.01185
C 19.69965 15.62557 0.01126
C 20.84299 14.88329 0.01852
C 20.86725 13.46007 -0.00381
C 19.67821 12.72258 0.03046
C 19.66238 11.36429 0.0296
C 20.9228 10.62257 0.03374
C 20.92873 9.21206 -0.02845
C 20.83125 19.18423 -0.00478
C 19.6333 8.4739 -0.03213
C 20.94431 6.38211 0.01153
C 20.87047 4.93597 0.02734
C 19.68493 4.21968 -0.0055
C 19.69479 2.81718 0.01515
C 20.91791 2.1303 -0.00225
C 20.87763 0.74262 0.00071
C 19.68989 34.01687 -0.01107
C 23.34719 19.13889 -0.01586
C 23.34849 17.79298 -0.01971
C 19.71378 7.10793 0.02239
C 19.72604 19.83827 0.01511
C 19.664 32.62208 0.00199
C 17.22467 34.04885 0.01087
C 18.46352 22.05803 0.00364
C 17.24467 21.29867 -0.00831
C 17.24568 19.90124 -0.02957
C 18.42186 19.1824 -0.04422
C 18.44747 17.78753 0.00654
C 17.23104 17.00643 -0.00703
C 17.27531 15.62099 -0.04076
C 18.50299 14.94689 -0.00652
C 18.4557 13.50968 0.0058
C 17.23419 12.72273 -0.00865
C 17.2262 11.3677 0.00675
C 18.4566 10.66262 -0.00311
C 18.43688 9.26695 0.00742
C 17.21923 8.47918 -0.01594
C 17.23406 7.09651 0.0106
C 18.42337 6.42487 -0.01154
C 18.42881 4.96194 -0.01721
C 17.21268 4.27423 -0.02422
C 17.205 2.8695 0.01277
C 18.41453 2.08002 0.00096
C 18.45135 0.74796 -0.01527
C 22.14236 17.03262 -0.02118
C 22.14561 15.61068 0.00733
C 23.31596 14.85541 -0.00178
C 23.36072 13.50571 0.00768
C 25.81936 6.39572 -0.00218
C 25.91413 5.00696 -0.01654
C 24.5767 4.26809 -0.00037
C 24.61855 2.84294 -0.0032
C 25.81927 2.11165 0.00622
C 25.76371 0.68955 -0.02815
C 24.55391 0.00553 -0.00942
C 27.03798 32.6335 0.00487
C 28.22735 31.96083 0.00826
C 27.04687 19.863 -0.00294
C 28.22283 19.13204 0.00152
C 28.28837 17.75836 0.01257
C 27.01646 17.03352 0.02316
C 27.03854 15.58645 0.04185
C 28.26743 14.92774 0.00194
C 28.27916 13.50771 -0.00621
C 27.06458 12.77999 0.02611
C 27.04654 11.36564 0.02198
C 28.316 10.58534 0.01094
C 28.30859 9.22385 0.00235
C 27.03366 8.49955 0.01495
C 24.60137 7.11086 -0.00802
C 28.34595 6.43019 0.01799
C 24.60116 8.53085 0.00195
C 25.81633 10.62933 0.04306
C 22.12673 12.78758 -0.0276
C 22.12379 11.39674 0.03005
C 23.30473 10.65138 -0.04078
C 23.35311 9.22909 0.02117
C 22.18412 8.55609 0.02737
C 22.19111 7.13864 -0.00498
C 23.3613 6.41678 0.00135
C 23.35093 4.92234 0.03102
C 22.11133 4.26187 0.02555
C 22.14354 2.84818 0.01423
C 23.35327 2.10688 -0.00285
C 23.34382 0.6849 -0.009
C 22.15022 34.04127 -0.01199
C 25.78825 19.19552 -0.00229
C 25.85637 17.77343 -0.00938
C 24.59937 17.03352 -0.0264
C 24.61516 15.67365 -0.01154
C 25.84472 14.93116 0.00684
C 25.7903 13.45741 -0.01052
C 24.63297 12.74516 -0.01679
C 24.58562 11.38248 0.00367
C 25.81783 9.26795 0.00996
C 2.45294 32.64376 0.02784
