428
Graphene
C 0.00976 34.01393 0.01295
C 12.25816 24.15964 0.03589
C 13.54425 23.45496 -0.02759
C 13.56641 22.03179 0.0402
C 12.28919 21.32558 0.00572
C 12.30463 19.88143 0.03592
C 13.51433 19.09709 0.00406
C 13.52299 17.68762 0.00943
C 12.31555 17.06306 0.02841
C 12.32398 15.63671 -0.01111
C 13.5627 14.91997 -0.01275
C 12.20942 25.60957 -0.00033
C 13.5212 13.46097 0.00985
C 12.30255 11.43055 -0.00428
C 13.52051 10.69778 0.03101
C 13.51713 9.2253 -0.01536
C 12.32162 8.44661 -0.02689
C 12.33343 7.061 -0.01046
C 13.56 6.32603 -0.00891
C 13.46501 4.9184 0.02819
C 12.25824 4.15648 0.00165
C 12.29451 2.78545 -0.02971
C 13.52468 2.13191 0.02894
C 12.28351 12.76145 -0.02245
C 13.53513 26.31918 -0.01062
C 13.46664 27.7296 0.01364
C 12.24463 28.46093 -0.00719
C 11.13194 19.14636 0.00685
C 11.10664 17.71241 0.02888
C 9.85945 17.1634 -0.00482
C 9.78344 15.71814 -0.01384
C 11.06661 14.99145 0.03693
C 11.06724 13.49612 0.01745
C 9.81225 12.84964 0.00488
C 9.91733 11.39217 -0.01004
C 11.14139 10.67799 -0.02896
C 11.13883 9.24186 -0.00131
C 9.85628 8.56376 -0.01118
C 9.76431 7.15974 -0.014
C 11.01457 6.34535 0.02147
C 11.02069 4.88724 0.00373
C 9.72322 4.28562 -0.00191
C 9.78716 2.85216 0.00438
C 10.97166 2.1977 0.01291
C 11.07843 0.77366 0.00093
C 9.8372 0.09164 0.00057
C 12.25652 32.71802 -0.01634
C 13.49114 31.99286 -0.00334
C 13.4476 30.60589 0.02339
C 12.19779 29.92924 0.01641
C 13.59883 0.74617 -0.01789
C 12.3107 0.06606 0.00444
C 14.72539 32.61358 -0.00925
C 15.95211 31.93114 0.01877
C 15.94046 2.09183 0.00228
C 16.0222 0.62334 0.00798
C 14.77497 0.00654 0.00422
C 17.16198 32.60761 0.0351
C 18.356 31.93012 -0.03113
C 18.37307 30.50383 0.02098
C 17.12944 29.77678 0.01848
C 17.20838 28.34359 -0.00619
C 18.41548 27.60744 -0.02162
C 18.43026 26.21807 0.00889
C 17.13761 25.54885 -0.00481
C 17.1476 24.09725 0.00979
C 18.43703 23.4552 0.01443
C 18.40529 21.98007 0.03505
C 17.18897 21.27884 -0.02815
C 17.20676 19.88569 -0.04147
C 18.41982 19.25134 -0.05302
C 18.42213 17.83199 0.00213
C 17.2083 17.07384 -0.00066
C 17.26049 15.65473 -0.00289
C 18.49116 14.89323 0.00028
C 18.47799 13.5238 -0.02213
C 17.24477 12.84316 0.03698
C 14.74386 2.8318 -0.00114
C 9.88862 19.8175 0.00895
C 14.67455 4.21351 -0.02696
C 15.93271 6.46374 -0.0108
C 15.93285 30.52974 0.01363
C 14.68761 29.87351 -0.02162
C 14.65487 28.50518 0.00415
C 15.95009 27.6977 -0.0014
C 15.96058 26.28834 0.02162
C 14.73323 25.59024 0.0076
C 14.70296 24.24413 0.01241
C 15.91318 23.45878 -0.01454
C 15.92258 22.05019 0.01945
C 14.70895 21.28536 0.01416
C 14.69258 19.82681 0.03542
C 15.98798 19.17331 0.02299
C 15.9576 17.74312 0.00244
C 14.71843 17.02576 -0.01717
C 14.77638 15.57199 0.05265
C 15.99664 14.97676 -0.01952
C 16.02747 13.56718 -0.02813
C 14.82618 12.78973 0.00374
C 14.7624 11.37631 0.00052
C 16.06432 10.69355 -0.03682
C 15.9655 9.24501 0.01965
C 14.75646 8.47905 0.02058
C 14.7022 7.09649 -0.01957
C 15.9029 5.00737 -0.00368
C 17.22876 11.38189 -0.00109
C 9.86715 21.27197 0.00393
C 11.07078 23.45146 -0.0008
C 3.63283 2.11647 -0.00039
C 3.70141 0.68507 0.0064
C 2.47223 0.00157 0.00211
C 4.87851 32.71083 -0.00449
C 6.10139 31.97608 -0.01979
C 6.15597 30.57045 0.02784
C 4.95317 29.82861 -0.01977
C 4.8942 28.41342 -0.00561
C 6.10517 27.70752 0.00208
C 6.09942 26.25127 0.01707
C 2.45269 2.79947 0.02728
C 4.8492 25.62248 0.02769
C 6.14031 23.5059 -0.04999
C 6.18759 22.06618 0.04505
C 4.89972 21.34497 0.03284
C 4.95059 19.92703 -0.04307
C 6.15729 19.18717 0.03189
C 6.16851 17.7576 0.00031
C 4.87071 17.06007 -0.003
C 4.85908 15.57647 0.01402
C 6.15139 14.88495 0.02379
C 6.10354 13.50304 0.00907
C 4.89691 24.16368 -0.03291
C 2.41091 4.20255 0.00245
C 3.62816 4.99844 0.00081
C 3.57511 6.40266 -0.02805
C 3.7313 30.58539 0.00787
C 2.49824 29.77947 0.02426
C 2.54181 28.40272 0.01218
C 3.70254 27.69829 -0.01471
C 3.63201 26.31511 -0.02827
C 2.47599 25.5397 0.01078
C 2.36766 24.12074 -0.00112
C 3.63686 23.44469 0.03345
C 3.67487 22.05228 0.00748
C 2.46053 21.31851 0.00662
C 2.46917 19.95149 -0.0154
C 3.67504 19.22184 -0.01299
C 3.67464 17.73062 -0.00407
C 2.43872 17.03548 0.01138
C 2.43716 15.6646 0.03278
C 3.55855 14.86708 -0.00177
C 3.59386 13.46528 0.04421
C 2.3589 12.73091 0.00088
C 2.40404 11.30661 0.00828
C 3.65071 10.67174 -0.02375
C 3.64228 9.22877 0.00558
C 2.4302 8.50703 -0.0059
C 2.39116 7.07672 -0.01386
C 4.8268 12.75786 0.00643
C 4.85156 11.38881 -0.01509
C 6.17735 10.73892 0.03267
C 6.09189 9.36597 0.02374
C 8.57997 13.57074 -0.02929
C 7.34537 12.86177 -0.00966
C 7.41577 11.46535 -0.03337
C 8.65041 10.74809 0.01227
C 8.63971 9.35528 0.00873
C 7.34793 8.60501 -0.00049
C 7.3161 7.17823 0.00848
C 8.61277 6.41756 -0.01303
C 8.53667 5.04435 -0.01378
C 7.30502 4.33091 0.02635
C 7.33536 2.94039 0.0127
C 8.51214 2.12941 0.01396
C 8.54208 0.77205 0.01849
C 7.36932 0.01431 -0.01142
C 9.83969 32.74165 -0.00562
C 11.01259 32.00802 -0.00494
C 11.02205 30.64949 0.00054
C 9.80323 29.88148 0.03007
C 9.86661 28.4191 -0.00095
C 10.98964 27.72622 0.01572
C 10.96386 26.30791 -0.04848
C 9.8314 25.58336 -0.00892
C 9.85192 24.14792 -0.01362
C 8.5949 14.99739 0.03368
C 11.0765 22.03118 0.0288
C 7.37034 15.64226 -0.00077
C 8.5586 17.78164 0.0276
C 4.87622 8.55695 0.00402
C 4.86036 7.15444 0.0073
C 6.13602 6.51311 0.0174
C 6.10213 5.07732 0.03828
C 4.90825 4.2826 0.01226
C 4.90674 2.86782 -0.00279
C 6.21935 2.11082 0.01996
C 6.15604 0.70122 -0.03996
C 4.93472 0.03855 0.01465
C 7.31977 32.70671 -0.00074
C 8.60027 32.04542 -0.00518
C 8.58619 30.61497 0.0086
C 7.34471 29.85172 -0.00643
C 7.3286 28.47165 0.017
C 8.59924 27.75545 -0.03113
C 8.54583 26.31455 -0.02566
C 7.34043 25.55919 -0.00094
C 7.33183 24.1538 0.02322
C 8.62794 23.43708 -0.00725
C 8.6014 22.03381 -0.05697
C 7.36076 21.35089 0.01087
C 7.4054 19.89512 -0.01343
C 8.57677 19.16281 0.00988
C 7.36611 17.05152 0.01305
C 18.46203 10.71345 -0.00491
C 18.4373 9.31433 0.03338
C 17.23227 8.54531 -0.0258
C 30.69017 14.96413 -0.01461
C 30.70472 13.46966 -0.02155
C 29.44977 12.72602 -0.00944
C 29.47618 11.36864 -0.03735
C 30.69827 10.5909 -0.00971
C 30.68249 9.1621 0.01518
C 29.45418 8.47065 0.01908
C 29.41444 7.03378 0.07705
C 30.67057 6.27947 0.0103
C 30.7326 4.87752 0.02108
C 29.54302 15.65743 -0.01303
C 29.47223 4.14933 0.00716
C 30.74345 2.07432 0.00346
C 30.77312 0.69235 0.01713
C 29.54177 0.01221 -0.01694
C 31.98121 32.56804 0.01428
C 33.23092 31.85892 -0.02142
C 33.27638 30.3757 0.0544
C 31.95116 29.82041 0.00026
C 31.96621 28.40872 0.00682
C 33.05915 27.58754 -0.01779
C 33.22834 26.23622 0.03794
C 29.52061 2.78653 0.00307
C 29.51881 17.102 -0.0405
C 30.72677 17.7433 0.01705
C 30.75855 19.14606 0.0101
C 28.21053 17.82295 0.02198
C 27.0369 17.04277 0.01094
C 27.04337 15.6117 0.00235
C 28.28201 14.93348 0.01495
C 28.22938 13.56756 0.01259
C 27.05157 12.82948 0.01799
C 27.04807 11.37379 0.01699
C 28.26514 10.59961 -0.00416
C 28.20629 9.18995 0.01177
C 27.09852 8.50932 0.04266
C 27.00064 7.08398 0.01324
C 28.17321 6.29824 0.0014
C 28.1966 4.86601 0.00924
C 27.02123 4.21341 0.02326
C 27.02179 2.84335 0.00261
C 28.26372 2.14542 0.03265
C 28.29255 0.73054 -0.02049
C 27.10291 0.02022 -0.01854
C 29.52317 32.68675 -0.01415
C 30.76659 31.94919 -0.03039
C 30.8192 30.57362 0.01836
C 29.6089 29.92751 0.03531
C 29.57014 19.93221 -0.00669
C 33.11433 23.61985 0.01927
C 33.00968 22.21684 0.01574
C 32.07188 21.24754 -0.02383
C 32.02096 19.83412 -0.01429
C 34.41661 24.14581 0.03076
C 1.15454 23.43459 0.00723
C 1.16318 22.05576 0.02712
C 34.36285 21.39019 -0.02213
C 34.42285 19.93745 0.01951
C 1.27504 19.21617 -0.01678
C 1.21203 17.77877 0.01223
C 0.05318 17.03315 0.00648
C 34.37959 15.62032 0.02114
C 1.16042 14.88605 -0.02957
C 1.08659 13.44328 0.00343
C 34.29483 12.68616 -0.02656
C 34.37441 11.3656 -0.02442
C 1.16779 10.62412 -0.00027
C 1.24234 9.12486 -0.00583
C 34.39102 8.39877 -0.02302
C 34.29686 7.03147 -0.02849
C 1.1399 6.33872 0.02931
C 1.19916 4.95049 0.00628
C 34.3872 4.21913 -0.0345
C 0.02113 2.82678 -0.00931
C 1.25221 2.14037 -0.00939
C 1.23818 0.66976 -0.00468
C 0.02484 25.56748 -0.05239
C 28.27847 19.34995 0.02611
C 1.28123 26.24558 -0.00598
C 34.42645 28.30739 -0.01037
C 33.25908 19.1195 -0.0136
C 33.22823 17.69528 0.00594
C 31.94769 17.07458 -0.02474
C 31.91977 15.62384 0.00369
C 33.12001 14.90558 0.00455
C 33.15022 13.46005 -0.00644
C 31.89806 12.75131 -0.01839
C 31.95578 11.25964 0.00137
C 33.20679 10.58278 0.00199
C 33.163 9.17623 0.04381
C 31.92904 8.44615 0.02806
C 31.91642 7.05826 0.01504
C 33.11457 6.33915 -0.00069
C 33.10287 4.90203 0.04926
C 31.96099 4.13366 -0.03838
C 31.97842 2.78424 0.00349
C 33.22913 2.07171 -0.00323
C 33.25736 0.60804 -0.00841
C 32.05138 34.00418 0.0001
C 0.00764 32.60305 -0.02927
C 1.24503 31.92834 -0.01404
C 1.26778 30.44692 0.01027
C 0.02998 29.65259 0.01831
C 1.25949 27.61941 -0.00439
C 26.96344 19.77937 -0.00621
C 26.92401 28.47665 0.00194
C 27.19698 29.85721 0.04185
C 19.70991 12.84536 0.00675
C 19.67862 11.44104 -0.00311
C 20.87581 10.62724 0.00742
C 20.92875 9.19986 -0.01594
C 19.65951 8.50686 0.0106
C 19.67494 7.09949 -0.01154
C 20.95651 6.37329 -0.01721
C 20.87021 4.93663 -0.02422
C 19.62064 4.3128 0.01277
C 19.61165 2.83604 0.00096
C 20.91334 2.21103 -0.01527
C 20.87849 0.71159 0.01087
C 19.62535 0.01808 0.00199
C 22.09244 32.66976 0.01511
C 23.37346 31.9561 -0.00478
C 23.36981 30.53489 -0.01662
C 22.0738 29.86852 -0.01185
C 22.10501 28.41178 0.01126
C 23.34203 27.76937 0.01852
C 23.35625 26.3507 -0.00381
C 22.15149 25.54745 0.03046
C 22.13693 24.14243 0.0296
C 23.34707 23.29736 0.03374
C 20.89701 13.52147 -0.00865
C 23.39053 21.89845 -0.02845
C 20.86895 14.94684 0.0058
C 19.664 17.04599 -0.04076
C 17.25704 7.10403 -0.0331
C 18.46262 6.41187 -0.00316
C 18.41183 4.9582 0.02188
C 17.18444 4.24111 -0.01979
C 17.17522 2.84481 0.02691
C 18.40704 2.10141 -0.01581
C 18.38302 0.70694 0.01452
C 17.21742 34.03469 0.04892
C 19.66853 32.7033 -0.00111
C 20.87512 31.97377 -0.03557
C 20.90525 30.58003 0.03754
C 19.6491 29.77078 0.01739
C 19.60449 28.33523 0.00755
C 20.88431 27.65717 -0.0054
C 20.93394 26.26908 0.00667
C 19.72752 25.50319 0.00143
C 19.65734 24.09611 -0.017
C 20.92351 23.41756 0.00364
C 20.9392 21.90988 -0.00831
C 19.60748 21.28123 -0.02957
C 19.63073 19.90807 -0.04422
C 20.86238 19.22902 0.00654
C 20.87397 17.73199 -0.00703
C 19.67983 15.62056 -0.00652
C 3.67438 31.96405 0.00267
C 22.13839 21.15796 -0.03213
C 23.36475 19.1785 0.01153
C 24.55035 19.82365 -0.0264
C 25.78554 19.09331 -0.01154
C 25.76724 17.71048 0.00684
C 24.55031 17.00433 -0.01052
C 24.62342 15.59255 -0.01679
C 25.79244 14.9144 0.00367
C 25.82423 13.50889 0.04306
C 24.55341 12.70986 0.00996
C 24.5733 11.32257 0.00195
C 25.82421 10.65392 -0.00802
C 25.84912 9.27801 -0.00218
C 24.59244 8.54763 -0.01654
C 24.59381 7.14927 -0.00037
C 25.78154 6.42848 -0.0032
C 25.7414 4.97631 0.00622
C 24.54397 4.23231 -0.02815
C 24.5785 2.82875 -0.00942
C 25.79991 2.12575 0.00487
C 25.76906 0.71038 0.00826
C 24.55222 34.02975 -0.00294
C 27.07318 32.59876 0.00152
C 28.34573 31.95826 0.01257
C 28.38505 30.52057 0.02316
C 24.65227 21.25622 -0.00938
C 22.1042 19.84701 0.02239
C 24.34841 24.17993 -0.00229
C 25.84782 27.80392 -0.009
C 23.38473 17.78525 0.02734
C 22.20163 17.11445 -0.0055
C 22.17843 15.64746 0.01515
C 23.38233 14.84206 -0.00225
C 23.35318 13.46064 0.00071
C 22.14537 12.79277 -0.01107
C 22.12236 11.38281 -0.01586
C 23.32235 10.64231 -0.01971
C 23.38203 9.25327 -0.02118
C 22.15442 8.63169 0.00733
C 22.21105 7.13896 -0.00178
C 23.37468 6.43195 0.00768
C 23.39049 5.03649 -0.0276
C 22.16435 4.29073 0.03005
C 22.1659 2.88372 -0.04078
C 23.37451 2.13689 0.02117
C 23.35156 0.67839 0.02737
C 22.1163 0.04313 -0.00498
C 24.5842 32.6176 0.00135
C 25.83963 31.87825 0.03102
C 25.86208 30.4685 0.02555
C 24.66808 29.81136 0.01423
C 24.62036 28.41732 -0.00285
C 24.4685 25.50942 -0.01199
C 2.4459 32.70255 0.01913
