392
Graphene
C 0.01315 0.01288 0.01295
C 13.55313 27.67723 0.01877
C 13.52591 26.29685 0.01363
C 12.30107 25.55317 -0.02162
C 12.27737 24.13582 0.00415
C 13.56224 23.45822 -0.0014
C 13.54955 22.02963 0.02162
C 12.27848 21.26104 0.0076
C 12.27813 19.87216 0.01241
C 13.52293 19.09234 -0.01454
C 12.2854 28.3909 -0.00925
C 12.30475 4.28956 0.01945
C 13.52824 2.11218 0.03542
C 13.58836 0.70172 0.02299
C 12.33288 34.05847 0.00244
C 14.75184 32.69722 -0.01717
C 16.00919 31.91861 0.05265
C 15.96823 30.47376 -0.01952
C 14.71507 29.7933 -0.02813
C 14.79062 28.35587 0.00374
C 15.94134 27.66919 0.00052
C 12.27628 2.89201 0.01416
C 12.29105 29.79513 0.00444
C 13.50353 30.57277 -0.01789
C 13.48802 31.96791 0.02894
C 9.8339 28.41693 0.03589
C 11.07538 27.68319 -0.02759
C 11.08257 26.28844 0.0402
C 9.83467 25.55897 0.00572
C 9.80325 24.17516 0.03592
C 11.06091 23.43679 0.00406
C 11.06882 22.00521 0.00943
C 9.83111 21.35673 0.02841
C 9.81672 19.8737 -0.01111
C 11.06388 19.24332 -0.01275
C 11.08253 17.72963 0.00985
C 9.84685 17.04508 -0.02245
C 9.82773 15.65317 -0.00428
C 9.87175 7.09864 0.03101
C 11.04428 4.92092 -0.01536
C 9.82676 4.27186 -0.02689
C 9.87527 2.84981 -0.01046
C 11.0809 2.11729 -0.00891
C 11.09797 0.69463 0.02819
C 9.88015 0.01942 0.00165
C 12.30087 32.68901 -0.02971
C 16.02734 26.29416 -0.03682
C 9.81057 29.86582 -0.00033
C 14.76005 25.57652 0.01965
C 15.96426 23.40527 -0.01957
C 17.24838 4.24292 -0.02213
C 17.21454 2.87673 0.03698
C 18.44273 2.06826 -0.00109
C 18.4243 0.68715 -0.00491
C 17.18545 0.00399 0.03338
C 19.69794 32.65112 -0.0258
C 20.92139 31.96189 -0.0331
C 20.8765 30.53965 -0.00316
C 19.68144 29.82238 0.02188
C 18.49151 4.96337 0.00028
C 19.7197 28.37167 -0.01979
C 20.89152 26.27644 -0.01581
C 19.66908 25.55319 0.01452
C 19.69039 24.09993 0.04892
C 20.94208 23.42541 -0.00111
C 20.88513 22.00537 -0.03557
C 19.68104 21.30372 0.03754
C 19.6723 19.86722 0.01739
C 20.85817 19.1813 0.00755
C 20.91596 17.75436 -0.0054
C 20.90716 27.7302 0.02691
C 18.47131 17.73417 -0.00289
C 18.43997 19.15673 -0.00066
C 17.20878 19.87701 0.00213
C 15.98841 22.03164 -0.0108
C 14.78974 21.3115 -0.00368
C 14.76325 19.84783 -0.02696
C 15.9947 19.14557 -0.00114
C 14.74274 4.26693 0.00228
C 14.7483 2.83165 0.00798
C 15.96952 2.17126 0.00422
C 15.98286 0.68787 0.0351
C 14.73249 34.05809 -0.03113
C 17.19421 32.65758 0.02098
C 18.45111 31.92241 0.01848
C 18.43174 30.5404 -0.00619
C 17.20899 29.85052 -0.02162
C 17.22701 28.40602 0.00889
C 18.41279 27.69717 -0.00481
C 18.42298 26.2351 0.00979
C 17.2154 25.57291 0.01443
C 17.20665 24.10998 0.03505
C 18.42042 23.41417 -0.02815
C 18.47766 22.02378 -0.04147
C 17.23616 21.33506 -0.05302
C 14.74972 24.13561 0.02058
C 19.66981 17.0379 0.00667
C 11.07615 30.58001 -0.01062
C 9.86221 32.67657 -0.00719
C 2.47621 4.28165 0.01465
C 2.46309 2.81209 -0.00074
C 3.69862 2.14198 -0.00518
C 3.71225 0.72742 0.0086
C 2.44033 34.07259 -0.00643
C 4.91 32.6893 0.017
C 6.16396 31.9655 -0.03113
C 6.16646 30.50848 -0.02566
C 4.91558 29.83899 -0.00094
C 3.69687 4.97998 -0.03996
C 4.90323 28.38006 0.02322
C 6.11491 26.31257 -0.05697
C 4.92724 25.59188 0.01087
C 4.91772 24.11894 -0.01343
C 6.1246 23.43521 0.00988
C 6.10178 22.0521 0.0276
C 4.93168 21.2924 0.01305
C 4.9349 19.91131 -0.00077
C 6.14114 19.18237 0.03368
C 6.20896 17.71909 -0.02929
C 6.17226 27.65542 -0.00725
C 3.6765 6.38815 0.01996
C 2.39382 7.1764 -0.00279
C 2.4783 8.50604 0.01226
C 3.71579 30.53258 0.01707
C 2.46954 29.87361 0.02769
C 2.52444 28.37046 -0.03291
C 3.69374 27.66477 -0.04999
C 3.72821 26.24822 0.04505
C 2.40967 25.51301 0.03284
C 2.43492 24.15431 -0.04307
C 3.65074 23.42225 0.03189
C 3.68201 22.01157 0.00031
C 2.46724 21.3443 -0.003
C 2.43684 19.85752 0.01402
C 3.70209 19.19514 0.02379
C 3.70923 17.80014 0.00907
C 2.45644 17.06244 0.00643
C 2.43269 15.62462 -0.01509
C 3.68158 14.86667 0.03267
C 3.70377 13.49958 0.02374
C 2.52138 12.78211 0.00402
C 2.4719 11.34843 0.0073
C 3.68575 10.6652 0.0174
C 3.67569 9.24531 0.03828
C 4.90842 17.0535 -0.00966
C 11.08424 31.96672 0.01364
C 4.92476 15.61382 -0.03337
C 6.2003 13.5412 0.00873
C 7.34154 19.80592 -0.01384
C 8.61193 19.15667 0.03693
C 8.57717 17.73548 0.01745
C 7.33616 17.02455 0.00488
C 7.33742 15.62663 -0.01004
C 8.59278 14.95654 -0.02896
C 8.60343 13.53289 -0.00131
C 7.41685 12.72835 -0.01118
C 7.35397 11.37566 -0.014
C 7.37021 21.31472 -0.00482
C 8.61124 10.65554 0.02147
C 7.37878 8.54408 -0.00191
C 7.41833 7.09703 0.00438
C 8.60348 6.41978 0.01291
C 8.6267 4.97384 0.00093
C 7.37024 4.27349 0.00057
C 7.40045 2.85503 -0.01634
C 8.63942 2.16569 -0.00334
C 8.61601 0.74359 0.02339
C 7.40619 0.04023 0.01641
C 8.59257 9.28557 0.00373
C 8.60285 22.00551 0.02888
C 8.61281 23.45696 0.00685
C 7.35695 24.15057 0.00895
C 4.93535 12.78714 -0.00049
C 4.91772 11.34921 0.00848
C 6.18663 10.64593 -0.01303
C 6.14116 9.28551 -0.01378
C 4.92412 8.53355 0.02635
C 4.93412 7.12076 0.0127
C 6.12453 6.37841 0.01396
C 6.14022 5.01318 0.01849
C 4.95063 4.25864 -0.01142
C 4.91805 2.81414 -0.00562
C 6.1309 2.11595 -0.00494
C 6.15204 0.71334 0.00054
C 4.94174 0.00724 0.03007
C 7.39347 32.62252 -0.00095
C 8.57754 31.97189 0.01572
C 8.55065 30.51968 -0.04848
C 7.39596 29.80724 -0.00892
C 7.34207 28.41921 -0.01362
C 8.55715 27.72306 -0.0008
C 8.59921 26.27287 0.0288
C 7.3771 25.55925 0.00393
C 6.15318 14.93647 0.01227
C 20.8994 6.37041 0.00143
C 20.91678 4.98231 -0.017
C 19.68899 4.28793 0.00364
C 30.74909 4.97891 0.07705
C 29.48623 4.25629 0.0103
C 29.54116 2.85702 0.02108
C 30.75488 2.13242 0.00716
C 30.74288 0.68678 0.00307
C 29.51153 34.05949 0.00346
C 31.93991 32.65161 0.01713
C 33.1846 31.97436 -0.01694
C 33.23153 30.52592 0.01428
C 30.75831 6.39164 0.01908
C 32.00976 29.79125 -0.02142
C 33.20503 27.71648 0.00026
C 33.1851 26.28146 0.00682
C 31.97528 25.54888 -0.01779
C 31.975 24.15152 0.03794
C 33.22088 23.40827 0.01927
C 33.20679 22.00562 0.01574
C 32.02759 21.32908 -0.02383
C 31.97994 19.85316 -0.01429
C 33.22254 19.16099 -0.0136
C 32.0075 28.40204 0.0544
C 29.52212 7.11157 0.01518
C 29.50262 8.49586 -0.00971
C 30.72212 9.27688 -0.03735
C 30.79243 31.90621 0.04266
C 30.71962 30.51016 0.01324
C 29.50164 29.82015 0.0014
C 29.50192 28.37028 0.00924
C 30.75234 27.67818 0.02326
C 30.7111 26.2645 0.00261
C 29.51307 25.51037 0.03265
C 29.52726 24.07566 -0.02049
C 30.75225 23.46028 -0.01854
C 30.76502 22.02818 -0.01415
C 29.55145 21.28639 -0.03039
C 29.52669 19.86123 0.01836
C 30.75431 19.1461 0.03531
C 30.74309 17.72336 -0.00669
C 29.50509 17.02774 0.0101
C 29.51615 15.61313 0.01705
C 30.77642 14.92607 -0.0405
C 30.75713 13.5226 -0.01303
C 29.49463 12.79377 -0.01461
C 29.55143 11.38528 -0.02155
C 30.73773 10.63447 -0.00944
C 33.182 17.76174 0.00594
C 29.47891 32.65178 0.01177
C 31.99877 17.07303 -0.02474
C 33.23394 14.88388 0.00455
C 34.41085 21.2773 -0.02213
C 34.42596 19.90023 0.01951
C 1.24806 19.19312 -0.01678
C 1.23651 17.76564 0.01223
C 34.41853 16.97305 0.00648
C 34.40395 15.60014 0.02114
C 1.22096 14.90396 -0.02957
C 1.26397 13.50236 0.00343
C 34.41035 12.72956 -0.02656
C 1.18367 22.03272 0.02712
C 34.40708 11.35542 -0.02442
C 1.22236 9.22056 -0.00583
C 34.41817 8.49793 -0.02302
C 34.42677 7.12832 -0.02849
C 1.21403 6.38429 0.02931
C 1.22062 4.9496 0.00628
C 0.00472 4.21887 -0.0345
C 34.42267 2.81625 -0.00931
C 1.23276 2.15102 -0.00939
C 1.25914 0.71654 -0.00468
C 1.23526 10.66312 -0.00027
C 1.22884 23.44464 0.00723
C 34.40441 24.16746 0.03076
C 0.00071 25.60087 -0.05239
C 33.22643 13.50059 -0.00644
C 31.94315 12.79487 -0.01839
C 31.95034 11.3302 0.00137
C 33.18424 10.65769 0.00199
C 33.18508 9.24114 0.04381
C 31.99381 8.50807 0.02806
C 31.9427 7.10752 0.01504
C 33.1902 6.39245 -0.00069
C 33.19624 4.978 0.04926
C 31.97068 4.29455 -0.03838
C 31.98358 2.84973 0.00349
C 33.19671 2.1026 -0.00323
C 33.17437 0.67957 -0.00841
C 31.97681 0.01403 0.0001
C 0.01224 32.65588 -0.02927
C 1.20102 31.94052 -0.01404
C 1.22087 30.5205 0.01027
C 34.42761 29.81398 0.01831
C 0.00147 28.40405 -0.01037
C 1.21948 27.66544 -0.00439
C 1.25724 26.25381 -0.00598
C 32.00578 15.58853 0.00369
C 27.07425 34.07543 -0.00416
C 28.26587 0.69205 0.01699
C 28.29963 2.09312 0.01799
C 22.11857 8.49848 -0.01185
C 22.15138 7.06995 0.01126
C 23.3558 6.36265 0.01852
C 23.3924 4.93937 -0.00381
C 22.1328 4.26112 0.03046
C 22.11774 2.83918 0.0296
C 23.32519 2.10195 0.03374
C 23.36812 0.66742 -0.02845
C 22.11459 34.0673 -0.03213
C 23.36265 9.22748 -0.01662
C 24.61467 32.71349 0.02239
C 25.74133 30.50858 0.02734
C 24.5565 29.78405 -0.0055
C 24.59722 28.40721 0.01515
C 25.81207 27.68896 -0.00225
C 25.81905 26.28662 0.00071
C 24.61026 25.52248 -0.01107
C 24.61993 24.12553 -0.01586
C 25.81708 23.45069 -0.01971
C 25.81693 21.972 -0.02118
C 25.83516 31.93199 0.01153
C 23.36486 10.66435 -0.00478
C 23.37189 13.45433 0.01511
C 23.4041 14.87289 0.00199
C 19.68306 2.82891 -0.00831
C 20.90732 2.14042 -0.02957
C 20.90817 0.73005 -0.04422
C 19.67605 0.02037 0.00654
C 22.13717 32.63174 -0.00703
C 23.37384 31.94018 -0.04076
C 23.40408 30.55477 -0.00652
C 22.16168 29.80962 0.0058
C 22.15456 28.39966 -0.00865
C 23.39942 27.71168 0.00675
C 23.35659 26.28836 -0.00311
C 22.16092 25.52153 0.00742
C 22.15698 24.09821 -0.01594
C 23.39334 23.41697 0.0106
C 23.34613 22.05482 -0.01154
C 22.10894 21.29997 -0.01721
C 22.10695 19.88943 -0.02422
C 23.35327 19.16572 0.01277
C 23.33001 17.71409 0.00096
C 22.13841 17.05545 -0.01527
C 22.14273 15.62064 0.01087
C 24.56829 21.29215 0.00733
C 24.6033 19.86819 -0.00178
C 25.8116 19.17087 0.00768
C 25.84642 17.7683 -0.0276
C 27.01766 24.13158 -0.01654
C 28.2961 23.42321 -0.00037
C 28.3023 22.01168 -0.0032
C 27.10406 21.31449 0.00622
C 27.04436 19.8683 -0.02815
C 28.29028 19.15432 -0.00942
C 28.2787 17.72625 0.00487
C 27.00039 17.03981 0.00826
C 27.00926 15.64437 -0.00294
C 28.2647 14.89301 0.00152
C 28.28304 13.4995 0.01257
C 27.05119 12.7425 0.02316
C 27.0264 11.32558 0.04185
C 28.29038 10.65086 0.00194
C 28.26763 9.25097 -0.00621
C 27.05347 8.52133 0.02611
C 27.036 7.1091 0.02198
C 28.30498 6.38192 0.01094
C 28.29306 4.96166 0.00235
C 27.0342 4.25485 0.01495
C 27.06596 2.81616 0.01259
C 27.07388 25.58878 -0.00218
C 3.69898 31.94653 0.00208
C 28.2919 26.28019 -0.00802
C 27.07789 28.43602 0.00996
C 24.59156 17.05703 0.03005
C 24.54568 15.57434 -0.04078
C 25.80109 14.91188 0.02117
C 25.84139 13.5196 0.02737
C 24.61181 12.82438 -0.00498
C 24.59761 11.37309 0.00135
C 25.85218 10.65034 0.03102
C 25.81795 9.20854 0.02555
C 24.59037 8.53335 0.01423
C 24.59446 7.05579 -0.00285
C 25.82315 6.40693 -0.009
C 25.84854 4.94444 -0.01199
C 24.55182 4.27586 -0.00229
C 24.61174 2.85272 -0.00938
C 25.81063 2.12977 -0.0264
C 25.84661 0.72297 -0.01154
C 24.58801 0.00485 0.00684
C 27.05533 32.60924 -0.01052
C 28.31731 31.95977 -0.01679
C 28.29272 30.56035 0.00367
C 27.05895 29.83744 0.04306
C 28.29363 27.67755 0.00195
C 2.46056 32.65476 -0.00561
