340
Graphene
C 0.0078 0.0421 0.01295
C 12.23414 32.63742 -0.00619
C 13.5538 32.05571 -0.02162
C 13.4834 14.93092 0.00889
C 13.57469 13.61959 -0.00481
C 12.29529 12.85934 0.00979
C 12.283 11.45925 0.01443
C 13.45001 10.66122 0.03505
C 13.36475 9.21327 -0.02815
C 12.1847 8.47252 -0.04147
C 12.33899 6.97426 -0.05302
C 13.58388 6.36614 0.00213
C 13.60884 4.99974 -0.00066
C 12.36096 4.23372 -0.00289
C 12.20054 2.79568 0.00028
C 13.53262 2.07037 -0.02213
C 13.53136 0.6736 0.03698
C 12.26543 0.01779 -0.00109
C 9.76478 0.01806 0.01848
C 14.76717 32.4776 -0.00491
C 11.04067 0.62435 0.02098
C 9.85051 2.81591 0.0351
C 7.40136 33.99644 -0.01717
C 9.79491 32.62434 0.05265
C 11.08588 31.96144 -0.01952
C 10.95542 30.67251 -0.02813
C 9.84272 29.99961 0.00374
C 9.99165 15.68467 0.00052
C 11.08127 14.96576 -0.03682
C 11.11786 13.57366 0.01965
C 9.83776 12.88307 0.02058
C 9.82734 11.40568 -0.01957
C 11.07924 10.69176 -0.0108
C 11.06649 9.28627 -0.00368
C 9.86878 8.5267 -0.02696
C 9.88412 7.15761 -0.00114
C 11.09891 6.32828 0.00228
C 11.16974 4.91007 0.00798
C 9.87099 4.28158 0.00422
C 11.03574 2.08562 -0.03113
C 16.06704 31.98496 0.03338
C 16.03396 14.81858 -0.0258
C 15.99244 13.44322 -0.0331
C 17.19586 8.5307 -0.04076
C 17.19504 7.0944 -0.00652
C 18.51158 6.3804 0.0058
C 18.49519 4.98309 -0.00865
C 17.27711 4.28521 0.00675
C 17.22783 2.89233 -0.00311
C 18.37376 2.10688 0.00742
C 18.46563 0.67653 -0.01594
C 17.24566 34.04565 0.0106
C 19.59063 32.59421 -0.01154
C 20.86642 31.87983 -0.01721
C 20.83581 30.45651 -0.02422
C 19.65208 29.85536 0.01277
C 19.6979 15.6681 0.00096
C 20.89779 14.92489 -0.01527
C 20.87173 13.49214 0.01087
C 19.58313 12.86353 0.00199
C 18.44534 9.24362 -0.00703
C 18.39376 10.591 0.00654
C 17.12655 11.30908 -0.04422
C 17.19431 12.77053 -0.02957
C 14.70862 12.76411 -0.00316
C 14.64387 11.30312 0.02188
C 15.88253 10.64805 -0.01979
C 15.93047 9.22831 0.02691
C 14.68204 8.55738 -0.01581
C 14.79169 7.1867 0.01452
C 16.0129 6.47284 0.04892
C 15.96612 5.08881 -0.00111
C 8.51006 0.73724 0.00244
C 14.80967 4.27784 -0.03557
C 15.9801 2.20431 0.01739
C 16.01412 0.75448 0.00755
C 14.79888 34.05642 -0.0054
C 17.22564 32.65664 0.00667
C 18.38409 31.83613 0.00143
C 18.54298 30.5492 -0.017
C 18.67952 14.90362 0.00364
C 18.39432 13.57437 -0.00831
C 14.75673 2.87985 0.03754
C 19.53411 11.427 0.01511
C 8.53587 2.18232 0.02299
C 7.33676 4.30234 0.01416
C 2.47012 8.47555 -0.00482
C 2.43909 7.07597 -0.01384
C 3.7028 6.32576 0.03693
C 3.63855 4.94269 0.01745
C 2.40799 4.23756 0.00488
C 2.45198 2.82189 -0.01004
C 3.75109 2.14659 -0.02896
C 3.70642 0.76667 -0.00131
C 2.45858 0.09408 -0.01118
C 4.91914 32.67548 -0.014
C 6.14562 32.03155 0.02147
C 6.06958 30.62716 0.00373
C 4.90703 29.88306 -0.00191
C 4.85724 28.46775 0.00438
C 6.33527 27.60786 0.01291
C 6.03094 26.28282 0.00093
C 4.89377 25.57655 0.00057
C 3.67941 9.31378 0.02888
C 4.97104 24.11735 -0.01634
C 3.6626 10.68739 0.00685
C 2.47014 12.78968 0.00393
C 3.66764 30.5754 -0.01378
C 2.47661 29.89868 0.02635
C 2.41168 28.52766 0.0127
C 3.70744 27.7546 0.01396
C 3.61993 26.33245 0.01849
C 2.44866 25.58046 -0.01142
C 2.405 24.12595 -0.00562
C 3.73732 23.41883 -0.00494
C 3.79248 22.02725 0.00054
C 2.55236 21.25763 0.03007
C 2.56193 19.87433 -0.00095
C 3.68249 19.12873 0.01572
C 3.66004 17.73573 -0.04848
C 2.44267 17.12988 -0.00892
C 2.46579 15.61167 -0.01362
C 3.66693 14.93676 -0.0008
C 3.66722 13.53765 0.0288
C 2.41288 11.32091 0.00895
C 6.14085 23.32982 -0.00334
C 6.1169 22.04062 0.02339
C 4.98529 21.23021 0.01641
C 8.65436 30.46439 0.02819
C 7.25515 29.8339 0.00165
C 7.16975 28.55145 -0.02971
C 7.28469 19.8762 0.02894
C 8.55187 17.77979 -0.01789
C 7.45312 17.08886 0.00444
C 7.41468 15.56884 -0.00925
C 8.70698 14.96057 0.01877
C 8.61905 13.5432 0.01363
C 7.4262 12.76381 -0.02162
C 7.43787 11.36616 0.00415
C 8.63273 10.63922 -0.0014
C 8.57267 9.22649 0.02162
C 7.37564 8.59483 0.0076
C 7.37615 7.13868 0.01241
C 8.60749 6.40018 -0.01454
C 8.61207 4.98746 0.01945
C 8.5966 31.82382 -0.00891
C 7.398 32.54558 -0.01046
C 4.91813 34.06618 -0.02689
C 6.22928 0.73097 -0.01536
C 4.94414 19.84976 -0.00719
C 6.18529 19.09484 0.01364
C 6.17043 17.68434 -0.01062
C 4.86437 16.99504 -0.00033
C 4.91616 15.5863 0.03589
C 6.18214 14.89173 -0.02759
C 6.16521 13.52843 0.0402
C 4.96567 12.80052 0.00572
C 7.32311 2.84574 0.03542
C 4.91503 11.39019 0.03592
C 6.15794 9.26086 0.00943
C 4.89156 8.57177 0.02841
C 4.87731 7.10848 -0.01111
C 6.14871 6.4634 -0.01275
C 6.09819 5.01541 0.00985
C 4.86359 4.28206 -0.02245
C 4.92856 2.79538 -0.00428
C 6.14883 2.07249 0.03101
C 6.11643 10.61274 0.00406
C 20.78617 10.73573 -0.00478
C 20.87536 9.34894 -0.01662
C 19.70392 8.55679 -0.01185
C 33.19692 30.54193 -0.02142
C 31.92462 29.82203 0.0544
C 33.19724 27.73239 0.00026
C 33.13158 26.36136 0.00682
C 31.96849 25.63508 -0.01779
C 31.71193 24.25857 0.03794
C 33.03921 23.45369 0.01927
C 33.15328 22.01583 0.01574
C 31.88975 21.26065 -0.02383
C 31.93143 19.89624 -0.01429
C 33.18348 19.18852 -0.0136
C 33.2123 17.72675 0.00594
C 31.97479 17.06719 -0.02474
C 31.98763 15.64463 0.00369
C 33.21251 14.9358 0.00455
C 33.14703 13.46895 -0.00644
C 31.94489 12.81794 -0.01839
C 33.09465 32.01468 0.01428
C 31.98035 11.37325 0.00137
C 31.88683 32.63968 -0.01694
C 30.7157 0.73073 0.00346
C 30.7192 19.21168 -0.00669
C 30.72104 17.71962 0.0101
C 29.58512 17.01698 0.01705
C 29.51411 15.58433 -0.0405
C 30.79123 14.97053 -0.01303
C 30.68714 13.52182 -0.01461
C 29.39199 12.82813 -0.02155
C 29.46765 11.42127 -0.00944
C 30.73683 10.63927 -0.03735
C 30.73238 9.25726 -0.00971
C 29.49369 8.50189 0.01518
C 29.34889 7.08384 0.01908
C 30.65862 6.37251 0.07705
C 30.70087 5.02833 0.0103
C 29.56538 4.22679 0.02108
C 29.54763 2.8158 0.00716
C 30.82188 2.13502 0.00307
C 29.51179 33.92506 0.01713
C 33.16293 10.65901 0.00199
C 33.16235 9.21518 0.04381
C 31.92318 8.51113 0.02806
C 1.17767 17.77485 0.01223
C 34.36108 17.03516 0.00648
C 0.04931 15.615 0.02114
C 1.27591 14.89752 -0.02957
C 1.26332 13.44005 0.00343
C 34.43062 12.77826 -0.02656
C 34.40923 11.37341 -0.02442
C 1.23088 10.55856 -0.00027
C 1.15894 9.19706 -0.00583
C 34.40624 8.53128 -0.02302
C 34.37609 7.06602 -0.02849
C 1.19254 6.4421 0.02931
C 1.15948 4.95518 0.00628
C 34.38256 4.22579 -0.0345
C 0.00353 2.85257 -0.00931
C 1.21404 2.11927 -0.00939
C 1.26876 0.70459 -0.00468
C 1.24735 19.18999 -0.01678
C 0.04515 19.87936 0.01951
C 0.02842 21.23633 -0.02213
C 1.26606 21.93861 0.02712
C 31.9127 7.08228 0.01504
C 33.12502 6.38413 -0.00069
C 33.18778 4.96585 0.04926
C 31.9822 4.32847 -0.03838
C 31.98133 2.85821 0.00349
C 33.21679 2.18844 -0.00323
C 33.16561 0.7362 -0.00841
C 31.90959 0.00127 0.0001
C 29.48003 19.84618 0.03531
C 34.38617 32.72404 -0.02927
C 1.24004 30.57538 0.01027
C 0.05016 29.84175 0.01831
C 0.01254 28.41747 -0.01037
C 1.24905 27.73491 -0.00439
C 1.2509 26.31984 -0.00598
C 0.01236 25.52511 -0.05239
C 34.4017 24.17366 0.03076
C 1.20356 23.35422 0.00723
C 1.21777 32.03618 -0.01404
C 29.41921 21.26955 0.01836
C 30.68998 22.06835 -0.03039
C 30.6391 23.39426 -0.01415
C 22.09064 11.39619 -0.0276
C 23.35075 10.61324 0.03005
C 23.37706 9.26771 -0.04078
C 22.09307 8.59344 0.02117
C 22.12218 7.16259 0.02737
C 23.351 6.38099 -0.00498
C 23.34388 4.93292 0.00135
C 22.08138 4.29513 0.03102
C 22.07267 2.84671 0.02555
C 23.3048 2.12354 0.01423
C 23.30386 0.77029 -0.00285
C 22.13477 34.04706 -0.009
C 24.5592 32.77303 -0.01199
C 25.8038 21.97024 -0.00229
C 24.59217 21.44402 -0.00938
C 24.59102 19.91132 -0.0264
C 25.77576 19.12177 -0.01154
C 22.18244 12.77152 0.00768
C 23.40694 13.51844 -0.00178
C 23.43227 14.89745 0.00733
C 22.17992 15.52629 -0.02118
C 19.71751 7.17253 0.01126
C 20.92605 6.4864 0.01852
C 20.86783 4.98064 -0.00381
C 19.66315 4.25052 0.03046
C 19.56654 2.76882 0.0296
C 20.86428 2.12182 0.03374
C 20.92125 0.66993 -0.02845
C 19.68079 34.01907 -0.03213
C 25.87044 17.74363 0.00684
C 22.12326 32.59535 0.02239
C 23.3835 30.47082 0.02734
C 22.10597 29.85782 -0.0055
C 22.04672 28.44878 0.01515
C 23.35905 23.39859 -0.00225
C 23.39816 22.07813 0.00071
C 23.47798 19.11699 -0.01107
C 23.18591 17.81601 -0.01586
C 22.2009 16.87075 -0.01971
C 23.40762 31.89502 0.01153
C 3.65164 32.04204 -0.01303
C 24.53039 17.0484 -0.01052
C 25.84342 14.89599 0.00367
C 28.27701 14.91522 0.01094
C 28.18812 13.52263 0.00235
C 27.02132 12.72614 0.01495
C 27.04637 11.33789 0.01259
C 28.34771 10.64441 0.01799
C 28.27114 9.26182 0.01699
C 27.04128 8.56007 -0.00416
C 27.08346 7.12319 0.01177
C 28.20444 6.36986 0.04266
C 28.29001 4.86477 0.01324
C 27.10672 4.17341 0.0014
C 27.13393 2.79014 0.00924
C 28.35627 2.06689 0.02326
C 28.30779 0.60133 0.00261
C 27.04781 33.99923 0.03265
C 29.51002 32.60428 -0.02049
C 30.66088 31.83938 -0.01854
C 27.09328 15.59717 0.02198
C 27.03166 17.05444 0.02611
C 28.22284 17.72666 -0.00621
C 28.26123 19.16173 0.00194
C 25.78712 13.45354 0.04306
C 24.56115 12.7388 0.00996
C 24.57176 11.34291 0.00195
C 25.76575 10.58472 -0.00802
C 25.83703 9.2114 -0.00218
C 24.60599 8.49972 -0.01654
C 24.57159 7.11309 -0.00037
C 25.79283 6.37316 -0.0032
C 24.60743 15.59557 -0.01679
C 25.8837 4.92617 0.00622
C 24.58457 2.86933 -0.00942
C 25.91679 2.09201 0.00487
C 25.84912 0.71493 0.00826
C 24.63266 0.02699 -0.00294
C 26.84667 32.67251 0.00152
C 28.34501 21.94918 0.01257
C 27.09464 21.54758 0.02316
C 26.97068 19.85265 0.04185
C 24.61382 4.23886 -0.02815
C 2.42686 32.73668 0.00848
