359
Graphene
C 34.37194 0.0186 0.01295
C 11.00773 0.65151 -0.01957
C 9.83089 33.96294 -0.0108
C 12.30264 32.61271 -0.00368
C 13.50219 31.98587 -0.02696
C 13.52849 30.53454 -0.00114
C 12.37018 29.80163 0.00228
C 12.32322 28.42017 0.00798
C 13.52398 27.66675 0.00422
C 10.97299 2.08335 0.02058
C 13.59885 26.24642 0.0351
C 12.34432 24.09282 0.02098
C 13.61881 23.40989 0.01848
C 13.61611 21.97826 -0.00619
C 12.31798 21.33272 -0.02162
C 12.36159 19.79879 0.00889
C 13.58458 19.21047 -0.00481
C 12.22062 17.01441 0.00979
C 12.15151 4.0136 0.01443
C 12.33674 25.57213 -0.03113
C 9.76853 2.75728 0.01965
C 9.78174 4.12214 -0.03682
C 11.13164 4.94043 0.00052
C 9.85673 29.8867 0.01877
C 9.75759 28.44885 0.01363
C 10.96172 27.74853 -0.02162
C 11.10685 26.28965 0.00415
C 9.8571 25.62479 -0.0014
C 9.828 24.19683 0.02162
C 11.1364 23.47168 0.0076
C 11.11241 22.10397 0.01241
C 9.84404 21.40871 -0.01454
C 9.78757 19.94908 0.01945
C 11.08157 19.28104 0.01416
C 11.19362 17.76731 0.03542
C 9.84021 16.85807 0.02299
C 9.90036 15.43137 0.00244
C 9.72112 12.77356 -0.01717
C 9.96012 11.46743 0.05265
C 9.69256 8.37893 -0.01952
C 9.94562 7.04102 -0.02813
C 10.98118 6.27558 0.00374
C 12.24418 2.64516 0.03505
C 11.12567 30.539 -0.00925
C 13.41551 2.07545 -0.02815
C 12.35017 34.00906 -0.05302
C 18.36647 26.34687 -0.0054
C 17.20811 25.56353 0.00667
C 17.18004 24.17038 0.00143
C 18.36112 23.42267 -0.017
C 18.41869 21.93423 0.00364
C 17.16152 21.15794 -0.00831
C 17.14374 19.86371 -0.02957
C 17.17969 2.76413 -0.04422
C 18.39452 27.75765 0.00755
C 18.38848 2.20525 0.00654
C 17.17238 0.06234 -0.04076
C 19.58562 32.64824 -0.00652
C 20.80951 31.89695 0.0058
C 20.84485 30.47142 -0.00865
C 19.61664 29.83323 0.00675
C 19.69945 28.35947 -0.00311
C 20.8737 27.6395 0.00742
C 20.79984 26.23567 -0.01594
C 18.4552 0.75834 -0.00703
C 17.17571 28.46609 0.01739
C 17.20742 29.91211 0.03754
C 18.42288 30.53384 -0.03557
C 14.75486 32.69358 0.00213
C 15.94482 32.00067 -0.00066
C 15.93831 30.59294 -0.00289
C 14.73474 29.82844 0.00028
C 14.68743 28.36978 -0.02213
C 15.93026 27.78399 0.03698
C 16.00204 26.31776 -0.00109
C 14.80237 25.58893 -0.00491
C 14.81355 24.15929 0.03338
C 15.99618 23.44636 -0.0258
C 16.00094 21.9863 -0.0331
C 14.84833 21.2178 -0.00316
C 14.71215 19.78977 0.02188
C 14.64436 2.93625 -0.01979
C 15.9281 2.28415 0.02691
C 15.98906 0.79033 -0.01581
C 14.78659 0.06474 0.01452
C 17.17168 32.75383 0.04892
C 18.34179 31.96975 -0.00111
C 13.52676 0.7131 -0.04147
C 19.56194 25.57687 0.0106
C 11.07862 31.97079 0.00444
C 7.27705 0.05533 0.02894
C 3.63994 6.47023 0.01849
C 3.68084 5.07053 -0.01142
C 2.42199 4.31683 -0.00562
C 2.39418 2.84748 -0.00494
C 3.73591 2.1702 0.00054
C 3.68823 0.78265 0.03007
C 2.44041 0.10221 -0.00095
C 4.86109 32.61039 0.01572
C 2.47318 7.20255 0.01396
C 6.06076 31.96493 -0.04848
C 4.86387 29.85637 -0.01362
C 4.88565 28.46605 -0.0008
C 6.11264 27.74618 0.0288
C 6.12529 26.32208 0.00393
C 4.93528 25.52191 0.00895
C 4.90129 24.20071 0.00685
C 6.15473 23.47266 0.02888
C 6.20243 22.0596 -0.00482
C 6.09362 30.53658 -0.00892
C 2.51127 8.59792 0.0127
C 3.70515 9.28724 0.02635
C 3.66321 10.74859 -0.01378
C 3.61967 30.56749 -0.00094
C 2.41131 29.80538 0.02322
C 2.40083 28.44643 -0.00725
C 3.6254 27.68842 -0.05697
C 3.72057 26.29365 0.01087
C 2.36838 25.60078 -0.01343
C 2.45261 24.16784 0.00988
C 3.7228 23.48582 0.0276
C 3.69821 21.9787 0.01305
C 2.45312 21.2676 -0.00077
C 2.40984 19.88214 0.03368
C 3.72507 19.17743 -0.02929
C 3.72569 17.73974 -0.00966
C 2.53703 17.02779 -0.03337
C 2.44392 15.60319 0.01227
C 3.70759 14.89437 0.00873
C 3.67074 13.42412 -0.00049
C 2.49414 12.76192 0.00848
C 2.48112 11.40706 -0.01303
C 4.89175 21.38145 -0.01384
C 9.8015 32.67352 -0.01789
C 4.89914 19.97385 0.03693
C 6.21583 17.58209 0.00488
C 8.5964 22.02613 0.00572
C 7.41272 21.28466 0.03592
C 7.43182 19.88532 0.00406
C 8.65629 19.15298 0.00943
C 8.62949 17.66654 0.02841
C 7.47939 17.05689 -0.01111
C 8.96314 13.79035 -0.01275
C 7.56501 11.47086 0.00985
C 8.6317 23.48425 0.0402
C 8.77805 10.80537 -0.02245
C 7.37074 8.61561 0.03101
C 7.41177 7.13279 -0.01536
C 8.6384 6.3734 -0.02689
C 8.52855 4.88277 -0.01046
C 7.28033 4.2241 -0.00891
C 7.29671 2.87992 0.02819
C 8.45507 2.1089 0.00165
C 8.51443 0.66236 -0.02971
C 8.69164 9.29486 -0.00428
C 7.36634 24.26439 -0.02759
C 7.39071 25.62277 0.03589
C 8.61329 26.33066 -0.00033
C 4.94972 17.06255 -0.01004
C 4.92065 11.38184 -0.02896
C 6.22144 10.90574 -0.00131
C 6.19674 9.35102 -0.01118
C 4.96142 8.62789 -0.014
C 4.9534 7.1297 0.02147
C 6.15511 6.48892 0.00373
C 6.08452 5.05119 -0.00191
C 4.89335 4.38131 0.00438
C 4.84177 2.96107 0.01291
C 6.08852 2.1698 0.00093
C 6.06482 0.75168 0.00057
C 4.87481 34.05239 -0.01634
C 7.31658 32.7039 -0.00334
C 8.50258 31.96627 0.02339
C 8.53404 30.60352 0.01641
C 7.31513 29.8738 -0.00719
C 7.29472 28.43847 0.01364
C 8.51244 27.73413 -0.01062
C 6.11012 19.14518 0.01745
C 3.61356 31.98799 -0.02566
C 19.60952 24.08792 -0.01154
C 20.90382 21.92392 -0.02422
C 31.91766 32.68633 0.01713
C 33.22392 31.96455 -0.01694
C 33.23967 30.57395 0.01428
C 31.96269 29.79941 -0.02142
C 31.9813 28.47133 0.0544
C 33.19033 27.67235 0.00026
C 33.18534 26.24477 0.00682
C 31.89759 25.59037 -0.01779
C 29.59342 34.07398 0.00346
C 31.92064 24.1543 0.03794
C 33.1538 22.01652 0.01574
C 31.90692 21.3851 -0.02383
C 31.94345 19.87758 -0.01429
C 33.21891 19.16418 -0.0136
C 33.17603 17.70973 0.00594
C 31.96446 17.04348 -0.02474
C 31.95544 15.58183 0.00369
C 33.2069 14.86527 0.00455
C 33.10911 23.44104 0.01927
C 30.74136 0.70879 0.00307
C 30.71344 2.12897 0.00716
C 29.50422 2.85426 0.02108
C 30.59583 23.48405 -0.01854
C 30.61262 21.99106 -0.01415
C 29.3735 21.23511 -0.03039
C 29.49228 19.85881 0.01836
C 30.71301 19.15878 0.03531
C 30.74978 17.702 -0.00669
C 29.49008 17.03016 0.0101
C 29.48187 15.62298 0.01705
C 30.72355 14.91378 -0.0405
C 30.68492 13.48174 -0.01303
C 29.44024 12.79209 -0.01461
C 29.52828 11.32597 -0.02155
C 30.76533 10.63442 -0.00944
C 30.75972 9.208 -0.03735
C 29.5446 8.45677 -0.00971
C 29.48832 7.04863 0.01518
C 30.69342 6.37428 0.01908
C 30.80772 4.9092 0.07705
C 29.51407 4.22572 0.0103
C 33.15683 13.48277 -0.00644
C 29.37423 24.20587 -0.02049
C 31.90563 12.77061 -0.01839
C 33.26141 10.6451 0.00199
C 1.23949 19.11854 -0.01678
C 1.26457 17.76203 0.01223
C 0.00219 17.04028 0.00648
C 0.03364 15.57184 0.02114
C 1.21154 14.88384 -0.02957
C 1.2173 13.52105 0.00343
C 34.36334 12.74644 -0.02656
C 34.42364 11.39357 -0.02442
C 34.42823 19.85093 0.01951
C 1.22039 10.72152 -0.00027
C 0.00766 8.57271 -0.02302
C 34.41256 7.15305 -0.02849
C 1.21746 6.48134 0.02931
C 1.29272 5.10776 0.00628
C 0.01812 4.29263 -0.0345
C 34.39243 2.87594 -0.00931
C 1.15861 2.18789 -0.00939
C 1.18095 0.75735 -0.00468
C 1.21214 9.24651 -0.00583
C 34.35463 21.28153 -0.02213
C 1.23729 22.00342 0.02712
C 1.24199 23.37959 0.00723
C 33.229 9.27026 0.04381
C 32.02556 8.40936 0.02806
C 31.9441 7.09597 0.01504
C 33.22548 6.38997 -0.00069
C 33.20742 4.9688 0.04926
C 31.94408 4.20204 -0.03838
C 31.95754 2.86506 0.00349
C 33.17757 2.11479 -0.00323
C 33.15635 0.73519 -0.00841
C 31.96369 0.00738 0.0001
C 34.38236 32.74406 -0.02927
C 1.14102 31.97744 -0.01404
C 1.19095 30.54878 0.01027
C 34.40399 29.8726 0.01831
C 34.41341 28.4337 -0.01037
C 1.22741 27.68682 -0.00439
C 1.22108 26.23864 -0.00598
C 34.37797 25.50289 -0.05239
C 34.35973 24.13055 0.03076
C 31.96544 11.32715 0.00137
C 20.84151 23.29393 -0.01721
C 29.46855 25.66381 0.03265
C 30.78087 27.75144 0.02326
C 23.3939 0.7531 0.00071
C 22.17846 0.01743 -0.01107
C 24.54886 32.67117 -0.01586
C 25.82235 32.02324 -0.01971
C 25.7845 30.53296 -0.02118
C 24.57028 29.84354 0.00733
C 24.63203 28.33379 -0.00178
C 25.8664 27.60283 0.00768
C 23.3691 2.10643 -0.00225
C 25.74489 26.25815 -0.0276
C 24.50217 24.15371 -0.04078
C 25.76973 23.44993 0.02117
C 25.76872 21.97375 0.02737
C 24.58307 21.17559 -0.00498
C 24.61633 19.83833 0.00135
C 25.79485 19.15615 0.03102
C 25.66495 17.72988 0.02555
C 24.55247 16.99713 0.01423
C 24.48154 25.52992 0.03005
C 22.16846 2.80279 0.01515
C 23.40093 18.97536 -0.0055
C 22.15747 19.62217 0.02734
C 19.66313 21.19955 0.01277
C 19.69135 19.83451 0.00096
C 20.90901 19.20402 -0.01527
C 19.66405 2.70428 0.01087
C 20.89177 2.26504 0.00199
C 20.89439 0.76813 0.01511
C 19.72575 34.04433 -0.00478
C 22.13524 32.63888 -0.01662
C 23.35339 31.95133 -0.01185
C 23.33859 30.5329 0.01126
C 22.10913 29.74359 0.01852
C 22.05025 28.33839 -0.00381
C 23.25792 27.65101 0.03046
C 23.30566 26.20244 0.0296
C 22.04407 25.50411 0.03374
C 22.05918 24.02271 -0.02845
C 23.33913 23.32239 -0.03213
C 23.33536 21.91969 0.02239
C 22.1232 21.19523 0.01153
C 25.83595 14.7906 -0.00285
C 30.70419 26.35983 0.00261
C 26.06679 6.23625 -0.009
C 24.50869 4.2729 -0.00229
C 27.0641 12.70046 0.02316
C 27.3405 11.42245 0.04185
C 28.3178 10.61001 0.00194
C 28.34228 9.18852 -0.00621
C 27.08456 8.54623 0.02611
C 26.97604 7.14592 0.02198
C 28.27525 6.421 0.01094
C 28.31644 4.97538 0.00235
C 28.20293 13.53687 0.01257
C 27.10447 4.25636 0.01495
C 28.25256 2.16423 0.01799
C 28.28952 0.7587 0.01699
C 27.10862 0.04584 -0.00416
C 29.55649 32.65776 0.01177
C 30.76635 31.98319 0.04266
C 30.77881 30.55849 0.01324
C 29.552 29.90204 0.0014
C 29.56304 28.46695 0.00924
C 27.10905 2.89594 0.01259
C 28.26397 14.89879 0.00152
C 27.02939 15.56097 -0.00294
C 26.923 17.01489 0.00826
C 24.59602 2.87863 -0.00938
C 25.85855 2.11934 -0.0264
C 25.88472 0.80088 -0.01154
C 24.54041 0.01612 0.00684
C 27.08908 32.71 -0.01052
C 28.32603 31.97781 -0.01679
C 28.27579 30.56935 0.00367
C 27.01491 29.77153 0.04306
C 27.08955 28.38743 0.00996
C 28.26018 27.74468 0.00195
C 28.26796 26.32957 -0.00802
C 26.99772 25.58528 -0.00218
C 26.95302 24.16389 -0.01654
C 28.22103 23.42549 -0.00037
C 28.24647 21.97861 -0.0032
C 26.9782 21.27108 0.00622
C 27.0049 19.84296 -0.02815
C 28.21194 19.15507 -0.00942
C 28.25839 17.73303 0.00487
C 25.6562 4.97298 -0.01199
C 2.39759 32.72995 -0.03113
