407
Graphene
C 34.39424 34.03854 0.01295
C 13.48415 30.55746 -0.02689
C 12.25916 29.87309 -0.01046
C 12.24956 28.4287 -0.00891
C 13.43513 27.74022 0.02819
C 13.44685 26.33198 0.00165
C 12.27494 25.53957 -0.02971
C 12.3466 24.09875 0.02894
C 13.53035 23.39128 -0.01789
C 13.50495 22.00768 0.00444
C 12.30648 21.29372 -0.00925
C 12.41065 19.87079 0.01877
C 12.26597 12.69316 0.01363
C 12.50956 11.3081 -0.02162
C 13.70409 10.52002 0.00415
C 13.53671 9.10338 -0.0014
C 12.32829 8.43137 0.02162
C 12.3113 7.04742 0.0076
C 13.51981 6.36663 0.01241
C 13.55338 4.91114 -0.01454
C 12.29552 4.19128 0.01945
C 12.32844 2.80068 0.01416
C 13.45458 31.97972 -0.01536
C 12.25271 32.71443 0.03101
C 9.78474 0.08862 -0.00428
C 10.96498 0.76355 -0.02245
C 9.80116 24.16609 0.01291
C 11.12785 23.45112 0.00093
C 11.06285 21.98647 0.00057
C 9.81833 21.33485 -0.01634
C 9.88628 19.93211 -0.00334
C 11.2363 19.13986 0.02339
C 10.89384 17.85766 0.01641
C 9.7607 17.14806 -0.00719
C 9.84639 15.71807 0.01364
C 10.98119 14.9379 -0.01062
C 13.52974 2.12886 0.03542
C 11.267 13.59354 -0.00033
C 9.89652 11.41954 -0.02759
C 11.2007 10.66044 0.0402
C 11.08968 9.16815 0.00572
C 9.82948 8.5128 0.03592
C 9.80939 7.12193 0.00406
C 11.06319 6.37329 0.00943
C 11.09578 4.98065 0.02841
C 9.82905 4.35 -0.01111
C 9.81677 2.98496 -0.01275
C 11.03482 2.15665 0.00985
C 9.96547 12.87439 0.03589
C 9.82859 25.59331 0.00438
C 13.49534 0.7327 0.02299
C 14.72004 32.66166 -0.01717
C 18.4528 27.70493 0.03505
C 18.30964 26.32283 -0.02815
C 17.16496 25.52345 -0.04147
C 17.18275 24.11683 -0.05302
C 18.40956 23.38765 0.00213
C 18.74612 22.05955 -0.00066
C 18.40601 9.19144 -0.00289
C 17.13814 8.66555 0.00028
C 17.14289 7.14323 -0.02213
C 18.41398 6.42693 0.03698
C 18.48793 4.93239 -0.00109
C 17.26965 4.21931 -0.00491
C 17.24624 2.84202 0.03338
C 18.48841 2.14295 -0.0258
C 18.36499 0.72652 -0.0331
C 17.13576 34.06203 -0.00316
C 19.60449 32.7292 0.02188
C 20.84439 31.93006 -0.01979
C 20.92799 30.56866 0.02691
C 19.7264 29.83449 -0.01581
C 19.70094 28.43573 0.01452
C 17.26843 28.44464 0.01443
C 17.26304 29.80386 0.00979
C 18.46419 30.49836 -0.00481
C 18.42836 31.90374 0.00889
C 15.96393 31.95427 0.05265
C 16.07041 30.56624 -0.01952
C 14.79751 29.87488 -0.02813
C 14.75838 28.4108 0.00374
C 15.98493 27.67088 0.00052
C 15.99204 26.26305 -0.03682
C 14.66972 25.54279 0.01965
C 14.71909 24.06478 0.02058
C 15.97586 23.45003 -0.01957
C 15.84125 22.10438 -0.0108
C 12.18763 0.05472 0.00244
C 14.74952 21.30469 -0.00368
C 14.73603 8.40219 -0.00114
C 14.75369 6.99387 0.00228
C 15.967 6.30869 0.00798
C 15.99921 4.93323 0.00422
C 14.78258 4.21087 0.0351
C 14.76008 2.78844 -0.03113
C 16.0175 2.11065 0.02098
C 15.95982 0.63678 0.01848
C 14.68323 34.07507 -0.00619
C 17.17592 32.62855 -0.02162
C 15.83057 9.13895 -0.02696
C 20.94593 27.73705 0.04892
C 11.04822 26.27839 -0.00191
C 9.79445 28.38436 0.02147
C 2.3837 2.8635 0.02379
C 3.63619 2.17049 0.00907
C 3.63822 0.74143 0.00643
C 2.39108 0.01622 -0.01509
C 4.8284 32.72506 0.03267
C 6.01659 32.07669 0.02374
C 6.06072 30.57569 0.00402
C 4.83779 29.86299 0.0073
C 4.80774 28.46383 0.0174
C 6.0283 27.76589 0.03828
C 6.15046 26.32349 0.01226
C 4.88996 25.59807 -0.00279
C 4.98421 24.15912 0.01996
C 6.19133 23.45904 -0.03996
C 6.16421 22.06012 0.01465
C 4.86185 21.34065 -0.00074
C 4.85909 19.95259 -0.00518
C 6.14475 19.25733 0.0086
C 6.15593 17.76718 -0.00643
C 4.90584 17.05235 0.017
C 4.88694 15.61948 -0.03113
C 2.4353 4.27981 0.01402
C 3.69463 4.97333 -0.003
C 3.65256 6.34432 0.00031
C 2.41144 7.10841 0.03189
C 3.59864 30.56861 -0.0059
C 2.37155 29.83639 -0.01386
C 2.36551 28.42545 -0.02805
C 3.61068 27.76147 0.00081
C 3.67505 26.27282 0.00245
C 2.43686 25.57141 0.02728
C 2.45906 24.06102 -0.00039
C 3.73206 23.38102 0.0064
C 3.68734 21.99987 0.00211
C 2.44587 21.3641 -0.00449
C 6.17149 14.96012 -0.02566
C 2.42407 19.90724 -0.01979
C 3.66297 17.76133 -0.01977
C 2.45078 17.09012 -0.00561
C 2.40103 15.67715 0.00208
C 3.61711 14.93869 0.01707
C 3.65881 13.56928 0.02769
C 2.44861 12.78796 -0.03291
C 2.43106 11.37595 -0.04999
C 3.6645 10.6721 0.04505
C 3.65437 9.27594 0.03284
C 2.45577 8.50986 -0.04307
C 3.62602 19.18361 0.02784
C 11.05104 27.68474 0.00373
C 6.1746 13.49837 -0.00094
C 4.90399 11.33904 -0.00725
C 7.3681 17.06715 -0.00095
C 7.37016 15.71951 0.01572
C 8.59736 14.96592 -0.04848
C 8.71475 13.54181 -0.00892
C 7.38902 12.76447 -0.01362
C 7.42853 11.37533 -0.0008
C 8.67335 10.66512 0.0288
C 8.62327 9.25474 0.00393
C 7.36007 8.59718 0.00895
C 7.32129 7.21268 0.00685
C 8.56221 6.46692 0.02888
C 8.62066 5.11806 -0.00482
C 7.35655 4.37591 -0.01384
C 7.27517 3.00236 0.03693
C 8.48843 2.2851 0.01745
C 8.59047 0.86183 0.00488
C 7.29305 0.10139 -0.01004
C 9.74852 32.77027 -0.02896
C 10.98099 32.06617 -0.00131
C 11.02733 30.60831 -0.01118
C 9.78661 29.88341 -0.014
C 8.52788 17.83911 0.03007
C 8.56856 19.26208 0.00054
C 7.32339 19.97319 -0.00494
C 7.38179 21.38575 -0.00562
C 6.14185 10.70888 -0.05697
C 6.09058 9.29925 0.01087
C 4.85948 8.51828 -0.01343
C 4.89729 7.08701 0.00988
C 6.12861 6.43922 0.0276
C 6.14129 5.06986 0.01305
C 4.92872 4.29256 -0.00077
C 4.8957 2.8864 0.03368
C 6.13021 2.17521 -0.02929
C 6.12597 0.78808 -0.00966
C 4.87293 12.80049 0.02322
C 4.86486 0.05899 -0.03337
C 8.58404 32.01166 0.00873
C 8.54388 30.53532 -0.00049
C 7.25331 29.83625 0.00848
C 7.33374 28.41605 -0.01303
C 8.54268 27.70608 -0.01378
C 8.54063 26.30366 0.02635
C 7.3518 25.61673 0.0127
C 7.40841 24.15656 0.01396
C 8.6148 23.42769 0.01849
C 8.64993 22.02902 -0.01142
C 7.29742 32.71532 0.01227
C 3.67619 31.96567 0.00558
C 20.84902 26.3355 -0.00111
C 19.61697 24.22529 0.03754
C 29.48232 8.43431 -0.00971
C 29.47838 7.04919 0.01518
C 30.71582 6.37502 0.01908
C 30.79074 4.92622 0.07705
C 29.50552 4.2032 0.0103
C 29.56639 2.83037 0.02108
C 30.77804 2.09535 0.00716
C 30.76115 0.66428 0.00307
C 29.50843 34.01497 0.00346
C 31.96816 32.59869 0.01713
C 33.2282 31.95353 -0.01694
C 33.20675 30.52545 0.01428
C 31.9279 29.81872 -0.02142
C 31.86565 28.39176 0.0544
C 33.11991 27.67534 0.00026
C 33.12313 26.21871 0.00682
C 31.87447 25.57663 -0.01779
C 31.88417 24.17363 0.03794
C 33.17995 23.44541 0.01927
C 33.18675 22.00543 0.01574
C 31.98307 21.30886 -0.02383
C 30.73205 9.19781 -0.03735
C 30.76277 10.61333 -0.00944
C 29.4579 11.32044 -0.02155
C 29.49058 12.77822 -0.01461
C 28.33095 2.08215 0.01799
C 28.29134 0.67006 0.01699
C 27.04587 0.01234 -0.00416
C 29.49697 32.6143 0.01177
C 30.79974 31.90049 0.04266
C 30.71075 30.55348 0.01324
C 29.49615 29.84001 0.0014
C 29.47967 28.42121 0.00924
C 30.67504 27.66344 0.02326
C 30.66978 26.33917 0.00261
C 31.98284 19.87475 -0.01429
C 29.47684 25.63566 0.03265
C 30.6403 23.48528 -0.01854
C 30.65072 22.00333 -0.01415
C 29.47462 21.32318 -0.03039
C 29.53084 19.88405 0.01836
C 30.72163 19.20884 0.03531
C 30.82112 17.78758 -0.00669
C 29.51346 17.05839 0.0101
C 29.44632 15.61478 0.01705
C 30.676 14.90273 -0.0405
C 30.71965 13.46288 -0.01303
C 29.43489 24.181 -0.02049
C 27.09283 2.77625 0.01259
C 33.14013 19.11899 -0.0136
C 31.94268 16.99573 -0.02474
C 1.14599 22.01618 0.02712
C 34.36281 21.29596 -0.02213
C 34.34208 19.87336 0.01951
C 1.17889 19.18612 -0.01678
C 1.19601 17.7501 0.01223
C 34.41088 17.02546 0.00648
C 34.38193 15.65307 0.02114
C 1.2086 14.9073 -0.02957
C 1.19483 13.49292 0.00343
C 34.37868 12.72468 -0.02656
C 0.00757 11.37003 -0.02442
C 1.24898 10.68201 -0.00027
C 1.27445 9.19231 -0.00583
C 34.40637 8.53134 -0.02302
C 34.41969 7.15268 -0.02849
C 1.17602 6.41478 0.02931
C 1.23342 5.00405 0.00628
C 34.4242 4.24507 -0.0345
C 34.39186 2.84114 -0.00931
C 1.18975 2.14115 -0.00939
C 1.17415 0.69905 -0.00468
C 1.21472 23.41087 0.00723
C 34.40482 24.06584 0.03076
C 34.40346 25.48963 -0.05239
C 1.18629 26.291 -0.00598
C 31.87655 15.57953 0.00369
C 33.13167 14.90776 0.00455
C 33.1619 13.45988 -0.00644
C 31.90836 12.75717 -0.01839
C 32.01685 11.29943 0.00137
C 33.24515 10.64467 0.00199
C 33.16137 9.25744 0.04381
C 32.02492 8.44149 0.02806
C 31.95815 7.0796 0.01504
C 33.21905 6.39489 -0.00069
C 33.15204 17.70959 0.00594
C 33.16858 4.96098 0.04926
C 32.02117 2.83454 0.00349
C 33.18135 2.13852 -0.00323
C 33.18076 0.6857 -0.00841
C 31.97239 34.05159 0.0001
C 34.39954 32.67402 -0.02927
C 1.1898 31.97651 -0.01404
C 1.09676 30.51797 0.01027
C 34.35719 29.70919 0.01831
C 34.40219 28.35287 -0.01037
C 1.18316 27.64248 -0.00439
C 32.02055 4.18312 -0.03838
C 19.53392 25.6022 -0.03557
C 27.04905 4.19209 0.01495
C 28.30234 6.3721 0.01094
C 23.12628 19.06621 -0.01527
C 23.44159 17.69088 0.01087
C 23.34344 13.62922 0.00199
C 22.18093 11.11366 0.01511
C 23.49263 10.61768 -0.00478
C 23.42877 9.20344 -0.01662
C 22.13414 8.56733 -0.01185
C 22.11218 7.11775 0.01126
C 23.34677 6.40683 0.01852
C 23.44279 4.89195 -0.00381
C 22.13212 4.2163 0.03046
C 22.12859 2.83364 0.0296
C 23.40724 2.08798 0.03374
C 23.36683 0.62558 -0.02845
C 22.03592 34.03385 -0.03213
C 24.58761 32.69412 0.02239
C 25.8469 31.98755 0.01153
C 25.84174 30.53998 0.02734
C 24.65342 29.80962 -0.0055
C 24.61066 28.37523 0.01515
C 25.80405 27.60967 -0.00225
C 22.21706 20.03397 0.00096
C 21.8966 21.38798 0.01277
C 23.28252 21.99656 -0.02422
C 23.3283 23.40111 -0.01721
C 20.8626 23.52149 0.01739
C 20.62792 22.09855 0.00755
C 20.96644 10.64911 -0.0054
C 20.89429 9.27602 0.00667
C 19.68146 8.51075 0.00143
C 19.67543 7.0773 -0.017
C 20.87149 6.37696 0.00364
C 20.92753 4.90107 -0.00831
C 19.69164 4.2156 -0.02957
C 19.69642 2.79832 -0.04422
C 25.70636 26.22519 0.00071
C 20.89692 2.11572 0.00654
C 19.65198 0.07191 -0.04076
C 22.07261 32.6795 -0.00652
C 23.30693 31.96742 0.0058
C 23.35046 30.51609 -0.00865
C 22.17284 29.83081 0.00675
C 22.15596 28.4688 -0.00311
C 23.33356 27.71537 0.00742
C 23.34085 26.26565 -0.01594
C 22.10294 25.51604 0.0106
C 22.10795 24.12462 -0.01154
C 20.83622 0.67848 -0.00703
C 28.31011 4.95217 0.00235
C 24.51844 25.56481 -0.01107
C 25.76359 23.38061 -0.01971
C 27.03185 28.39696 0.00996
C 28.27708 27.73858 0.00195
C 28.21124 26.29524 -0.00802
C 26.9775 25.48071 -0.00218
C 27.01019 24.03403 -0.01654
C 28.27639 23.41039 -0.00037
C 28.27555 22.03719 -0.0032
C 27.05665 21.30092 0.00622
C 27.08194 19.87026 -0.02815
C 28.32276 19.19234 -0.00942
C 28.30723 17.78318 0.00487
C 27.1314 17.04871 0.00826
C 27.07385 15.72217 -0.00294
C 28.23582 14.93541 0.00152
C 28.31533 13.52981 0.01257
C 27.05826 12.80856 0.02316
C 27.11009 11.40093 0.04185
C 28.24611 10.61101 0.00194
C 28.32025 9.19621 -0.00621
C 27.10989 8.5366 0.02611
C 27.04192 7.08329 0.02198
C 27.1204 29.84558 0.04306
C 28.27462 30.54779 0.00367
C 28.31931 31.94534 -0.01679
C 27.01613 32.64026 -0.01052
C 25.82477 21.92066 -0.02118
C 24.5592 21.27062 0.00733
C 24.51453 19.75159 -0.00178
C 25.77032 19.08961 0.00768
C 25.87357 17.68685 -0.0276
C 24.56434 16.88783 0.03005
C 24.53703 15.47137 -0.04078
C 25.8165 14.93852 0.02117
C 25.779 13.46885 0.02737
C 24.55752 12.74844 -0.00498
C 24.55256 24.11686 -0.01586
C 24.64892 11.38816 0.00135
C 25.85454 9.2209 0.02555
C 24.66819 8.51489 0.01423
C 24.61549 7.06241 -0.00285
C 25.78497 6.33503 -0.009
C 25.85168 4.88586 -0.01199
C 24.62674 4.17554 -0.00229
C 24.76929 2.77386 -0.00938
C 25.88399 2.03763 -0.0264
C 25.84125 0.66358 -0.01154
C 24.59733 34.03491 0.00684
C 25.8823 10.69776 0.03102
C 2.39227 32.70572 -0.02375
