287
Graphene
C 0.01819 0.02148 -0.01718
C 12.34932 0.01055 -0.00333
C 14.74175 32.70813 0.00684
C 15.98908 31.98665 -0.01865
C 16.00816 30.52715 -0.0612
C 14.78822 29.8704 -0.01896
C 14.76494 28.38754 -0.0105
C 13.49843 0.67291 -0.00546
C 15.97247 27.66959 -0.05217
C 15.98139 23.33516 0.00361
C 15.98578 21.98662 0.00434
C 14.82533 21.31141 -0.00502
C 14.7831 19.84677 -0.0351
C 16.02238 19.16319 -0.00183
C 14.81728 2.76227 -0.03137
C 16.01225 26.34097 0.02467
C 16.01219 2.09393 -0.0769
C 13.54689 2.07322 0.03327
C 13.49432 17.71909 -0.00273
C 11.12869 17.71449 0.00437
C 9.80807 16.99335 -0.02986
C 9.78226 15.68083 -0.01198
C 11.07454 4.92659 0.01075
C 9.84953 4.29112 -0.05638
C 9.79293 2.90451 -0.00774
C 12.30503 2.87217 -0.04749
C 11.10152 2.1496 -0.00614
C 9.86245 34.06966 0.03269
C 12.33362 32.67242 0.00797
C 13.50904 31.93829 -0.02453
C 13.56691 30.53423 0.04577
C 12.31588 19.86703 0.0021
C 13.52236 19.21576 0.01387
C 11.05561 0.71437 -0.01826
C 11.04386 19.20235 0.08322
C 15.99801 0.66787 -0.00124
C 17.20909 32.64907 -0.00234
C 19.72257 28.41845 0.02882
C 20.93316 27.65443 0.01877
C 20.88904 26.20931 -0.0285
C 19.66903 25.58492 -0.02086
C 19.65876 24.1022 -0.04821
C 20.81735 4.97035 0.04581
C 19.6948 29.85079 0.00144
C 19.76802 4.25504 -0.01183
C 20.91061 2.15899 0.03977
C 20.91177 0.71311 0.00596
C 19.63086 0.0698 0.00812
C 22.12242 32.64823 0.02806
C 23.3298 31.90109 -0.03451
C 23.36869 30.52071 -0.04266
C 19.68539 2.86955 -0.0431
C 14.75279 34.05915 -0.06208
C 20.88212 30.52839 -0.03949
C 19.65578 32.66226 0.03907
C 18.45939 31.91469 -0.00332
C 18.46123 30.55257 -0.01738
C 17.20942 29.79331 -0.0218
C 17.2512 28.37541 -0.02732
C 18.4671 27.66768 0.01503
C 18.46128 26.22411 0.03354
C 20.87006 31.9399 -0.01748
C 17.20261 25.54776 -0.03963
C 18.46473 23.39553 0.00217
C 17.26539 21.24799 0.02456
C 17.19962 2.83647 0.02697
C 18.42008 2.10877 -0.00215
C 18.41864 0.70338 0.05663
C 17.18106 0.02812 0.00604
C 17.1918 24.15893 -0.00262
C 22.11833 29.83916 0.06247
C 11.10058 31.90004 -0.01283
C 7.38838 0.00777 0.04421
C 2.4702 8.53401 -0.04783
C 2.47943 7.11911 0.00091
C 3.72761 6.38381 0.03341
C 3.67133 4.97825 0.00346
C 2.47564 4.23322 -0.05685
C 2.45844 2.82667 0.02899
C 3.67776 9.22246 0.02661
C 3.72725 2.12661 0.00704
C 2.44972 34.0555 -0.01014
C 4.88572 32.67611 0.0053
C 6.10183 32.00439 0.04497
C 4.92019 19.85853 0.05365
C 6.14121 19.17289 0.05071
C 6.16558 17.75878 0.00902
C 3.71331 0.69468 -0.01963
C 4.91576 17.03154 -0.03018
C 3.67325 10.59851 0.0421
C 2.42973 12.76462 0.04834
C 3.68627 30.53774 0.00866
C 2.42982 29.79112 -0.03264
C 2.47562 28.41714 -0.01403
C 2.50847 25.5509 -0.01562
C 2.43198 24.21372 0.00297
C 3.68771 21.98938 -0.03625
C 2.43223 11.38131 -0.04389
C 2.45218 21.31453 0.03055
C 3.69421 19.20327 -0.07601
C 3.72841 17.72592 -0.0301
C 2.48433 17.04631 0.00018
C 2.45387 15.62949 0.01281
C 3.67454 14.91974 -0.00341
C 3.69267 13.50759 -0.00657
C 2.44355 19.90414 -0.02134
C 9.85093 32.55569 -0.02105
C 4.94369 15.62727 0.10285
C 6.14796 13.48874 -0.00521
C 7.37215 15.64532 -0.03579
C 8.56554 14.96102 0.02113
C 8.59296 13.52763 0.01161
C 7.36756 12.74884 -0.03369
C 7.37262 11.36572 0.00031
C 8.56039 9.23692 0.02888
C 7.4183 17.00249 -0.03164
C 7.41744 8.53759 -0.01865
C 8.58533 6.39604 -0.07039
C 8.66095 4.94982 0.00321
C 7.38122 4.24164 -0.00694
C 7.33648 2.82259 0.00057
C 8.6317 2.19931 -0.02556
C 8.63372 0.70798 0.01115
C 7.43093 7.09849 -0.02063
C 6.12286 14.90272 0.04616
C 8.65213 17.73111 0.02808
C 8.57549 31.89788 0.01731
C 4.96096 12.75187 0.00879
C 4.83696 11.31028 0.00682
C 6.16582 10.72431 -0.01287
C 6.12693 9.26408 0.03873
C 4.91375 8.50601 0.05366
C 4.93981 7.1252 -0.02644
C 8.60618 19.08699 0.01839
C 6.18294 6.40133 -0.03924
C 4.94465 4.26563 -0.02776
C 4.92106 2.85696 -0.00297
C 6.14125 2.14015 0.0333
C 6.11787 0.6611 0.01081
C 4.88093 0.00788 0.03475
C 7.41833 32.62911 0.08211
C 6.16827 4.94595 0.00092
C 3.6817 31.95292 0.00969
C 22.11621 28.42519 -0.05035
C 23.35227 26.27739 0.0155
C 33.24884 19.16362 -0.01676
C 33.23174 17.75467 -0.03555
C 31.99757 17.0785 -0.05643
C 31.96908 15.51408 -0.03316
C 33.20986 14.86593 0.04708
C 33.19568 13.48259 -0.00795
C 31.9365 19.83841 0.01898
C 31.96584 12.77448 0.00636
C 33.17825 10.65948 -0.02001
C 33.17164 9.25508 0.05434
C 32.00792 8.46671 -0.00823
C 31.94635 7.13326 0.03156
C 33.19212 6.41272 -0.00495
C 33.22823 4.98585 0.08
C 31.95666 11.32626 0.02976
C 31.98534 4.26556 -0.03746
C 32.03176 21.32885 -0.09474
C 33.21855 23.42015 0.02121
C 29.47037 4.27611 0.00732
C 29.5527 2.83933 0.01201
C 30.75673 2.14828 0.02361
C 30.75126 0.71546 0.01455
C 29.55049 0.00784 -0.01111
C 31.92473 32.70811 0.02043
C 33.20128 22.02114 -0.00581
C 33.22297 31.95808 -0.08034
C 31.94095 29.80213 0.0103
C 32.00555 28.41762 0.047
C 33.22321 27.69201 0.0164
C 33.20798 26.25499 0.04905
C 31.95381 25.57625 -0.00234
C 31.96233 24.18086 0.03979
C 33.22419 30.53311 0.02022
C 30.70876 4.97104 0.08382
C 31.95229 2.89238 0.00832
C 33.20268 0.66413 0.03071
C 1.24588 14.8934 0.00543
C 1.19798 13.53303 0.00474
C 34.41712 12.76737 -0.01687
C 0.02074 11.40914 -0.01447
C 1.23382 10.6413 -0.00722
C 1.23103 9.23576 -0.02191
C 34.38879 15.60111 0.04019
C 0.00101 8.52343 -0.04078
C 1.20209 6.39398 -0.00295
C 1.16067 4.9474 0.03607
C 34.4008 4.22922 -0.00828
C 34.42353 2.78174 -0.00607
C 1.26584 2.17496 0.03338
C 1.22006 0.70409 -0.0354
C 0.00441 7.13077 -0.03511
C 33.19972 2.08958 -0.0206
C 0.00225 17.00779 -0.00206
C 1.24018 19.19985 -0.0362
C 32.00553 34.07763 -0.03637
C 0.01389 32.69106 0.01412
C 1.21962 31.94938 -0.00124
C 1.22239 30.52846 0.01072
C 34.41443 29.81439 0.03203
C 34.39951 28.45837 -0.04062
C 1.2637 17.73415 0.03203
C 1.24732 27.63622 -0.00251
C 0.04094 25.56 -0.06266
C 34.4195 24.16692 0.03262
C 1.22918 23.46524 -0.03003
C 1.22063 22.0261 0.05051
C 34.41858 21.29058 0.00809
C 34.42763 19.87221 0.02137
C 1.2352 26.2881 -0.03835
C 23.38672 27.73854 -0.04229
C 30.75613 6.34985 0.02795
C 29.53567 8.48695 -0.00158
C 25.8706 10.67186 -0.03486
C 25.83099 9.27366 0.00783
C 24.60285 8.50683 0.02817
C 24.55053 7.11098 -0.04706
C 25.86276 6.33866 0.03516
C 25.8149 4.94255 -0.05437
C 24.58518 25.59306 -0.04166
C 24.5662 4.23324 -0.00304
C 25.80343 2.14006 -0.02051
C 25.80548 0.70232 -0.01698
C 24.58896 34.03253 -0.01056
C 27.07291 32.66503 -0.0424
C 28.28808 31.96379 0.01391
C 28.33881 30.52612 0.03545
C 24.59903 2.76241 -0.0136
C 27.04985 29.80449 0.03104
C 25.87023 26.26115 0.01238
C 24.5974 28.37942 0.01707
C 22.17621 25.58033 0.01495
C 23.36681 10.6557 -0.03378
C 23.36981 9.24828 0.02965
C 23.3714 6.41632 0.00412
C 23.35761 4.98004 0.0222
C 22.17308 4.28689 0.00159
C 25.79581 27.713 0.01965
C 22.14347 2.84298 0.02236
C 23.34472 0.7217 0.01707
C 22.1916 0.04533 0.01619
C 24.60751 32.65927 -0.01973
C 25.83102 31.93185 -0.01088
C 25.81094 30.55069 0.05283
C 24.59162 29.79874 0.02326
C 23.40791 2.15078 0.00632
C 29.49523 7.0353 0.04364
C 27.03537 28.37469 0.0116
C 28.27237 26.28866 -0.00896
C 30.80136 26.27882 -0.01754
C 29.45352 25.54642 -0.00726
C 29.52488 24.16806 0.00125
C 30.73704 23.38372 -0.01507
C 30.71539 21.98807 0.03126
C 29.53206 21.22597 -0.00507
C 30.74752 27.68811 0.00713
C 30.73895 19.18354 0.03516
C 30.7926 14.91469 -0.04285
C 30.73929 13.48633 -0.03712
C 29.47313 12.76008 0.02556
C 29.48927 11.3763 -0.00267
C 30.75896 10.64207 -0.02789
C 30.77786 9.21998 -0.00899
C 30.75835 17.75132 0.07245
C 28.26297 27.70887 0.02239
C 29.51865 28.39556 0.02104
C 30.75861 30.54638 0.04987
C 27.03042 11.3672 0.01947
C 28.26282 10.64768 -0.02578
C 28.30569 9.24555 -0.00418
C 27.08054 8.52133 0.02008
C 27.05839 7.09229 -0.00893
C 28.27276 6.37495 0.03525
C 29.48699 29.80168 0.00681
C 28.27314 4.96756 -0.01589
C 27.04504 2.87964 -0.01001
C 28.26565 2.08354 0.01756
C 28.30834 0.66696 0.09754
C 27.01091 34.0719 0.03341
C 29.51935 32.66235 -0.00158
C 30.77595 31.93324 -0.03116
C 27.00224 4.20704 -0.0027
C 2.42741 32.66242 -0.03717
