380
Graphene
C 34.37851 0.03912 0.01295
C 11.0082 6.49922 -0.01454
C 11.0272 5.02592 0.01945
C 9.82569 4.28166 0.01416
C 9.81149 2.88916 0.03542
C 11.01822 2.12011 0.02299
C 11.07307 0.7046 0.00244
C 9.88134 0.1261 -0.01717
C 12.26151 32.64278 0.05265
C 13.48369 31.91113 -0.01952
C 13.54743 30.43364 -0.02813
C 12.3146 29.76633 0.00374
C 12.33434 28.39877 0.00052
C 13.58483 27.66742 -0.03682
C 13.5396 26.24774 0.01965
C 12.34279 25.55798 0.02058
C 12.31476 24.24284 -0.01957
C 13.53445 23.42849 -0.0108
C 13.52771 21.97297 -0.00368
C 12.23355 21.32902 -0.02696
C 9.84978 7.1887 0.01241
C 9.79598 8.50738 0.0076
C 11.01797 9.2671 0.02162
C 11.09752 10.60932 -0.0014
C 11.01364 31.97406 -0.01275
C 11.10334 30.5515 0.00985
C 9.8874 29.91482 -0.02245
C 9.89117 28.49699 -0.00428
C 11.11833 27.76945 0.03101
C 11.08252 26.35463 -0.01536
C 9.83331 25.68839 -0.02689
C 9.83013 24.26325 -0.01046
C 11.10314 23.49879 -0.00891
C 12.33132 19.87402 -0.00114
C 11.11046 22.059 0.02819
C 9.86267 19.9426 -0.02971
C 11.09358 19.14601 0.02894
C 11.09308 17.69815 -0.01789
C 9.82776 16.94175 0.00444
C 9.8393 15.55722 -0.00925
C 11.08545 14.85908 0.01877
C 11.04854 13.49622 0.01363
C 9.8296 12.78873 -0.02162
C 9.78732 11.38944 0.00415
C 9.85666 21.35061 0.00165
C 13.52353 19.18686 0.00228
C 13.5811 17.78313 0.00798
C 12.37226 17.04353 0.00422
C 14.7909 23.98779 -0.0331
C 16.05327 23.36767 -0.00316
C 15.98437 21.91863 0.02188
C 14.73207 21.22027 -0.01979
C 14.74256 19.8934 0.02691
C 16.03086 19.18823 -0.01581
C 16.05131 17.76862 0.01452
C 14.76961 17.13241 0.04892
C 14.76917 15.68987 -0.00111
C 14.79383 25.46901 -0.0258
C 15.9831 14.93266 -0.03557
C 14.73243 12.77158 0.01739
C 14.69778 11.34638 0.00755
C 16.0463 10.60114 -0.0054
C 15.97941 9.19225 0.00667
C 14.72479 8.46494 0.00143
C 14.71146 7.04087 -0.017
C 15.94211 6.31396 0.00364
C 15.91445 4.89784 -0.00831
C 14.65942 4.24278 -0.02957
C 16.01499 13.50168 0.03754
C 9.72327 32.72707 -0.01111
C 16.07375 26.09983 0.03338
C 14.77772 28.27303 -0.00109
C 12.3198 15.68328 0.0351
C 13.54171 15.00842 -0.03113
C 13.56205 13.57571 0.02098
C 12.30547 12.78308 0.01848
C 12.34239 11.33792 -0.00619
C 13.53014 10.60322 -0.02162
C 13.53228 9.17502 0.00889
C 12.26785 8.5211 -0.00481
C 12.25915 7.09848 0.00979
C 16.05007 27.56155 -0.00491
C 13.53629 6.37011 0.01443
C 12.23296 4.29125 -0.02815
C 12.24442 2.88536 -0.04147
C 13.5155 2.17579 -0.05302
C 13.49537 0.69215 0.00213
C 12.23981 0.00093 -0.00066
C 14.68063 32.6027 -0.00289
C 15.93214 31.88623 0.00028
C 16.00221 30.45172 -0.02213
C 14.78174 29.7396 0.03698
C 13.46321 4.96261 0.03505
C 14.69778 2.83429 -0.04422
C 7.34418 0.12187 0.02841
C 8.62735 2.19695 0.00406
C 3.65824 4.95812 -0.05697
C 2.43644 4.22133 0.01087
C 2.35501 2.77582 -0.01343
C 3.58078 2.08026 0.00988
C 3.66719 0.74363 0.0276
C 2.44026 0.016 0.01305
C 4.85202 32.65031 -0.00077
C 6.09659 32.00844 0.03368
C 6.14245 30.57164 -0.02929
C 4.88479 29.82504 -0.00966
C 4.89814 28.49385 -0.03337
C 6.16978 27.73529 0.01227
C 6.1323 26.34912 0.00873
C 4.90077 25.61851 -0.00049
C 4.96673 24.14976 0.00848
C 6.14618 23.45107 -0.01303
C 6.18696 22.03224 -0.01378
C 4.94941 21.28714 0.02635
C 4.8956 19.87979 0.0127
C 3.69073 6.3806 -0.00725
C 2.46367 7.05973 0.02322
C 2.50384 8.47638 -0.00094
C 3.66443 9.21675 -0.02566
C 3.5965 30.56392 0.00907
C 2.41963 29.86763 0.00643
C 2.43685 28.38629 -0.01509
C 3.66683 27.73638 0.03267
C 3.67153 26.36594 0.02374
C 2.50905 25.56318 0.00402
C 2.43645 24.17316 0.0073
C 3.71779 23.50894 0.0174
C 3.66176 22.07596 0.03828
C 6.16125 19.20488 0.01396
C 2.4792 21.36582 0.01226
C 3.65463 19.1882 0.01996
C 3.64365 17.80089 -0.03996
C 2.44445 17.0684 0.01465
C 2.51311 15.72998 -0.00074
C 3.72549 14.98068 -0.00518
C 3.65975 13.53472 0.0086
C 2.46489 12.74274 -0.00643
C 2.43655 11.3549 0.017
C 3.67424 10.66697 -0.03113
C 2.36711 20.01909 -0.00279
C 6.10319 17.76366 0.01849
C 4.87253 17.15843 -0.01142
C 4.88073 15.71074 -0.00562
C 8.63356 23.45913 0.02147
C 8.72995 22.04621 0.00373
C 7.40252 21.31218 -0.00191
C 7.34957 19.82093 0.00438
C 8.6355 19.05336 0.01291
C 8.69982 17.74385 0.00093
C 7.38265 17.02571 0.00057
C 7.37644 15.64035 -0.01634
C 8.60363 14.89586 -0.00334
C 7.375 24.26001 -0.014
C 8.50297 13.45363 0.02339
C 7.31592 11.4021 -0.00719
C 8.51493 10.72523 0.01364
C 8.59044 9.26517 -0.01062
C 7.34632 8.54836 -0.00033
C 7.35714 7.14921 0.03589
C 8.60509 6.45034 -0.02759
C 8.58619 5.01649 0.0402
C 7.3042 4.27669 0.00572
C 7.33845 2.89107 0.03592
C 7.25255 12.80028 0.01641
C 8.59601 0.82347 0.00943
C 7.39146 25.62863 -0.01118
C 8.70097 27.76932 -0.02896
C 6.09052 14.97097 -0.00494
C 6.1031 13.57807 0.00054
C 4.87639 12.84335 0.03007
C 4.83021 11.42453 -0.00095
C 6.10271 10.72565 0.01572
C 6.14008 9.26409 -0.04848
C 4.96266 8.50683 -0.00892
C 4.9528 7.08562 -0.01362
C 6.21569 6.38971 -0.0008
C 8.65307 26.36406 -0.00131
C 6.13388 4.98346 0.0288
C 4.88229 2.82563 0.00895
C 6.12248 2.16109 0.00685
C 6.15251 0.77577 0.02888
C 4.92229 0.01577 -0.00482
C 7.28791 32.71134 -0.01384
C 8.5145 32.05116 0.03693
C 8.62187 30.5939 0.01745
C 7.41396 29.97254 0.00488
C 7.42735 28.46295 -0.01004
C 4.95125 4.27256 0.00393
C 15.93053 2.10557 0.00654
C 15.93416 0.59401 -0.00703
C 14.75917 34.02259 -0.04076
C 29.46348 7.06125 0.02108
C 30.68648 6.41426 0.00716
C 30.66264 4.98169 0.00307
C 29.51485 4.23921 0.00346
C 29.43251 2.8064 0.01713
C 30.65231 2.14663 -0.01694
C 30.69912 0.69233 0.01428
C 29.45219 34.01602 -0.02142
C 31.93769 32.6431 0.0544
C 33.20992 31.9821 0.00026
C 33.19078 30.60482 0.00682
C 31.95117 29.83453 -0.01779
C 31.84398 28.48206 0.03794
C 33.03101 27.66107 0.01927
C 33.36188 26.44008 0.01574
C 33.30747 23.39588 -0.02383
C 33.35143 22.01923 -0.01429
C 33.24016 19.23586 -0.0136
C 33.01071 17.85964 0.00594
C 29.52466 8.41263 0.0103
C 30.75498 9.18085 0.07705
C 30.68087 10.60529 0.01908
C 29.48161 11.29564 0.01518
C 27.09519 11.43928 0.00924
C 28.28243 10.68769 0.02326
C 28.31724 9.25174 0.00261
C 27.07122 8.58156 0.03265
C 27.04004 7.12825 -0.02049
C 28.19709 6.38086 -0.01854
C 28.24213 4.8904 -0.01415
C 27.05158 4.18709 -0.03039
C 27.01547 2.7582 0.01836
C 31.9475 17.00579 -0.02474
C 28.26466 2.12814 0.03531
C 26.95535 34.06521 0.0101
C 29.41906 32.58832 0.01705
C 30.68702 31.96544 -0.0405
C 30.65506 30.48728 -0.01303
C 29.41751 30.1101 -0.01461
C 29.67161 15.50244 -0.02155
C 30.86134 14.89248 -0.00944
C 30.76985 13.43214 -0.03735
C 29.48129 12.76251 -0.00971
C 28.23357 0.688 -0.00669
C 32.01381 15.64787 0.00369
C 33.23634 14.90809 0.00455
C 33.21818 13.48932 -0.00644
C 0.08698 21.29481 -0.02213
C 0.00046 19.93576 0.01951
C 1.18941 19.21568 -0.01678
C 1.21564 17.78785 0.01223
C 34.36537 17.13703 0.00648
C 0.0221 15.67912 0.02114
C 1.25597 14.8887 -0.02957
C 1.2084 13.50097 0.00343
C 34.4299 12.79213 -0.02656
C 1.23297 22.13815 0.02712
C 34.38325 11.34292 -0.02442
C 1.22408 9.10512 -0.00583
C 0.01737 8.52858 -0.02302
C 0.01293 7.0885 -0.02849
C 1.2462 6.39394 0.02931
C 1.14717 4.97626 0.00628
C 34.41243 4.31514 -0.0345
C 34.33623 2.87867 -0.00931
C 1.08976 2.19996 -0.00939
C 1.21256 0.74548 -0.00468
C 1.18757 10.63923 -0.00027
C 27.14361 12.86477 0.0014
C 1.18717 23.53479 0.00723
C 34.4035 25.61131 -0.05239
C 31.96286 12.71839 -0.01839
C 31.91986 11.31179 0.00137
C 33.17654 10.59282 0.00199
C 33.16968 9.18868 0.04381
C 31.94696 8.4951 0.02806
C 31.88279 7.1136 0.01504
C 33.17788 6.34947 -0.00069
C 33.1318 4.95871 0.04926
C 31.87905 4.24602 -0.03838
C 34.37327 24.17053 0.03076
C 31.87427 2.90867 0.00349
C 33.14692 0.72775 -0.00841
C 31.94369 0.00788 0.0001
C 34.4271 32.71474 -0.02927
C 1.21438 32.0353 -0.01404
C 1.17121 30.58274 0.01027
C 34.3604 29.82495 0.01831
C 34.34974 28.37355 -0.01037
C 1.16429 27.744 -0.00439
C 1.24558 26.32244 -0.00598
C 33.10508 2.17736 -0.00323
C 28.35642 13.58001 0.01324
C 28.44826 14.91085 0.04266
C 28.11785 30.49074 0.01177
C 18.37457 4.95133 0.0296
C 17.08622 4.2339 0.03374
C 17.16445 2.85215 -0.02845
C 18.41349 2.08542 -0.03213
C 18.37674 0.69447 0.02239
C 17.15798 33.98716 0.01153
C 19.72474 32.5885 0.02734
C 20.95558 31.79937 -0.0055
C 20.94572 30.39274 0.01515
C 18.40754 6.3907 0.03046
C 19.67548 29.74112 -0.00225
C 19.74755 16.98739 -0.01107
C 19.69361 15.64783 -0.01586
C 20.94053 14.87121 -0.01971
C 20.92024 13.47037 -0.02118
C 19.68108 12.78891 0.00733
C 19.6463 11.32329 -0.00178
C 20.87671 10.58435 0.00768
C 20.81351 9.17249 -0.0276
C 19.58485 8.45586 0.03005
C 19.47619 28.4378 0.00071
C 19.71645 7.06529 -0.04078
C 17.15231 7.06512 -0.00381
C 18.42306 9.19531 0.01126
C 17.15755 32.59868 -0.00652
C 18.46372 31.94933 0.0058
C 18.38747 30.4892 -0.00865
C 17.20142 29.74187 0.00675
C 17.18234 28.3696 -0.00311
C 18.4698 27.57881 0.00742
C 18.30939 26.20126 -0.01594
C 17.32314 25.31886 0.0106
C 17.28079 23.88229 -0.01154
C 17.19496 8.51636 0.01852
C 17.14492 21.21769 -0.01721
C 18.44817 19.07971 0.01277
C 18.64434 17.78408 0.00096
C 17.23176 17.06853 -0.01527
C 17.28502 15.66726 0.01087
C 18.47402 14.93146 0.00199
C 18.40636 13.52728 0.01511
C 17.15507 12.82415 -0.00478
C 17.17354 11.34931 -0.01662
C 18.37756 10.59688 -0.01185
C 17.36045 19.91804 -0.02422
C 3.61757 31.94614 0.02379
C 20.92667 6.37652 0.02117
C 19.64387 4.25309 -0.00498
C 24.45919 32.63944 -0.02815
C 25.68505 31.97142 -0.00942
C 25.678 30.56872 0.00487
C 25.72883 14.99483 0.00826
C 25.78386 13.57683 -0.00294
C 24.5496 12.76786 0.00152
C 24.58015 11.43678 0.01257
C 25.85934 10.69745 0.02316
C 25.81602 9.33195 0.04185
C 21.98783 34.01726 0.00622
C 24.665 8.58477 0.00194
C 25.88024 6.41337 0.02611
C 25.92042 5.01898 0.02198
C 24.60455 4.26759 0.01094
C 24.5642 2.84742 0.00235
C 25.72239 2.07541 0.01495
C 25.64946 0.69213 0.01259
C 24.47251 34.05903 0.01799
C 27.00026 32.63945 0.01699
C 28.17332 31.89089 -0.00416
C 24.63295 7.11316 -0.00621
C 20.90629 4.97061 0.02737
C 23.285 0.75161 -0.0032
C 22.07073 2.86196 -0.01654
C 19.63344 2.86555 0.00135
C 20.86542 2.1996 0.03102
C 20.87388 0.71715 0.02555
C 19.70458 34.04993 0.01423
C 22.12396 32.51836 -0.00285
C 23.35281 31.81508 -0.009
C 23.46075 30.49371 -0.01199
C 22.17348 29.82949 -0.00229
C 22.2425 15.35183 -0.00938
C 23.29162 2.12715 -0.00037
C 23.53385 14.99137 -0.0264
C 22.05085 12.80044 0.00684
C 22.09507 11.40104 -0.01052
C 23.32189 10.68355 -0.01679
C 23.31032 9.21278 0.00367
C 22.15392 8.47537 0.04306
C 22.1551 7.09699 0.00996
C 23.36279 6.392 0.00195
C 23.40809 4.97303 -0.00802
C 22.21347 4.25912 -0.00218
C 23.32603 13.5798 -0.01154
C 2.41316 32.65705 0.01402
