345
Graphene
C 34.35841 0.01191 0.01295
C 12.28659 7.28137 0.02098
C 13.51718 6.42693 0.01848
C 13.54796 4.95348 -0.00619
C 12.35105 4.28354 -0.02162
C 12.24674 2.90023 0.00889
C 13.46432 2.14277 -0.00481
C 13.50098 0.7218 0.00979
C 12.25635 34.01383 0.01443
C 14.75221 32.56458 0.03505
C 15.91754 31.83265 -0.02815
C 15.90293 30.41174 -0.04147
C 14.74582 29.59274 -0.05302
C 14.88627 28.09382 0.00213
C 16.14882 27.65019 -0.00066
C 14.8272 8.61027 -0.00289
C 14.68609 7.2523 0.00028
C 16.00197 6.41383 -0.02213
C 12.36236 8.67412 -0.03113
C 13.48574 27.55641 0.0351
C 12.3702 28.40656 0.00422
C 12.27781 29.88326 0.00798
C 9.82983 29.81058 0.03542
C 9.87379 28.43316 0.02299
C 11.07498 27.66663 0.00244
C 10.93424 26.36383 -0.01717
C 9.73192 25.71818 0.05265
C 11.11084 9.27503 -0.01952
C 9.8227 8.59827 -0.02813
C 9.83778 7.19964 0.00374
C 15.9914 4.96448 0.03698
C 11.10562 6.48711 0.00052
C 9.87717 4.25885 0.01965
C 9.81587 2.86433 0.02058
C 11.05699 2.13672 -0.01957
C 11.0707 0.68513 -0.0108
C 9.81798 0.10778 -0.00368
C 12.26122 32.66968 -0.02696
C 13.49546 31.87729 -0.00114
C 13.57751 30.4599 0.00228
C 11.13313 4.99574 -0.03682
C 11.03567 30.44276 0.01416
C 14.79705 4.3079 -0.00109
C 15.97743 2.13631 0.03338
C 19.75114 29.8992 0.00654
C 19.78879 28.52753 -0.00703
C 20.82399 27.80336 -0.04076
C 20.46596 26.41138 -0.00652
C 21.08071 10.69708 0.0058
C 20.90943 9.26983 -0.00865
C 19.57511 8.5755 0.00675
C 19.58748 7.13361 -0.00311
C 20.83882 6.43108 0.00742
C 20.85406 4.93426 -0.01594
C 19.64995 4.18974 0.0106
C 19.66898 2.78725 -0.01154
C 20.8705 2.07061 -0.01721
C 20.88398 0.71247 -0.02422
C 19.65879 34.01721 0.01277
C 22.20098 32.66421 0.00096
C 23.41765 31.93797 -0.01527
C 21.03486 30.59183 -0.04422
C 20.95807 31.98295 -0.02957
C 19.66993 32.63499 -0.00831
C 17.23008 33.98977 0.00364
C 16.00646 0.65463 -0.0258
C 14.72083 34.02951 -0.0331
C 17.16226 32.57742 -0.00316
C 18.43548 31.9796 0.02188
C 18.43545 30.57439 -0.01979
C 17.24307 29.7874 0.02691
C 17.31325 28.27777 -0.01581
C 18.6216 27.62535 0.01452
C 14.70335 2.84029 -0.00491
C 19.17075 26.32453 0.04892
C 17.0748 8.47646 -0.03557
C 17.16223 7.10303 0.03754
C 18.39624 6.37955 0.01739
C 18.44337 4.91041 0.00755
C 17.18853 4.2898 -0.0054
C 17.13799 2.84952 0.00667
C 18.36968 2.11534 0.00143
C 18.42367 0.66256 -0.017
C 18.36363 9.07072 -0.00111
C 11.02217 31.88803 0.01945
C 9.77448 32.78529 -0.01454
C 7.35991 0.06828 0.01241
C 2.43394 7.10963 0.00393
C 3.6964 6.41199 0.00895
C 3.72221 5.00074 0.00685
C 2.50842 4.34307 0.02888
C 2.48153 2.9271 -0.00482
C 3.71326 2.12824 -0.01384
C 3.6383 0.73943 0.03693
C 2.42472 0.06016 0.01745
C 4.90792 32.69706 0.00488
C 6.12846 31.9635 -0.01004
C 6.07147 30.51681 -0.02896
C 4.82514 29.826 -0.00131
C 4.79428 28.40585 -0.01118
C 6.0636 27.67684 -0.014
C 6.09255 26.25233 0.02147
C 4.90817 25.52522 0.00373
C 4.9301 24.1573 -0.00191
C 2.48302 8.55188 0.0288
C 3.72182 9.2087 -0.0008
C 3.74121 10.74371 -0.01362
C 2.44532 11.37681 -0.00892
C 3.63047 30.51911 0.01227
C 2.32571 29.79223 0.00873
C 2.37081 28.37251 -0.00049
C 3.65378 27.61707 0.00848
C 3.69322 26.13859 -0.01303
C 2.40029 25.5605 -0.01378
C 2.4365 24.20387 0.02635
C 3.76257 23.49114 0.0127
C 6.17187 23.43197 0.00438
C 3.66916 22.04495 0.01396
C 2.36463 19.94659 -0.01142
C 3.65752 19.21262 -0.00562
C 3.60892 17.8285 -0.00494
C 2.4313 16.98968 0.00054
C 2.45112 15.6357 0.03007
C 3.63262 14.83307 -0.00095
C 3.65603 13.43804 0.01572
C 2.43102 12.81213 -0.04848
C 2.44494 21.37231 0.01849
C 6.04589 21.99579 0.01291
C 4.84661 21.34892 0.00093
C 4.87571 19.83419 0.00057
C 7.28203 29.88012 -0.01536
C 7.3344 28.41632 -0.02689
C 8.58189 27.7514 -0.01046
C 8.52778 26.23537 -0.00891
C 7.26971 25.53797 0.02819
C 7.3523 24.17814 0.00165
C 7.39515 12.84303 -0.02971
C 7.38204 11.40249 0.02894
C 8.60187 30.58767 0.03101
C 8.7816 10.64353 -0.01789
C 7.31116 8.52667 -0.00925
C 7.38487 7.14983 0.01877
C 8.58519 6.45452 0.01363
C 8.63873 5.04607 -0.02162
C 7.4137 4.34598 0.00415
C 7.37481 2.9354 -0.0014
C 8.55979 2.16257 0.02162
C 8.60536 0.81275 0.0076
C 8.60258 9.29154 0.00444
C 23.41093 30.54889 0.01087
C 8.56859 32.00682 -0.00428
C 4.90093 0.0861 0.00985
C 6.08666 19.25014 -0.01634
C 5.98421 17.82757 -0.00334
C 4.82894 17.04951 0.02339
C 4.89491 15.61668 0.01641
C 6.16171 15.02732 -0.00719
C 6.24373 13.6216 0.01364
C 4.89742 12.85841 -0.01062
C 4.9713 11.45901 -0.00033
C 7.33841 32.6739 -0.02245
C 6.14897 10.68496 0.03589
C 4.90907 8.57257 0.0402
C 4.92466 7.16152 0.00572
C 6.1735 6.45545 0.03592
C 6.12169 5.00041 0.00406
C 4.93059 4.26482 0.00943
C 4.89003 2.83206 0.02841
C 6.22722 2.19615 -0.01111
C 6.12611 0.71562 -0.01275
C 6.14525 9.27865 -0.02759
C 3.68848 32.00068 -0.03337
C 22.14382 29.88991 0.00199
C 23.34579 27.56656 -0.00478
C 31.87272 29.73395 -0.02142
C 31.93372 28.35837 0.0544
C 33.13056 27.5778 0.00026
C 33.05276 26.22154 0.00682
C 31.79004 25.52102 -0.01779
C 31.84146 24.10654 0.03794
C 33.15289 23.46216 0.01927
C 33.17167 22.06883 0.01574
C 31.94194 21.31499 -0.02383
C 31.97546 19.9389 -0.01429
C 33.14034 19.17142 -0.0136
C 33.25164 17.77158 0.00594
C 31.92811 17.03972 -0.02474
C 31.96987 15.68565 0.00369
C 33.16232 14.92636 0.00455
C 33.15629 13.49386 -0.00644
C 31.95131 12.82178 -0.01839
C 33.03308 30.49777 0.01428
C 33.14193 31.92956 -0.01694
C 31.97089 32.65623 0.01713
C 29.53014 0.04528 0.00346
C 30.71392 19.28295 0.03531
C 30.65255 17.85086 -0.00669
C 29.46735 17.13244 0.0101
C 29.49371 15.76015 0.01705
C 30.65832 14.99553 -0.0405
C 30.64946 13.52912 -0.01303
C 29.44249 12.80851 -0.01461
C 29.46749 11.38186 -0.02155
C 31.90449 11.3971 0.00137
C 30.68837 10.6371 -0.00944
C 29.42236 8.5585 -0.00971
C 29.43195 7.11944 0.01518
C 30.65525 6.38916 0.01908
C 30.71895 4.9566 0.07705
C 29.54286 4.26494 0.0103
C 29.47589 2.83052 0.02108
C 30.77588 2.13923 0.00716
C 30.72553 0.72237 0.00307
C 30.74209 9.14644 -0.03735
C 29.46289 20.06409 0.01836
C 33.19928 10.71793 0.00199
C 31.94386 8.48794 0.02806
C 1.21515 17.75636 0.01223
C 0.03703 17.02948 0.00648
C 34.34386 15.67209 0.02114
C 1.16775 14.94838 -0.02957
C 1.18907 13.54157 0.00343
C 0.01934 12.85407 -0.02656
C 0.01698 11.33344 -0.02442
C 1.24726 10.68297 -0.00027
C 1.24791 9.25581 -0.00583
C 34.39524 8.55431 -0.02302
C 34.38213 7.09047 -0.02849
C 1.21985 6.39603 0.02931
C 1.25266 4.98038 0.00628
C 34.41633 4.26315 -0.0345
C 34.41241 2.83369 -0.00931
C 1.20806 2.1629 -0.00939
C 1.14679 0.80785 -0.00468
C 1.18284 19.15959 -0.01678
C 34.396 19.89014 0.01951
C 34.42349 21.29236 -0.02213
C 1.18202 22.01546 0.02712
C 31.92472 7.01736 0.01504
C 33.14982 6.38019 -0.00069
C 33.17324 4.95609 0.04926
C 31.97374 4.25539 -0.03838
C 31.99928 2.82493 0.00349
C 33.21957 2.09808 -0.00323
C 33.12906 0.73178 -0.00841
C 31.96355 0.02343 0.0001
C 33.20292 9.26933 0.04381
C 34.43204 32.58944 -0.02927
C 1.12876 30.55056 0.01027
C 34.30305 29.85874 0.01831
C 34.38731 28.34975 -0.01037
C 1.14678 27.67427 -0.00439
C 1.17809 26.27391 -0.00598
C 34.35688 25.53728 -0.05239
C 0.00779 24.12932 0.03076
C 1.1965 23.45365 0.00723
C 1.23632 31.95882 -0.01404
C 29.38008 21.49195 -0.03039
C 30.69511 22.03895 -0.01415
C 30.63227 23.42778 -0.01854
C 24.6222 28.31818 -0.00178
C 25.82853 27.57285 0.00768
C 25.6384 21.69035 -0.0276
C 24.27857 21.27776 0.03005
C 24.77665 19.96791 -0.04078
C 25.9425 19.29328 0.02117
C 25.82274 17.92133 0.02737
C 24.72395 17.09401 -0.00498
C 24.60063 15.72115 0.00135
C 25.72429 14.93314 0.03102
C 25.72934 13.56123 0.02555
C 24.40082 12.87275 0.01423
C 24.60034 11.37217 -0.00285
C 25.80924 10.65 -0.009
C 25.71836 9.25901 -0.01199
C 24.55888 8.48287 -0.00229
C 24.52031 7.12463 -0.00938
C 24.64938 29.71348 0.00733
C 25.91652 30.36201 -0.02118
C 25.92657 31.77117 -0.01971
C 24.66979 32.57601 -0.01586
C 22.92153 26.15482 -0.01662
C 21.55484 25.67933 -0.01185
C 22.68148 24.84115 0.01126
C 22.35275 23.24466 0.01852
C 23.14838 22.22955 -0.00381
C 23.10985 13.24298 0.03046
C 22.20301 11.47626 0.0296
C 23.42498 10.67304 0.03374
C 25.7858 6.38274 -0.0264
C 23.36063 9.27984 -0.02845
C 22.06806 7.07217 0.02239
C 23.25534 6.38576 0.01153
C 23.3727 4.95023 0.02734
C 22.10154 4.17208 -0.0055
C 22.12788 2.782 0.01515
C 23.33463 2.10816 -0.00225
C 23.36249 0.69526 0.00071
C 22.07719 0.00183 -0.01107
C 22.11167 8.56854 -0.03213
C 25.84832 4.95496 -0.01154
C 24.64513 4.23228 0.00684
C 24.55458 2.83984 -0.01052
C 26.95834 8.46537 0.02611
C 26.99798 7.09563 0.02198
C 28.20137 6.37873 0.01094
C 28.34137 4.95967 0.00235
C 27.14033 4.25176 0.01495
C 27.05614 2.81264 0.01259
C 28.25283 2.08676 0.01799
C 28.25187 0.69583 0.01699
C 28.15239 9.31235 -0.00621
C 27.10355 34.03936 -0.00416
C 30.72615 31.93016 0.04266
C 30.72082 30.44875 0.01324
C 29.52619 29.76062 0.0014
C 29.43539 28.28731 0.00924
C 30.73474 27.69593 0.02326
C 30.50585 26.18642 0.00261
C 29.18462 25.56642 0.03265
C 29.19885 24.0187 -0.02049
C 29.50749 32.68809 0.01177
C 22.10324 28.33396 0.01511
C 28.20173 10.73358 0.00194
C 26.91771 12.82727 0.02316
C 25.81455 2.0918 -0.01679
C 25.89608 0.67014 0.00367
C 24.59745 33.99103 0.04306
C 27.0992 32.61244 0.00996
C 28.31453 31.91684 0.00195
C 28.26598 30.48996 -0.00802
C 27.14305 29.61455 -0.00218
C 27.0695 28.14703 -0.01654
C 27.00564 11.38738 0.04185
C 28.39923 27.40746 -0.00037
C 27.05949 21.48367 0.00622
C 27.18847 20.04409 -0.02815
C 28.37366 19.28949 -0.00942
C 28.23498 17.87241 0.00487
C 27.01132 17.14828 0.00826
C 26.92478 15.74896 -0.00294
C 28.18722 15.07515 0.00152
C 28.14101 13.53581 0.01257
C 28.34658 22.45518 -0.0032
C 2.45602 32.69778 -0.00966
