401
Graphene
C 0.02134 34.07669 0.01295
C 13.48536 30.64563 0.00165
C 12.18775 29.94809 -0.02971
C 12.58786 28.50329 0.02894
C 12.38286 19.69212 -0.01789
C 13.58938 19.21954 0.00444
C 13.57784 17.80172 -0.00925
C 12.27383 17.13614 0.01877
C 12.29616 15.76423 0.01363
C 13.48561 14.95813 -0.02162
C 13.53807 13.5569 0.00415
C 12.27566 12.81904 -0.0014
C 12.31328 11.2915 0.02162
C 13.57087 10.59421 0.0076
C 13.59051 9.11594 0.01241
C 12.32531 8.46079 -0.01454
C 12.37908 6.99604 0.01945
C 13.59893 6.33124 0.01416
C 13.55495 4.99126 0.03542
C 12.28713 4.23503 0.02299
C 12.28275 2.81656 0.00244
C 13.50939 2.06005 -0.01717
C 13.5355 32.01947 0.02819
C 13.47964 0.65427 0.05265
C 12.24545 32.73616 -0.00891
C 11.00302 0.71051 -0.02689
C 9.90317 25.57032 0.02339
C 9.83131 24.11079 0.01641
C 9.89851 21.42741 -0.00719
C 9.8288 19.98451 0.01364
C 11.0948 19.2036 -0.01062
C 11.07238 17.79958 -0.00033
C 9.82709 17.03104 0.03589
C 9.8381 15.55343 -0.02759
C 11.11209 14.98554 0.0402
C 11.07431 13.45589 0.00572
C 9.7988 12.79499 0.03592
C 9.7929 11.40334 0.00406
C 11.09056 10.59315 0.00943
C 11.12153 9.07884 0.02841
C 9.88346 8.58869 -0.01111
C 9.84494 7.10886 -0.01275
C 11.00549 6.42829 0.00985
C 10.99983 5.01008 -0.02245
C 9.79833 4.31073 -0.00428
C 9.78938 2.88001 0.03101
C 11.06973 2.142 -0.01536
C 9.68937 0.07573 -0.01046
C 10.9947 26.47923 -0.00334
C 12.23275 34.05554 -0.01952
C 15.97032 31.90777 0.00374
C 18.44027 15.00319 -0.05302
C 18.45054 13.55587 0.00213
C 17.22554 12.8221 -0.00066
C 17.2329 11.38623 -0.00289
C 18.4324 10.65541 0.00028
C 18.45883 9.27642 -0.02213
C 17.18057 8.47015 0.03698
C 17.20667 7.11686 -0.00109
C 18.43895 6.35415 -0.00491
C 18.491 4.90968 0.03338
C 17.23277 4.26257 -0.0258
C 17.16602 2.8649 -0.0331
C 18.43705 2.11052 -0.00316
C 18.49707 0.72254 0.02188
C 17.2477 0.04562 -0.01979
C 19.4187 28.09632 0.02691
C 20.7316 28.47008 -0.01581
C 20.78084 17.80491 0.01452
C 19.81586 17.13544 0.04892
C 19.6096 15.74959 -0.00111
C 20.91265 15.02602 -0.03557
C 17.18381 15.63182 -0.04147
C 14.75407 32.66161 -0.02813
C 17.16319 17.08586 -0.02815
C 17.23975 32.65073 0.01443
C 15.92519 30.34081 0.00052
C 14.53801 29.68216 -0.03682
C 13.86377 28.26335 0.01965
C 16.0989 17.58423 0.02058
C 14.80064 17.10222 -0.01957
C 14.76629 15.66966 -0.0108
C 15.95064 14.94455 -0.00368
C 15.97683 13.55367 -0.02696
C 14.78442 12.78708 -0.00114
C 14.79921 11.29159 0.00228
C 16.07477 10.61411 0.00798
C 16.01232 9.14218 0.00422
C 14.74538 8.45983 0.0351
C 14.8122 7.04328 -0.03113
C 15.99054 6.31933 0.02098
C 16.06767 4.93876 0.01848
C 14.75074 4.19699 -0.00619
C 14.78239 2.77318 -0.02162
C 16.01675 2.08861 0.00889
C 15.98311 0.69558 -0.00481
C 14.80593 34.02914 0.00979
C 17.14924 29.85529 0.03505
C 11.16302 27.80115 -0.01634
C 9.83699 28.56651 0.00057
C 9.78007 29.88877 0.00093
C 2.42196 4.34085 0.02374
C 2.40878 2.92275 0.00402
C 3.57204 2.13934 0.0073
C 3.63608 0.74565 0.0174
C 2.41566 0.04688 0.03828
C 4.82056 32.74367 0.01226
C 6.08043 32.00965 -0.00279
C 6.10098 30.6058 0.01996
C 4.85954 29.81763 -0.03996
C 4.84356 28.42764 0.01465
C 6.14502 27.73708 -0.00074
C 6.16248 26.34322 -0.00518
C 4.91774 25.55041 0.0086
C 4.90245 24.19243 -0.00643
C 6.18497 23.43169 0.017
C 6.1569 22.06471 -0.03113
C 4.88345 21.33231 -0.02566
C 4.86749 19.87738 -0.00094
C 6.1018 19.15989 0.02322
C 6.09313 17.73005 -0.00725
C 4.88469 17.1421 -0.05697
C 3.68338 5.03862 0.03267
C 4.80799 15.61256 0.01087
C 3.67405 6.47102 -0.01509
C 2.41492 8.51385 0.00907
C 3.60797 30.57993 -0.00039
C 2.40419 29.86802 0.0064
C 2.42784 28.38377 0.00211
C 3.65314 27.67599 -0.00449
C 3.66971 26.2412 -0.01979
C 2.43576 25.52453 0.02784
C 2.50191 24.12398 -0.01977
C 3.72501 23.39992 -0.00561
C 3.7042 21.98238 0.00208
C 2.45915 21.22548 0.01707
C 2.42852 19.80011 0.02769
C 3.62518 19.12447 -0.03291
C 3.64532 17.74994 -0.04999
C 2.41043 17.09068 0.04505
C 2.33887 15.68597 0.03284
C 3.55266 14.87431 -0.04307
C 3.63456 13.47244 0.03189
C 2.41529 12.80573 0.00031
C 2.38509 11.39015 -0.003
C 3.65796 10.6549 0.01402
C 3.62875 9.2681 0.02379
C 2.41406 7.16086 0.00643
C 6.08849 14.94174 -0.01343
C 6.16261 13.49559 0.00988
C 4.90067 12.78447 0.0276
C 8.60854 17.71422 -0.0008
C 7.43545 17.04497 0.0288
C 7.41291 15.66908 0.00393
C 8.58048 14.90918 0.00895
C 8.62271 13.46473 0.00685
C 7.41432 12.82477 0.02888
C 7.38137 11.37323 -0.00482
C 8.62773 10.67072 -0.01384
C 8.64897 9.221 0.03693
C 7.42979 8.56483 0.01745
C 7.38308 7.16039 0.00488
C 8.60859 6.46862 -0.01004
C 8.50519 5.05876 -0.02896
C 7.35823 4.339 -0.00131
C 7.28578 2.97875 -0.01118
C 8.55687 2.20981 -0.014
C 8.56957 0.82154 0.02147
C 7.3443 0.13808 0.00373
C 9.76791 32.72375 -0.00191
C 11.06143 32.08946 0.00438
C 11.0097 30.64085 0.01291
C 8.63397 19.24244 -0.01362
C 7.37318 19.90517 -0.00892
C 7.42556 21.33179 -0.04848
C 8.61959 22.04862 0.01572
C 4.86046 11.37811 0.01305
C 6.17926 10.68101 -0.00077
C 6.14096 9.28741 0.03368
C 4.84459 8.70486 -0.02929
C 4.87923 7.19458 -0.00966
C 6.12912 6.46395 -0.03337
C 6.09149 5.09323 0.01227
C 4.8772 4.35306 0.00873
C 4.81603 2.9679 -0.00049
C 6.03928 2.25334 0.00848
C 20.83935 13.65004 0.03754
C 6.07772 0.86775 -0.01303
C 7.22881 32.78165 0.02635
C 8.48791 32.03635 0.0127
C 8.5381 30.64408 0.01396
C 7.36491 29.92327 0.01849
C 7.33255 28.39723 -0.01142
C 8.61648 27.72729 -0.00562
C 8.60588 26.2099 -0.00494
C 7.36402 25.65532 0.00054
C 7.33499 24.21686 0.03007
C 8.55367 23.51195 -0.00095
C 4.92048 0.1337 -0.01378
C 3.63879 32.01077 0.02728
C 19.66502 12.88006 0.01739
C 20.92634 10.66125 -0.0054
C 29.47787 7.07028 0.01518
C 30.65946 6.32146 0.01908
C 30.64132 4.95711 0.07705
C 29.46912 4.31484 0.0103
C 29.48764 2.83626 0.02108
C 30.72446 2.18509 0.00716
C 30.76479 0.77528 0.00307
C 29.53619 0.00386 0.00346
C 32.05919 32.68181 0.01713
C 33.23471 31.8817 -0.01694
C 33.21554 30.46079 0.01428
C 32.01176 29.78371 -0.02142
C 31.91835 28.38525 0.0544
C 33.14873 27.6556 0.00026
C 33.1553 26.23405 0.00682
C 31.9205 25.51899 -0.01779
C 31.94091 24.04195 0.03794
C 33.20618 23.33247 0.01927
C 33.12693 21.97322 0.01574
C 31.91971 21.2976 -0.02383
C 31.9114 19.89635 -0.01429
C 29.47828 8.54428 -0.00971
C 33.15614 19.20719 -0.0136
C 30.73064 9.18922 -0.03735
C 29.46196 11.35241 -0.02155
C 27.04679 34.06662 -0.00416
C 29.5907 32.61797 0.01177
C 30.78493 31.99916 0.04266
C 30.88719 30.51573 0.01324
C 29.53585 29.80075 0.0014
C 29.51701 28.43784 0.00924
C 30.69982 27.6701 0.02326
C 30.70175 26.22631 0.00261
C 29.5656 25.50455 0.03265
C 29.48897 24.14704 -0.02049
C 30.62538 23.36956 -0.01854
C 30.65183 22.01001 -0.01415
C 29.37588 21.25239 -0.03039
C 29.45744 19.88568 0.01836
C 30.64762 19.17466 0.03531
C 30.63833 17.7397 -0.00669
C 29.42789 16.99858 0.0101
C 29.42363 15.65364 0.01705
C 30.65383 14.90334 -0.0405
C 30.69263 13.50588 -0.01303
C 29.47382 12.80025 -0.01461
C 30.7215 10.6393 -0.00944
C 28.34305 0.69814 0.01699
C 33.11194 17.75353 0.00594
C 31.87281 15.63391 0.00369
C 1.21128 21.85552 0.02712
C 34.4297 21.25766 -0.02213
C 34.40721 19.86788 0.01951
C 1.14288 19.16785 -0.01678
C 1.15847 17.76764 0.01223
C 34.30684 17.05467 0.00648
C 34.39118 15.58543 0.02114
C 1.14039 14.88091 -0.02957
C 1.18387 13.42337 0.00343
C 34.38995 12.76954 -0.02656
C 34.41706 11.37223 -0.02442
C 1.17182 10.6797 -0.00027
C 1.124 9.31747 -0.00583
C 34.39809 8.61823 -0.02302
C 34.39922 7.1421 -0.02849
C 1.16277 6.4426 0.02931
C 1.13081 5.02895 0.00628
C 34.38204 4.33252 -0.0345
C 34.42959 2.89331 -0.00931
C 1.24829 2.15502 -0.00939
C 1.18262 0.72184 -0.00468
C 1.25247 23.37665 0.00723
C 31.87689 17.03444 -0.02474
C 0.05744 24.08855 0.03076
C 1.18657 26.20174 -0.00598
C 33.14452 14.92129 0.00455
C 33.1423 13.53988 -0.00644
C 31.94115 12.82693 -0.01839
C 31.97108 11.31672 0.00137
C 33.17893 10.67483 0.00199
C 33.17471 9.27718 0.04381
C 31.97403 8.56709 0.02806
C 31.91782 7.09411 0.01504
C 33.05123 6.44429 -0.00069
C 33.15034 5.04221 0.04926
C 31.96971 4.33197 -0.03838
C 31.92034 2.83533 0.00349
C 33.13758 2.19579 -0.00323
C 33.26116 0.7177 -0.00841
C 32.03269 0.0034 0.0001
C 0.05103 32.69811 -0.02927
C 1.22538 31.97128 -0.01404
C 1.18742 30.57809 0.01027
C 0.01991 29.80071 0.01831
C 34.4057 28.35165 -0.01037
C 1.24601 27.68543 -0.00439
C 34.41147 25.51814 -0.05239
C 28.33078 2.11983 0.01799
C 27.08035 2.81652 0.01259
C 27.04717 4.23462 0.01495
C 22.07146 12.84355 0.00199
C 22.11805 11.4294 0.01511
C 23.38367 10.62111 -0.00478
C 23.40868 9.20722 -0.01662
C 22.09001 8.53205 -0.01185
C 22.13554 7.07469 0.01126
C 23.40852 6.32193 0.01852
C 23.33342 4.91165 -0.00381
C 22.10653 4.24367 0.03046
C 22.17032 2.7984 0.0296
C 23.3831 2.02682 0.03374
C 23.37522 0.61961 -0.02845
C 22.17025 34.00214 -0.03213
C 24.57425 32.45244 0.02239
C 25.90138 32.00496 0.01153
C 25.94753 30.54637 0.02734
C 24.71937 29.82301 -0.0055
C 24.68771 28.40656 0.01515
C 25.85629 27.66944 -0.00225
C 25.81089 26.23593 0.00071
C 24.51549 25.49282 -0.01107
C 23.37628 13.52976 0.01087
C 24.47356 24.08142 -0.01586
C 23.37821 14.9196 -0.01527
C 22.08 17.06712 0.01277
C 20.96261 9.22307 0.00667
C 19.65547 8.50923 0.00143
C 19.6468 7.10678 -0.017
C 20.94705 6.34636 0.00364
C 20.81851 4.99242 -0.00831
C 19.672 4.17995 -0.02957
C 19.69268 2.76165 -0.04422
C 20.92632 2.0226 0.00654
C 20.89154 0.63176 -0.00703
C 19.59385 34.04148 -0.04076
C 22.08949 32.70046 -0.00652
C 23.21331 31.80825 0.0058
C 23.36194 30.45293 -0.00865
C 22.06241 28.21311 0.00675
C 23.52984 27.67061 -0.00311
C 23.2393 26.14406 0.00742
C 23.32499 23.10521 -0.01594
C 23.18198 21.82474 0.0106
C 22.13411 20.06603 -0.01154
C 23.24836 19.25832 -0.01721
C 23.35719 17.84908 -0.02422
C 22.11601 15.71252 0.00096
C 25.71178 23.38067 -0.01971
C 25.71412 22.01921 -0.02118
C 24.45257 21.22712 0.00733
C 28.30041 26.22492 -0.00802
C 27.00223 25.51187 -0.00218
C 26.93476 24.10907 -0.01654
C 28.24607 23.46417 -0.00037
C 28.17016 22.02279 -0.0032
C 26.98136 21.3573 0.00622
C 26.96548 19.92316 -0.02815
C 28.163 19.13447 -0.00942
C 28.20991 17.75696 0.00487
C 27.04579 17.05498 0.00826
C 27.04063 15.60965 -0.00294
C 28.19288 14.92615 0.00152
C 28.23374 13.47897 0.01257
C 27.06371 12.82394 0.02316
C 27.02184 11.35929 0.04185
C 28.27144 10.61255 0.00194
C 28.26524 9.22052 -0.00621
C 26.97285 8.51816 0.02611
C 27.01615 7.06801 0.02198
C 28.26088 6.39967 0.01094
C 28.24191 5.05063 0.00235
C 28.29122 27.67476 0.00195
C 27.1191 28.35843 0.00996
C 27.08366 29.83019 0.04306
C 28.32159 30.54378 0.00367
C 24.57869 19.86795 -0.00178
C 25.8001 19.10446 0.00768
C 25.76388 17.71292 -0.0276
C 24.48152 17.07785 0.03005
C 24.61065 15.59054 -0.04078
C 25.83701 14.85872 0.02117
C 25.7743 13.48026 0.02737
C 24.51822 12.7337 -0.00498
C 24.57353 11.29841 0.00135
C 25.81516 10.61845 0.03102
C 19.70853 11.39877 0.00755
C 25.82221 9.24307 0.02555
C 24.54522 7.09378 -0.00285
C 25.84022 6.34385 -0.009
C 25.79611 4.9562 -0.01199
C 24.60179 4.234 -0.00229
C 24.53349 2.74132 -0.00938
C 25.87903 2.13915 -0.0264
C 25.83833 0.71147 -0.01154
C 24.56665 33.99044 0.00684
C 27.18714 32.71448 -0.01052
C 28.33148 31.96879 -0.01679
C 24.57917 8.48173 0.01423
C 2.4393 32.70245 0.00245
