392
Graphene
C 34.3529 0.01245 0.01295
C 15.79191 10.75895 0.01877
C 15.6857 9.31467 0.01363
C 14.59797 8.41435 -0.02162
C 14.71571 7.1279 0.00415
C 15.90147 6.39582 -0.0014
C 15.90108 4.96287 0.02162
C 14.74395 4.16731 0.0076
C 14.73239 2.78079 0.01241
C 15.91234 2.16838 -0.01454
C 16.02244 17.7625 -0.00925
C 15.89189 0.64548 0.01945
C 17.14282 32.62697 0.03542
C 18.34616 31.90513 0.02299
C 18.38558 30.47948 0.00244
C 17.17275 29.76453 -0.01717
C 17.24389 28.42418 0.05265
C 18.54189 27.65169 -0.01952
C 18.54112 26.20247 -0.02813
C 17.20375 25.67932 0.00374
C 17.23651 24.21067 0.00052
C 14.75709 34.03809 0.01416
C 15.86906 19.12646 0.00444
C 14.59974 19.79965 -0.01789
C 14.79022 21.23803 0.02894
C 13.4295 22.02369 0.03589
C 12.17943 21.5076 -0.02759
C 12.51281 7.33602 0.0402
C 13.54824 6.36417 0.00572
C 13.49225 4.91005 0.03592
C 12.26425 4.27867 0.00406
C 12.22977 2.89368 0.00943
C 13.42888 2.12001 0.02841
C 13.50491 0.71917 -0.01111
C 12.30152 34.05338 -0.01275
C 14.74441 32.64976 0.00985
C 15.98323 31.84089 -0.02245
C 15.90736 30.40858 -0.00428
C 14.68069 29.78224 0.03101
C 14.71901 28.41991 -0.01536
C 15.98123 27.70641 -0.02689
C 15.93576 26.31983 -0.01046
C 14.75552 25.59004 -0.00891
C 14.72991 24.16143 0.02819
C 15.97748 23.51419 0.00165
C 16.00125 22.07675 -0.02971
C 18.36001 23.47852 -0.03682
C 13.41702 23.41185 -0.00033
C 18.42614 22.02451 0.01965
C 17.10465 19.89496 -0.01957
C 20.89818 26.24775 -0.02213
C 19.71038 25.47792 0.03698
C 19.62339 24.11514 -0.00109
C 20.95942 23.2969 -0.00491
C 20.92884 21.85045 0.03338
C 19.66212 21.2482 -0.0258
C 19.56074 19.7884 -0.0331
C 20.87248 19.2045 -0.00316
C 20.83314 17.79153 0.02188
C 20.9939 27.60279 0.00028
C 19.62832 17.11982 -0.01979
C 20.97768 14.98819 -0.01581
C 20.94983 13.51951 0.01452
C 19.62427 12.85964 0.04892
C 19.56027 11.43137 -0.00111
C 20.78686 10.57675 -0.03557
C 20.77992 9.21455 0.03754
C 19.53483 8.54157 0.01739
C 19.61365 7.07486 0.00755
C 20.77073 6.28968 -0.0054
C 19.72395 15.71172 0.02691
C 19.77242 28.34718 -0.00289
C 19.73446 29.74753 -0.00066
C 21.00225 30.41846 0.00213
C 18.35865 19.05048 -0.0108
C 18.38045 17.67983 -0.00368
C 17.04189 16.83302 -0.02696
C 17.27616 15.4999 -0.00114
C 18.54706 14.97991 0.00228
C 18.4645 13.5741 0.00798
C 17.15943 12.93079 0.00422
C 17.02119 11.53236 0.0351
C 18.38415 10.66115 -0.03113
C 18.35567 9.26012 0.02098
C 17.1097 8.56888 0.01848
C 17.17499 7.13821 -0.00619
C 18.36446 6.43312 -0.02162
C 18.3328 5.03142 0.00889
C 17.18107 4.24482 -0.00481
C 17.18329 2.83931 0.00979
C 18.44842 2.09041 0.01443
C 18.39424 0.66188 0.03505
C 17.17925 34.0564 -0.02815
C 19.62769 32.5664 -0.04147
C 20.83862 31.83973 -0.05302
C 17.25184 21.28899 0.02058
C 20.74389 4.93045 0.00667
C 12.19546 24.23149 -0.01062
C 13.52979 26.31573 -0.00719
C 3.61582 0.77919 0.01465
C 2.35742 0.18029 -0.00074
C 4.86235 32.71927 -0.00518
C 6.13838 32.01166 0.0086
C 6.13208 30.58614 -0.00643
C 4.84539 29.96331 0.017
C 4.86784 28.44448 -0.03113
C 6.06529 27.82999 -0.02566
C 6.02256 26.29375 -0.00094
C 3.64426 2.21065 -0.03996
C 4.80377 25.53034 0.02322
C 6.0561 23.46974 -0.05697
C 6.12131 22.00685 0.01087
C 4.88786 21.26928 -0.01343
C 4.70892 19.84105 0.00988
C 5.13103 8.49295 0.0276
C 4.83152 7.15243 0.01305
C 6.04058 6.44284 -0.00077
C 6.17533 5.06415 0.03368
C 4.857 4.31375 -0.02929
C 4.83534 24.22286 -0.00725
C 2.42937 2.88783 0.01996
C 2.44702 4.27308 -0.00279
C 3.72681 5.04087 0.01226
C 3.59041 30.60714 0.01707
C 2.34532 29.94831 0.02769
C 2.33411 28.51615 -0.03291
C 3.60553 27.77371 -0.04999
C 3.63635 26.29125 0.04505
C 2.46278 25.61202 0.03284
C 2.45625 24.15251 -0.04307
C 3.61725 23.46272 0.03189
C 3.6348 22.05637 0.00031
C 2.35882 21.31358 -0.003
C 2.35941 19.96359 0.01402
C 3.62369 19.26051 0.02379
C 2.48472 17.04129 0.00907
C 2.40633 15.65195 0.00643
C 2.54862 12.78876 -0.01509
C 2.56205 11.45065 0.03267
C 3.54695 10.53661 0.02374
C 3.83304 9.26306 0.00402
C 2.38297 8.58102 0.0073
C 2.42036 7.13474 0.0174
C 3.59523 6.43583 0.03828
C 4.94346 2.90059 -0.00966
C 12.21091 25.64165 0.01364
C 6.09798 2.25861 -0.03337
C 4.8416 0.0489 0.00873
C 11.04737 27.86899 -0.01384
C 11.07934 26.38369 0.03693
C 9.76531 25.67921 0.01745
C 9.75562 24.30094 0.00488
C 10.90322 23.51615 -0.01004
C 10.99779 22.1197 -0.02896
C 9.88867 7.23474 -0.00131
C 11.14054 6.58519 -0.01118
C 11.17856 5.14149 -0.014
C 9.77819 28.522 -0.00482
C 9.86092 4.55427 0.02147
C 11.05839 2.27367 -0.00191
C 11.06623 0.73102 0.00438
C 9.7425 0.03848 0.01291
C 12.19824 32.59758 0.00093
C 13.53627 31.92412 0.00057
C 13.4957 30.53019 -0.01634
C 12.26307 29.83932 -0.00334
C 12.26176 28.45444 0.02339
C 13.4373 27.68032 0.01641
C 9.84995 3.00215 0.00373
C 9.73494 29.92112 0.02888
C 10.97815 30.57141 0.00685
C 11.02222 31.95572 0.00895
C 7.29838 32.71569 -0.00049
C 8.56345 32.06857 0.00848
C 8.4904 30.64391 -0.01303
C 7.33538 29.84994 -0.01378
C 7.33384 28.41283 0.02635
C 8.51794 27.76015 0.0127
C 8.48334 26.37196 0.01396
C 7.28033 25.61054 0.01849
C 7.28454 24.23445 -0.01142
C 8.54167 23.52454 -0.00562
C 8.40631 22.13814 -0.00494
C 7.33958 21.44578 0.00054
C 7.20548 7.24499 0.03007
C 8.57673 6.73103 -0.00095
C 8.57002 5.11011 0.01572
C 7.39696 4.33791 -0.04848
C 7.30265 2.98256 -0.00892
C 8.5453 2.25628 -0.01362
C 8.5716 0.80924 -0.0008
C 7.22667 0.12754 0.0288
C 9.88135 32.73701 0.00393
C 5.96231 0.84034 0.01227
C 19.6323 4.24891 0.00143
C 19.64721 2.75473 -0.017
C 20.88322 2.11166 0.00364
C 30.62921 4.98123 0.07705
C 29.43332 4.21005 0.0103
C 29.40386 2.81757 0.02108
C 30.65851 1.99693 0.00716
C 30.6628 0.63713 0.00307
C 29.40875 0.0093 0.00346
C 31.95456 32.71003 0.01713
C 33.22956 31.90481 -0.01694
C 33.12908 30.53381 0.01428
C 30.61724 6.41869 0.01908
C 31.90954 29.86966 -0.02142
C 33.17842 27.71435 0.00026
C 33.20039 26.27693 0.00682
C 31.99723 25.54088 -0.01779
C 32.06276 24.10813 0.03794
C 33.27217 23.38271 0.01927
C 33.23925 21.97743 0.01574
C 31.9874 21.26873 -0.02383
C 32.00764 19.92664 -0.01429
C 33.19729 19.17633 -0.0136
C 31.91886 28.40886 0.0544
C 29.43148 7.1003 0.01518
C 29.37321 8.55048 -0.00971
C 30.66534 9.26257 -0.03735
C 30.69821 32.03128 0.04266
C 30.73679 30.58239 0.01324
C 29.59796 29.76295 0.0014
C 29.53793 28.4499 0.00924
C 30.765 27.68283 0.02326
C 30.75027 26.24895 0.00261
C 29.52539 25.53149 0.03265
C 29.5333 24.09067 -0.02049
C 30.80011 23.41064 -0.01854
C 30.69838 22.03656 -0.01415
C 29.59366 21.31209 -0.03039
C 29.53415 19.77822 0.01836
C 30.77487 19.15839 0.03531
C 30.80715 17.71759 -0.00669
C 29.55456 17.07161 0.0101
C 29.54219 15.62158 0.01705
C 30.77694 14.84132 -0.0405
C 30.6718 13.39967 -0.01303
C 29.44874 12.74618 -0.01461
C 29.40618 11.30457 -0.02155
C 30.67896 10.64316 -0.00944
C 33.16903 17.7553 0.00594
C 29.42297 32.676 0.01177
C 31.94669 16.96851 -0.02474
C 33.18176 14.90554 0.00455
C 34.43296 21.34087 -0.02213
C 34.36142 19.88974 0.01951
C 1.20939 19.22109 -0.01678
C 1.2423 17.75612 0.01223
C 0.0428 17.09641 0.00648
C 34.39262 15.65012 0.02114
C 1.22294 14.98321 -0.02957
C 1.20527 13.5114 0.00343
C 34.38472 12.82449 -0.02656
C 1.15314 22.04437 0.02712
C 34.38252 11.38039 -0.02442
C 1.21912 9.28403 -0.00583
C 0.01417 8.57973 -0.02302
C 34.37898 7.11999 -0.02849
C 1.1473 6.43891 0.02931
C 1.1991 5.04444 0.00628
C 34.34003 4.34063 -0.0345
C 34.3915 2.90299 -0.00931
C 1.12096 2.19852 -0.00939
C 1.12467 0.7949 -0.00468
C 1.17369 10.72418 -0.00027
C 1.23012 23.50861 0.00723
C 34.43237 24.08608 0.03076
C 34.3702 25.50901 -0.05239
C 33.11251 13.49493 -0.00644
C 31.92846 12.81879 -0.01839
C 31.91261 11.43004 0.00137
C 33.13548 10.6376 0.00199
C 33.19419 9.29221 0.04381
C 31.90311 8.54204 0.02806
C 31.8681 7.16463 0.01504
C 33.17886 6.4458 -0.00069
C 33.12508 5.01799 0.04926
C 31.88852 4.26132 -0.03838
C 31.92051 2.91006 0.00349
C 33.18362 2.19527 -0.00323
C 33.23211 0.78467 -0.00841
C 31.98852 0.03989 0.0001
C 34.3407 32.66295 -0.02927
C 1.21033 32.04971 -0.01404
C 1.20115 30.59598 0.01027
C 34.37277 29.84442 0.01831
C 34.41805 28.46735 -0.01037
C 1.15291 27.68556 -0.00439
C 1.13481 26.30728 -0.00598
C 32.00027 15.5949 0.00369
C 26.9919 0.00259 -0.00416
C 28.19727 0.71115 0.01699
C 28.19823 2.13756 0.01799
C 21.99943 8.50112 -0.01185
C 22.07152 7.00987 0.01126
C 23.24169 6.30198 0.01852
C 23.21631 4.91369 -0.00381
C 22.0092 4.20232 0.03046
C 22.13671 2.81477 0.0296
C 23.28094 2.09005 0.03374
C 23.32542 0.6837 -0.02845
C 22.07834 33.9721 -0.03213
C 23.2505 9.20144 -0.01662
C 24.52361 32.59472 0.02239
C 25.92787 30.47768 0.02734
C 24.719 29.7633 -0.0055
C 24.64092 28.3613 0.01515
C 25.84548 27.58412 -0.00225
C 25.83547 26.22793 0.00071
C 24.64995 25.52752 -0.01107
C 24.69443 24.07543 -0.01586
C 25.97497 23.40709 -0.01971
C 25.87591 22.01452 -0.02118
C 25.82799 31.94515 0.01153
C 23.27246 10.60371 -0.00478
C 22.00464 11.36591 0.01511
C 22.04937 12.77185 0.00199
C 20.86458 0.66383 -0.00831
C 19.62826 34.00184 -0.02957
C 22.08859 32.54581 -0.04422
C 23.34056 31.86781 0.00654
C 23.43641 30.42601 -0.00703
C 22.29364 29.71553 -0.04076
C 22.21102 28.2794 -0.00652
C 23.40908 27.63439 0.0058
C 23.43536 26.24578 -0.00865
C 22.16855 25.54533 0.00675
C 22.22608 24.02749 -0.00311
C 23.49071 23.47596 0.00742
C 23.46325 22.01433 -0.01594
C 22.1824 21.25434 0.0106
C 22.10598 19.87645 -0.01154
C 23.34371 19.21014 -0.01721
C 23.31231 17.75164 -0.02422
C 22.13281 17.05573 0.01277
C 22.17061 15.65833 0.00096
C 23.36912 14.89044 -0.01527
C 23.32551 13.40109 0.01087
C 24.6445 21.34126 0.00733
C 24.62258 19.82596 -0.00178
C 25.81204 19.13074 0.00768
C 25.77543 17.74713 -0.0276
C 27.22758 24.17705 -0.01654
C 28.35506 23.34776 -0.00037
C 28.31658 21.92323 -0.0032
C 26.96817 21.23176 0.00622
C 27.11947 19.85592 -0.02815
C 28.29023 19.15847 -0.00942
C 28.30549 17.72696 0.00487
C 27.10962 17.03451 0.00826
C 27.03789 15.66433 -0.00294
C 28.23847 14.93819 0.00152
C 28.24414 13.50957 0.01257
C 26.90293 12.81944 0.02316
C 27.00804 11.41326 0.04185
C 28.17408 10.68477 0.00194
C 28.15171 9.20577 -0.00621
C 26.99561 8.45735 0.02611
C 26.96965 7.00138 0.02198
C 28.21976 6.40233 0.01094
C 28.18954 4.96209 0.00235
C 26.92862 4.18876 0.01495
C 26.95101 2.82265 0.01259
C 27.13583 25.56922 -0.00218
C 3.60782 32.04711 0.00208
C 28.35884 26.25256 -0.00802
C 27.01993 28.27321 0.00996
C 24.52783 16.98335 0.03005
C 24.59187 15.61969 -0.04078
C 25.78227 14.98053 0.02117
C 25.71215 13.51732 0.02737
C 24.56324 12.76701 -0.00498
C 24.46552 11.33477 0.00135
C 25.69608 10.60834 0.03102
C 25.72084 9.15604 0.02555
C 24.52711 8.45062 0.01423
C 24.52931 7.05859 -0.00285
C 25.7221 6.36712 -0.009
C 25.69009 4.97156 -0.01199
C 24.44968 4.27585 -0.00229
C 24.50823 2.81834 -0.00938
C 25.68729 2.11648 -0.0264
C 25.83025 0.70564 -0.01154
C 24.54986 34.00408 0.00684
C 26.98296 32.64924 -0.01052
C 28.32761 31.84044 -0.01679
C 28.25681 30.44431 0.00367
C 27.12525 29.77141 0.04306
C 28.36018 27.65614 0.00195
C 2.37652 32.72497 -0.00561
