300
Graphene
C 34.41963 0.09347 0.01295
C 9.3773 0.18492 -0.00111
C 12.42646 32.75224 -0.03557
C 13.57071 31.9408 0.03754
C 13.48514 30.57935 0.01739
C 12.25178 29.97641 0.00755
C 12.27667 28.41125 -0.0054
C 9.51503 15.50533 0.04892
C 13.60338 27.77458 0.00667
C 12.49617 25.61888 -0.017
C 12.2958 24.25281 0.00364
C 13.13583 0.01253 -0.00831
C 14.69715 32.73869 -0.02957
C 15.91173 32.10415 -0.04422
C 15.88285 30.67058 0.00654
C 13.83323 26.32525 0.00143
C 9.81422 16.71703 0.01452
C 9.79347 19.95071 -0.01581
C 9.95283 21.29175 0.02691
C 8.43412 14.79781 -0.05302
C 7.84112 2.32565 0.00213
C 8.38583 1.00054 -0.00066
C 7.27628 34.05273 -0.00289
C 9.75511 32.96004 0.00028
C 11.04247 32.17995 -0.02213
C 10.98541 30.72364 0.03698
C 9.82592 29.92642 -0.00109
C 9.8387 28.51675 -0.00491
C 11.03285 27.76026 0.03338
C 11.10865 26.33903 -0.0258
C 9.9745 25.59234 -0.0331
C 9.92626 24.16556 -0.00316
C 11.1977 23.39249 0.02188
C 11.17537 22.04572 -0.01979
C 14.71532 29.93642 -0.00703
C 14.76127 28.43953 -0.04076
C 15.95182 27.77597 -0.00652
C 16.18072 26.32077 0.0058
C 20.98877 26.15981 0.01852
C 20.65626 8.26202 -0.00381
C 20.87154 6.09786 0.03046
C 20.71576 4.91529 0.0296
C 19.7189 2.92513 0.03374
C 20.91291 2.06278 -0.02845
C 20.86012 0.71106 -0.03213
C 19.57658 0.01173 0.02239
C 22.05269 32.57206 0.01153
C 23.33779 31.963 0.02734
C 23.25449 30.47589 -0.0055
C 22.06626 29.70381 0.01515
C 22.06885 28.17961 -0.00225
C 23.38589 27.51508 0.00071
C 23.48827 26.07714 -0.01107
C 20.75973 27.5296 0.01126
C 7.20016 15.58177 -0.04147
C 19.49372 28.20626 -0.01185
C 20.74791 30.41862 -0.00478
C 15.06898 25.80625 -0.00865
C 15.5295 0.61713 0.00675
C 14.35272 0.16085 -0.00311
C 17.17516 32.69205 0.00742
C 18.37817 31.99228 -0.01594
C 18.40595 30.51222 0.0106
C 17.153 29.88141 -0.01154
C 17.18652 28.53765 -0.01721
C 18.25566 27.64543 -0.02422
C 17.57691 26.3136 0.01277
C 18.70291 2.17375 0.00096
C 18.45231 0.80934 -0.01527
C 17.07892 0.12331 0.01087
C 19.55904 32.69113 0.00199
C 20.82504 31.80586 0.01511
C 19.54777 29.66096 -0.01662
C 22.16644 25.57002 -0.01586
C 7.41902 16.93459 -0.02815
C 8.79581 19.02932 0.01443
C 3.65718 10.68772 0.03101
C 3.54429 9.25082 -0.01536
C 2.38109 8.52012 -0.02689
C 2.44741 7.13736 -0.01046
C 3.69708 6.41407 -0.00891
C 3.66049 4.92317 0.02819
C 2.49417 11.50093 -0.00428
C 2.4378 4.28151 0.00165
C 3.72442 2.18542 0.02894
C 3.49225 0.74449 -0.01789
C 2.31548 34.06327 0.00444
C 4.89506 32.65036 -0.00925
C 6.07635 32.02356 0.01877
C 6.11417 30.60535 0.01363
C 2.51125 2.88631 -0.02971
C 2.51257 12.87947 -0.02245
C 3.6744 13.59604 0.00985
C 3.60716 14.97711 -0.01275
C 3.63382 30.5957 0.02339
C 2.36915 29.90861 0.01641
C 2.45322 28.34895 -0.00719
C 3.70641 27.72728 0.01364
C 3.70144 26.309 -0.01062
C 2.46855 25.66496 -0.00033
C 2.48106 24.14998 0.03589
C 3.64912 23.49794 -0.02759
C 3.73493 22.02103 0.0402
C 2.46939 21.30782 0.00572
C 2.52968 19.86672 0.03592
C 3.7109 19.23821 0.00406
C 3.59163 17.78795 0.00943
C 2.36684 17.05639 0.02841
C 2.36295 15.69359 -0.01111
C 4.89194 29.85166 -0.02162
C 4.90804 28.45052 0.00415
C 6.2264 27.74131 -0.0014
C 6.18942 26.25218 0.02162
C 6.06475 0.71888 -0.00368
C 4.81177 0.06434 -0.02696
C 7.27007 32.76459 -0.00114
C 8.55426 32.12927 0.00228
C 8.57612 30.69994 0.00798
C 7.45397 29.95986 0.00422
C 7.41588 28.49797 0.0351
C 8.59373 27.77969 -0.03113
C 8.61588 26.3979 0.02098
C 7.39333 25.61591 0.01848
C 7.45294 24.10201 -0.00619
C 8.66625 23.46622 -0.02162
C 8.72343 22.03995 0.00889
C 7.39601 21.22793 -0.00481
C 7.51397 19.81993 0.00979
C 6.41596 2.08621 -0.0108
C 8.63572 17.63522 0.03505
C 5.1346 2.8591 -0.01957
C 4.89215 7.14994 0.01965
C 4.9806 25.69152 0.0076
C 4.90118 24.1495 0.01241
C 6.15719 23.43052 -0.01454
C 6.18448 22.00364 0.01945
C 4.94046 21.31517 0.01416
C 4.91387 19.90478 0.03542
C 6.12569 19.12188 0.02299
C 6.17719 17.7155 0.00244
C 4.87456 17.04179 -0.01717
C 4.86466 15.6027 0.05265
C 6.08518 14.87228 -0.01952
C 6.24661 13.50338 -0.02813
C 5.03495 12.72296 0.00374
C 4.85505 11.37589 0.00052
C 4.73647 8.55482 -0.03682
C 4.80804 4.18185 0.02058
C 23.10111 9.30439 -0.01971
C 21.99646 8.56955 -0.02118
C 22.03213 7.03031 0.00733
C 31.88125 21.33996 -0.02383
C 32.0055 19.97069 -0.01429
C 33.1868 19.28627 -0.0136
C 33.15926 17.84146 0.00594
C 31.95251 17.09242 -0.02474
C 31.89866 15.7327 0.00369
C 33.18213 22.04966 0.01574
C 33.20114 14.90543 0.00455
C 31.87311 12.7955 -0.01839
C 31.86158 11.42261 0.00137
C 33.06795 10.73516 0.00199
C 33.08365 9.32451 0.04381
C 31.87582 8.63018 0.02806
C 31.9572 7.18229 0.01504
C 33.18163 13.50075 -0.00644
C 33.14348 23.42704 0.01927
C 31.94827 24.14571 0.03794
C 31.88773 25.58092 -0.01779
C 29.39952 7.14859 0.01518
C 30.70591 6.46483 0.01908
C 30.60431 5.0608 0.07705
C 29.45551 4.32357 0.0103
C 29.43661 2.82803 0.02108
C 30.6943 2.20129 0.00716
C 30.69642 0.79343 0.00307
C 29.45404 0.12231 0.00346
C 31.89195 32.7371 0.01713
C 33.08363 32.05317 -0.01694
C 33.14719 30.62748 0.01428
C 31.97326 29.85046 -0.02142
C 31.96868 28.36042 0.0544
C 33.14847 27.69647 0.00026
C 33.07792 26.29587 0.00682
C 33.13703 6.48647 -0.00069
C 33.09377 4.9746 0.04926
C 31.84424 4.3606 -0.03838
C 31.88023 2.89204 0.00349
C 34.41121 15.62513 0.02114
C 1.18264 14.96651 -0.02957
C 1.12356 13.52258 0.00343
C 34.36507 12.85706 -0.02656
C 34.32735 11.39639 -0.02442
C 1.24301 10.77982 -0.00027
C 1.17022 9.307 -0.00583
C 34.33956 8.70775 -0.02302
C 34.35676 7.19828 -0.02849
C 1.18616 6.43929 0.02931
C 1.21332 4.98016 0.00628
C 34.31734 4.33766 -0.0345
C 34.41401 2.94689 -0.00931
C 1.21343 2.20616 -0.00939
C 1.17216 0.75074 -0.00468
C 34.34308 17.07316 0.00648
C 29.36336 8.64457 -0.00971
C 1.21456 17.79801 0.01223
C 0.05564 19.9216 0.01951
C 33.19218 2.19353 -0.00323
C 33.18197 0.7778 -0.00841
C 31.9219 0.06237 0.0001
C 34.43078 32.7759 -0.02927
C 1.17132 31.94505 -0.01404
C 1.13328 30.53228 0.01027
C 34.41409 29.84181 0.01831
C 34.36172 28.42436 -0.01037
C 1.20389 27.67201 -0.00439
C 1.17198 26.28072 -0.00598
C 34.33466 25.5595 -0.05239
C 34.30694 24.21137 0.03076
C 1.18303 23.53152 0.00723
C 1.20701 22.14198 0.02712
C 0.0197 21.41673 -0.02213
C 1.23594 19.16367 -0.01678
C 30.66455 9.32921 -0.03735
C 30.61405 10.75461 -0.00944
C 29.29847 11.50923 -0.02155
C 25.66034 6.46347 0.00684
C 25.74743 4.93615 -0.01052
C 24.45016 4.17029 -0.01679
C 24.50562 2.82914 0.00367
C 25.75042 2.17256 0.04306
C 25.74609 0.72428 0.00996
C 24.52721 0.01787 0.00195
C 27.01221 32.76173 -0.00802
C 28.23756 32.05559 -0.00218
C 28.26933 30.62897 -0.01654
C 27.0417 29.861 -0.00037
C 27.10967 28.42957 -0.0032
C 28.33457 27.81663 0.00622
C 28.25191 26.37946 -0.02815
C 27.07197 25.65046 -0.00942
C 24.38513 7.1678 -0.01154
C 26.88605 24.28362 0.00487
C 24.40164 8.55983 -0.0264
C 25.66418 10.59493 -0.00229
C 23.29028 6.34641 -0.00178
C 23.2115 4.94325 0.00768
C 22.05928 4.15804 -0.0276
C 22.10746 2.74448 0.03005
C 23.25431 2.07927 -0.04078
C 23.30222 0.61519 0.02117
C 22.05801 34.0435 0.02737
C 24.50449 32.72404 -0.00498
C 25.80576 32.03295 0.00135
C 25.73297 30.59477 0.03102
C 24.52292 29.90512 0.02555
C 24.563 28.37372 0.01423
C 25.80849 27.73371 -0.00285
C 25.85868 26.22271 -0.009
C 24.6746 25.45016 -0.01199
C 25.69447 9.20814 -0.00938
C 3.61362 31.96184 -0.00334
C 28.00356 23.49952 0.00826
C 28.15801 14.95278 0.00152
C 30.73782 27.71382 0.02326
C 30.6622 26.33509 0.00261
C 29.45981 25.5808 0.03265
C 29.4117 24.20639 -0.02049
C 30.55512 23.37163 -0.01854
C 30.55315 21.90357 -0.01415
C 29.18129 21.27921 -0.03039
C 29.49779 19.85125 0.01836
C 30.74371 19.24334 0.03531
C 30.71329 17.81585 -0.00669
C 29.42596 17.3574 0.0101
C 29.18304 15.92107 0.01705
C 30.60049 15.06654 -0.0405
C 30.573 13.63319 -0.01303
C 29.27748 12.91432 -0.01461
C 29.53887 28.4903 0.00924
C 28.22403 22.13495 -0.00294
C 29.50929 29.90246 0.0014
C 30.63002 32.02983 0.04266
C 27.90627 13.69078 0.01257
C 26.78078 12.84169 0.02316
C 26.76039 11.36085 0.04185
C 28.06893 10.72695 0.00194
C 28.11188 9.26696 -0.00621
C 26.89511 8.48099 0.02611
C 26.89018 7.1426 0.02198
C 28.18345 6.36356 0.01094
C 28.15734 4.99422 0.00235
C 26.95925 4.28061 0.01495
C 26.95093 2.88106 0.01259
C 28.206 2.19976 0.01799
C 28.19088 0.80484 0.01699
C 26.87868 0.07424 -0.00416
C 29.48494 32.74931 0.01177
C 30.74036 30.56577 0.01324
C 2.396 32.67742 -0.01634
