388
Graphene
C 0.01453 0.02492 0.01295
C 16.03337 10.61099 -0.02162
C 15.93042 9.27984 0.00415
C 14.76003 8.55504 -0.0014
C 14.78572 7.08764 0.02162
C 16.02474 6.40735 0.0076
C 15.99519 4.98363 0.01241
C 14.72438 4.21696 -0.01454
C 14.71522 2.83662 0.01945
C 15.95178 2.07304 0.01416
C 14.76886 11.3441 0.01363
C 16.02273 0.73394 0.03542
C 17.26183 32.62559 0.00244
C 18.4871 31.93389 -0.01717
C 18.49886 30.49802 0.05265
C 17.17192 29.84836 -0.01952
C 17.2203 28.36534 -0.02813
C 18.44311 27.61787 0.00374
C 18.38341 26.22541 0.00052
C 18.52691 23.38357 -0.03682
C 18.39709 22.00024 0.01965
C 14.77469 0.02311 0.02299
C 17.23439 21.22981 0.02058
C 14.73545 12.81257 0.01877
C 15.91915 14.95062 0.00444
C 12.29919 11.38755 0.00572
C 13.5265 10.68635 0.03592
C 13.53152 9.25524 0.00406
C 12.30187 8.52127 0.00943
C 12.28015 7.12674 0.02841
C 13.53132 6.38536 -0.01111
C 13.55287 5.01751 -0.01275
C 12.31092 4.33098 0.00985
C 12.2772 2.86395 -0.02245
C 15.95829 13.54768 -0.00925
C 13.52336 2.09455 -0.00428
C 12.30345 34.05074 -0.01536
C 14.77267 32.68739 -0.02689
C 16.05932 31.95655 -0.01046
C 16.01132 30.49172 -0.00891
C 14.74229 19.87877 0.02819
C 16.00459 19.15593 0.00165
C 15.93799 17.75098 -0.02971
C 14.77032 17.03199 0.02894
C 14.80398 15.6416 -0.01789
C 13.52937 0.73257 0.03101
C 17.22316 19.89691 -0.01957
C 18.4143 19.24119 -0.0108
C 18.44687 17.77457 -0.00368
C 19.65966 24.05391 -0.00109
C 20.90418 23.37727 -0.00491
C 20.89826 22.03761 0.03338
C 19.68927 21.27734 -0.0258
C 19.63749 19.88106 -0.0331
C 20.8697 19.21232 -0.00316
C 20.92231 17.73924 0.02188
C 19.74062 17.08852 -0.01979
C 19.68874 15.62036 0.02691
C 19.68257 25.56947 0.03698
C 20.91295 14.9061 -0.01581
C 19.70864 12.73141 0.04892
C 19.65376 11.36367 -0.00111
C 20.87814 10.61788 -0.03557
C 20.93755 9.19601 0.03754
C 19.7049 8.48178 0.01739
C 19.65047 7.12162 0.00755
C 20.88537 6.37669 -0.0054
C 20.87183 4.98006 0.00667
C 19.63333 4.28681 0.00143
C 20.8978 13.51653 0.01452
C 20.91072 26.27962 -0.02213
C 20.97158 27.66626 0.00028
C 19.69571 28.39219 -0.00289
C 17.23033 17.03631 -0.02696
C 17.21855 15.6394 -0.00114
C 18.48206 14.94027 0.00228
C 18.44352 13.49035 0.00798
C 17.19127 12.76955 0.00422
C 17.20237 11.31931 0.0351
C 18.43095 10.62657 -0.03113
C 18.47895 9.2351 0.02098
C 17.19506 8.50692 0.01848
C 17.19794 7.11631 -0.00619
C 18.40663 6.42136 -0.02162
C 18.43231 4.97212 0.00889
C 17.15516 4.27031 -0.00481
C 17.19718 2.85173 0.00979
C 18.48682 2.13112 0.01443
C 18.41449 0.68695 0.03505
C 17.20482 34.02631 -0.02815
C 19.6624 32.66709 -0.04147
C 20.90983 31.95184 -0.05302
C 20.86616 30.50571 0.00213
C 19.6874 29.79197 -0.00066
C 12.33716 12.8 0.0402
C 19.65658 2.87937 -0.017
C 13.54266 13.44962 -0.02759
C 12.26471 15.63511 -0.00033
C 2.47824 4.2744 0.0086
C 2.46638 2.8753 -0.00643
C 3.6961 2.10608 0.017
C 3.68912 0.71996 -0.03113
C 2.44759 0.01658 -0.02566
C 4.89204 32.65874 -0.00094
C 6.15052 31.95507 0.02322
C 4.92618 21.3142 -0.00725
C 4.93505 19.85602 -0.05697
C 3.71731 4.9987 -0.00518
C 6.16079 19.19317 0.01087
C 4.91785 17.05591 0.00988
C 4.85005 15.69444 0.0276
C 6.15384 14.94497 0.01305
C 6.13538 13.48912 -0.00077
C 4.90031 12.78847 0.03368
C 4.90717 11.37202 -0.02929
C 6.17878 10.61444 -0.00966
C 6.17536 9.24658 -0.03337
C 4.90466 8.51672 0.01227
C 6.21 17.73238 -0.01343
C 4.95714 7.1165 0.00873
C 3.64393 6.37602 -0.00074
C 2.43934 8.5921 -0.03996
C 3.70126 30.52476 0.04505
C 2.48652 29.78527 0.03284
C 2.43259 28.38821 -0.04307
C 3.70232 27.64982 0.03189
C 2.432 25.53977 0.00031
C 2.49778 24.15424 -0.003
C 3.58645 23.39783 0.01402
C 3.68498 22.09342 0.02379
C 2.42725 21.36062 0.00907
C 2.44907 7.10839 0.01465
C 2.48728 19.92471 0.00643
C 3.69713 17.68227 0.03267
C 2.50427 17.06122 0.02374
C 2.51369 15.65656 0.00402
C 3.69365 14.93812 0.0073
C 3.67107 13.49073 0.0174
C 2.41236 12.72882 0.03828
C 2.44955 11.33305 0.01226
C 3.68821 10.67829 -0.00279
C 3.70251 9.21443 0.01996
C 3.67044 19.18979 -0.01509
C 6.16468 6.43108 -0.00049
C 6.11878 4.97295 0.00848
C 4.98504 4.25919 -0.01303
C 9.86111 15.61871 0.00488
C 11.05216 14.95481 -0.01004
C 11.02947 13.4407 -0.02896
C 9.83009 12.78297 -0.00131
C 9.81148 11.35359 -0.01118
C 11.0104 10.60401 -0.014
C 11.0631 9.22643 0.02147
C 9.83023 8.55135 0.00373
C 9.82977 7.14509 -0.00191
C 9.85628 16.99104 0.01745
C 11.07873 6.4166 0.00438
C 9.84307 4.28369 0.00093
C 9.86325 2.85168 0.00057
C 11.05989 2.14164 -0.01634
C 11.08721 0.71917 -0.00334
C 9.87417 0.05846 0.02339
C 12.30977 32.68177 0.01641
C 13.56392 19.22688 -0.00719
C 13.5554 17.76639 0.01364
C 12.31753 17.12051 -0.01062
C 11.04857 5.00554 0.01291
C 11.10842 17.77827 0.03693
C 7.33465 0.03801 -0.01384
C 8.59132 0.73584 -0.00482
C 4.93694 2.87821 -0.01378
C 6.11204 2.13037 0.02635
C 6.15624 0.74805 0.0127
C 4.93542 34.06506 0.01396
C 7.36813 32.65368 0.01849
C 8.61088 17.78326 -0.01142
C 7.35566 17.06055 -0.00562
C 7.39554 15.59866 -0.00494
C 8.57392 14.89853 0.00054
C 8.57461 13.50336 0.03007
C 7.37677 12.74691 -0.00095
C 7.36998 11.35645 0.01572
C 8.54247 10.68178 -0.04848
C 8.59117 9.24046 -0.00892
C 7.39497 8.56923 -0.01362
C 7.38402 7.09006 -0.0008
C 8.61403 6.41219 0.0288
C 8.58126 4.98573 0.00393
C 7.39184 4.27338 0.00895
C 7.35974 2.886 0.00685
C 8.54851 2.11826 0.02888
C 13.47725 14.9146 0.03589
C 20.89452 2.11914 0.00364
C 20.93031 0.75817 -0.00831
C 19.6394 0.01385 -0.02957
C 30.75678 5.0125 0.07705
C 29.49791 4.22752 0.0103
C 29.51477 2.84607 0.02108
C 30.74017 2.13639 0.00716
C 30.77998 0.69429 0.00307
C 29.53201 0.01981 0.00346
C 31.94105 32.6389 0.01713
C 33.19658 31.95283 -0.01694
C 33.19876 30.52631 0.01428
C 30.70768 6.45209 0.01908
C 32.01743 29.80202 -0.02142
C 33.21723 27.66542 0.00026
C 33.23411 26.24625 0.00682
C 31.95994 25.57152 -0.01779
C 31.9775 24.16974 0.03794
C 33.23033 23.42198 0.01927
C 33.20334 21.99183 0.01574
C 31.99202 21.29526 -0.02383
C 31.96269 19.90782 -0.01429
C 33.24274 19.21239 -0.0136
C 31.99891 28.33531 0.0544
C 33.21557 17.73553 0.00594
C 29.53104 7.11076 0.01518
C 30.73673 9.28573 -0.03735
C 30.74522 30.48624 0.01324
C 29.4755 29.8206 0.0014
C 29.55462 28.34893 0.00924
C 30.73458 27.6327 0.02326
C 30.69454 26.27459 0.00261
C 29.48298 25.51392 0.03265
C 29.48251 24.11711 -0.02049
C 30.74093 23.44862 -0.01854
C 30.75641 21.99072 -0.01415
C 29.52816 8.51362 -0.00971
C 29.5451 21.34097 -0.03039
C 30.78393 19.14512 0.03531
C 30.75105 17.67642 -0.00669
C 29.51109 17.03983 0.0101
C 29.54932 15.59147 0.01705
C 30.75041 14.91 -0.0405
C 30.75426 13.48009 -0.01303
C 29.50326 12.79927 -0.01461
C 29.51527 11.37018 -0.02155
C 30.76891 10.68636 -0.00944
C 29.50882 19.86289 0.01836
C 32.01008 17.08558 -0.02474
C 31.96826 15.61878 0.00369
C 33.21984 14.8905 0.00455
C 34.42217 21.28983 -0.02213
C 0.03565 19.92018 0.01951
C 1.26946 19.1791 -0.01678
C 1.20505 17.70899 0.01223
C 34.42975 17.03757 0.00648
C 34.42861 15.62126 0.02114
C 1.25726 14.95576 -0.02957
C 1.1961 13.43807 0.00343
C 34.40824 12.737 -0.02656
C 1.2007 22.02737 0.02712
C 0.03051 11.36728 -0.02442
C 1.18035 9.19937 -0.00583
C 34.37933 8.53261 -0.02302
C 34.41641 7.07091 -0.02849
C 1.19221 6.36655 0.02931
C 1.2172 4.90879 0.00628
C 34.43254 4.27819 -0.0345
C 0.01366 2.86148 -0.00931
C 1.25504 2.13993 -0.00939
C 1.25506 0.6996 -0.00468
C 1.18461 10.64968 -0.00027
C 1.17614 23.46033 0.00723
C 34.42726 24.16717 0.03076
C 0.02722 25.54901 -0.05239
C 33.22836 13.46659 -0.00644
C 31.93228 12.81595 -0.01839
C 31.97034 11.36298 0.00137
C 33.17756 10.69022 0.00199
C 33.16115 9.25155 0.04381
C 31.95519 8.51311 0.02806
C 31.95911 7.14734 0.01504
C 33.20821 6.39671 -0.00069
C 33.21649 4.97498 0.04926
C 31.95902 4.2445 -0.03838
C 31.96312 2.85587 0.00349
C 33.18596 2.13296 -0.00323
C 33.18857 0.74702 -0.00841
C 31.9809 34.03832 0.0001
C 34.42705 32.63683 -0.02927
C 1.19356 31.95429 -0.01404
C 1.23179 30.54312 0.01027
C 0.02281 29.81838 0.01831
C 34.3879 28.37124 -0.01037
C 1.20002 27.6631 -0.00439
C 1.26001 26.26575 -0.00598
C 30.74968 31.8921 0.04266
C 29.46776 32.67306 0.01177
C 27.08117 34.03635 -0.00416
C 28.29007 0.6956 0.01699
C 23.3824 6.3797 0.01852
C 23.34845 4.94371 -0.00381
C 22.15061 4.20516 0.03046
C 22.13608 2.82201 0.0296
C 23.33468 2.10549 0.03374
C 23.37091 0.70055 -0.02845
C 22.16929 34.05038 -0.03213
C 24.59152 32.73435 0.02239
C 25.78325 31.94212 0.01153
C 22.11044 7.06332 0.01126
C 25.79674 30.46044 0.02734
C 24.56079 28.41535 0.01515
C 25.84052 27.68896 -0.00225
C 25.82571 26.29242 0.00071
C 24.52109 25.55491 -0.01107
C 24.55258 24.09024 -0.01586
C 25.83532 23.43484 -0.01971
C 25.81297 21.99035 -0.02118
C 24.6115 21.26437 0.00733
C 24.61665 19.81804 -0.00178
C 24.60807 29.79803 -0.0055
C 22.11878 8.51412 -0.01185
C 23.36809 9.18077 -0.01662
C 23.3383 10.63034 -0.00478
C 22.11837 32.69229 -0.04422
C 23.40186 31.93513 0.00654
C 23.41215 30.48079 -0.00703
C 22.12967 29.78552 -0.04076
C 22.1671 28.40138 -0.00652
C 23.38554 27.691 0.0058
C 23.3615 26.24647 -0.00865
C 22.1831 25.57077 0.00675
C 22.10371 24.13114 -0.00311
C 23.37244 23.43625 0.00742
C 23.41664 21.96815 -0.01594
C 22.19157 21.29903 0.0106
C 22.14885 19.92468 -0.01154
C 23.35473 19.19587 -0.01721
C 23.36647 17.69008 -0.02422
C 22.12283 17.02881 0.01277
C 22.12879 15.61171 0.00096
C 23.32881 14.95751 -0.01527
C 23.35536 13.46716 0.01087
C 22.14474 12.7832 0.00199
C 22.09463 11.36971 0.01511
C 25.80049 19.15887 0.00768
C 3.73174 31.94955 -0.04999
C 25.80633 17.81945 -0.0276
C 24.56601 15.57353 -0.04078
C 28.32625 22.06081 -0.0032
C 27.0773 21.29673 0.00622
C 27.09198 19.84093 -0.02815
C 28.23491 19.13066 -0.00942
C 28.29478 17.75507 0.00487
C 27.02492 17.02075 0.00826
C 27.14735 15.66701 -0.00294
C 28.26449 14.92324 0.00152
C 28.28999 13.48808 0.01257
C 28.29019 23.40317 -0.00037
C 26.97796 12.76913 0.02316
C 28.24069 10.66191 0.00194
C 28.25128 9.23705 -0.00621
C 27.03953 8.52658 0.02611
C 27.07662 7.07139 0.02198
C 28.23696 6.34796 0.01094
C 28.28604 4.96921 0.00235
C 27.01784 4.26422 0.01495
C 27.03108 2.82777 0.01259
C 28.25991 2.14191 0.01799
C 27.05421 11.35122 0.04185
C 27.04793 24.13578 -0.01654
C 27.04732 25.59482 -0.00218
C 28.30007 26.21489 -0.00802
C 25.83079 14.92146 0.02117
C 25.83325 13.49005 0.02737
C 24.62493 12.80625 -0.00498
C 24.66433 11.4381 0.00135
C 25.83231 10.64381 0.03102
C 25.77676 9.1644 0.02555
C 24.58162 8.49971 0.01423
C 24.59628 7.11106 -0.00285
C 25.79429 6.40462 -0.009
C 25.83734 4.93623 -0.01199
C 24.61569 4.30458 -0.00229
C 24.63665 2.8717 -0.00938
C 25.80637 2.14824 -0.0264
C 25.83349 0.6824 -0.01154
C 24.58587 0.0432 0.00684
C 27.05525 32.62772 -0.01052
C 28.28346 31.92377 -0.01679
C 28.25398 30.52371 0.00367
C 27.06723 29.81339 0.04306
C 27.0264 28.39398 0.00996
C 28.29523 27.68723 0.00195
C 24.60496 17.03136 0.03005
C 2.48202 32.68324 -0.03291
