400
Graphene
C 0.01611 0.03308 0.01295
C 9.90002 34.06452 0.00165
C 12.24515 32.7212 -0.02971
C 13.51531 31.98875 0.02894
C 13.54282 30.52602 -0.01789
C 12.34391 29.86268 0.00444
C 12.31813 28.42879 -0.00925
C 13.47549 27.65058 0.01877
C 13.49741 26.24144 0.01363
C 12.27013 25.44735 -0.02162
C 12.28243 24.10956 0.00415
C 13.57912 23.46218 -0.0014
C 13.55866 21.99026 0.02162
C 12.33607 21.27514 0.0076
C 12.33395 19.84858 0.01241
C 13.50479 19.22596 -0.01454
C 13.52536 17.72625 0.01945
C 12.28522 16.99201 0.01416
C 12.24351 15.58777 0.03542
C 13.61288 14.8389 0.02299
C 13.48506 13.46651 0.00244
C 12.27945 12.81399 -0.01717
C 11.08306 0.66674 0.02819
C 12.2782 11.39799 0.05265
C 11.01179 2.18389 -0.00891
C 9.85989 4.31239 -0.02689
C 11.10581 26.30051 0.02339
C 9.87251 25.59497 0.01641
C 9.86246 24.16864 -0.00719
C 11.05057 23.45659 0.01364
C 11.09504 22.02236 -0.01062
C 9.86056 21.33946 -0.00033
C 9.83579 19.96277 0.03589
C 11.03727 19.18313 -0.02759
C 11.04765 17.81483 0.0402
C 9.85147 16.98679 0.00572
C 9.83726 15.61622 0.03592
C 11.07906 14.93834 0.00406
C 11.13135 13.47767 0.00943
C 9.80827 12.73215 0.02841
C 9.82165 11.38898 -0.01111
C 11.08711 10.63635 -0.01275
C 11.01368 9.22303 0.00985
C 9.85423 8.51572 -0.02245
C 9.90322 7.12324 -0.00428
C 11.06202 6.4074 0.03101
C 11.08798 4.97456 -0.01536
C 9.8174 2.94227 -0.01046
C 11.06906 27.73318 -0.00334
C 13.50135 10.57968 -0.01952
C 12.29464 8.4756 0.00374
C 15.99992 14.97154 -0.05302
C 15.97935 13.4647 0.00213
C 14.71666 12.78178 -0.00066
C 14.74196 11.37325 -0.00289
C 16.03586 10.64294 0.00028
C 16.05386 9.2925 -0.02213
C 14.76658 8.48587 0.03698
C 14.77996 7.07871 -0.00109
C 15.99529 6.35477 -0.00491
C 16.01778 4.91048 0.03338
C 14.70994 4.25643 -0.0258
C 14.72419 2.81445 -0.0331
C 15.97937 2.09401 -0.00316
C 16.00607 0.68289 0.02188
C 14.75475 0.03385 -0.01979
C 17.17621 32.66938 0.02691
C 18.40784 31.96737 -0.01581
C 18.38281 30.57574 0.01452
C 17.19988 29.84598 0.04892
C 17.20934 28.40855 -0.00111
C 18.46716 27.64474 -0.03557
C 14.78525 15.63296 -0.04147
C 13.53125 9.22623 -0.02813
C 14.7489 17.07716 -0.02815
C 16.03378 19.19738 0.01443
C 12.29287 7.09898 0.00052
C 13.54078 6.34712 -0.03682
C 13.50455 4.94394 0.01965
C 12.28875 4.24531 0.02058
C 12.33179 2.86197 -0.01957
C 13.49568 2.12736 -0.0108
C 13.50517 0.7203 -0.00368
C 12.26722 0.01033 -0.02696
C 14.74691 32.64736 -0.00114
C 15.93346 31.96079 0.00228
C 15.97759 30.55057 0.00798
C 14.77935 29.81415 0.00422
C 14.73183 28.37085 0.0351
C 15.97267 27.61725 -0.03113
C 15.95027 26.23011 0.02098
C 14.7661 25.52679 0.01848
C 14.72591 24.12323 -0.00619
C 16.00998 23.42173 -0.02162
C 16.03697 22.03418 0.00889
C 14.72569 21.3568 -0.00481
C 14.77476 19.84147 0.00979
C 15.95434 17.76015 0.03505
C 18.44141 26.26871 0.03754
C 9.84643 28.43998 -0.01634
C 11.08524 30.46845 0.00093
C 2.46757 4.2826 0.00402
C 2.44229 2.87599 0.0073
C 3.65638 2.13236 0.0174
C 3.67947 0.71424 0.03828
C 2.46261 0.0415 0.01226
C 4.90947 32.62829 -0.00279
C 6.16301 31.99266 0.01996
C 6.17173 30.55635 -0.03996
C 4.92638 29.83409 0.01465
C 4.86219 28.46738 -0.00074
C 6.16433 27.71164 -0.00518
C 6.15986 26.24806 0.0086
C 4.88287 25.56318 -0.00643
C 4.87777 24.17907 0.017
C 6.19227 23.37412 -0.03113
C 6.20719 22.02314 -0.02566
C 4.90436 21.28355 -0.00094
C 4.98826 19.84201 0.02322
C 6.16653 19.14555 -0.00725
C 6.0908 17.73764 -0.05697
C 4.88814 17.13003 0.01087
C 3.70531 4.98333 0.02374
C 4.94392 15.59825 -0.01343
C 3.66997 6.41019 0.03267
C 2.51146 8.52054 0.00643
C 3.65183 30.48671 0.0064
C 2.49888 29.77606 0.00211
C 2.3809 28.33052 -0.00449
C 3.67159 27.74942 -0.01979
C 3.63323 26.30933 0.02784
C 2.42901 25.56659 -0.01977
C 2.49053 24.16853 -0.00561
C 3.69857 23.37033 0.00208
C 3.74067 22.02822 0.01707
C 2.49487 21.36847 0.02769
C 2.48272 19.91355 -0.03291
C 3.69035 19.15234 -0.04999
C 3.64505 17.68859 0.04505
C 2.43184 16.99813 0.03284
C 2.48406 15.60267 -0.04307
C 3.68934 14.86808 0.03189
C 3.68483 13.51357 0.00031
C 2.45994 12.8573 -0.003
C 2.4058 11.38545 0.01402
C 3.7315 10.66361 0.02379
C 3.75034 9.25312 0.00907
C 2.47067 7.14114 -0.01509
C 9.80356 29.7322 0.00057
C 6.13044 14.90265 0.00988
C 4.87159 12.81508 0.01305
C 8.54514 19.13591 -0.0008
C 8.61722 17.74804 0.0288
C 7.36677 17.07952 0.00393
C 7.3648 15.65902 0.00895
C 8.63001 14.86639 0.00685
C 8.58726 13.5096 0.02888
C 7.35771 12.80645 -0.00482
C 7.39986 11.37221 -0.01384
C 8.59729 10.62786 0.03693
C 8.61194 9.22205 0.01745
C 7.3971 8.55718 0.00488
C 7.34747 7.12056 -0.01004
C 8.5615 6.46104 -0.02896
C 8.65224 4.98647 -0.00131
C 7.4051 4.30821 -0.01118
C 7.37293 2.87135 -0.014
C 8.64056 2.19518 0.02147
C 8.57626 0.80368 0.00373
C 7.3587 0.06697 -0.00191
C 9.86011 32.67997 0.00438
C 11.00517 31.94632 0.01291
C 7.3729 19.90806 -0.01362
C 6.14414 13.49346 0.0276
C 7.3966 21.2756 -0.00892
C 8.57738 23.47107 0.01572
C 4.88654 11.42708 -0.00077
C 6.1585 10.66901 0.03368
C 6.10081 9.227 -0.02929
C 4.88381 8.55967 -0.00966
C 4.90177 7.07384 -0.03337
C 6.15932 6.38515 0.01227
C 6.12973 5.02919 0.00873
C 4.90592 4.2836 -0.00049
C 4.96462 2.89323 0.00848
C 6.17693 2.09991 -0.01303
C 6.14322 0.74439 -0.01378
C 4.87172 34.07776 0.02635
C 7.39438 32.68308 0.0127
C 8.59155 31.99136 0.01396
C 8.53289 30.54296 0.01849
C 7.3446 29.82841 -0.01142
C 7.35874 28.33867 -0.00562
C 8.6189 27.71798 -0.00494
C 8.56929 26.26401 0.00054
C 7.39067 25.58371 0.03007
C 7.37646 24.10362 -0.00095
C 8.58515 22.0114 -0.04848
C 17.21753 25.57526 0.01739
C 17.25108 24.13731 0.00755
C 18.47194 23.46917 -0.0054
C 30.72571 10.64629 0.01518
C 30.73172 9.24206 0.01908
C 29.50008 8.53121 0.07705
C 29.45164 7.15112 0.0103
C 30.78016 6.39584 0.02108
C 30.75494 4.92324 0.00716
C 29.56867 4.21633 0.00307
C 29.50527 2.85096 0.00346
C 30.72948 2.15078 0.01713
C 30.76443 0.71097 -0.01694
C 29.50255 34.07005 0.01428
C 31.97579 32.63548 -0.02142
C 33.20044 31.97666 0.0544
C 33.24829 30.57649 0.00026
C 31.97414 29.74993 0.00682
C 32.02073 28.36409 -0.01779
C 33.22861 27.71048 0.03794
C 33.20898 26.30632 0.01927
C 31.99027 25.51097 0.01574
C 31.95222 24.14615 -0.02383
C 33.25262 23.39603 -0.01429
C 29.42656 11.27705 -0.00971
C 33.16836 22.02749 -0.0136
C 30.75666 21.98928 -0.03735
C 29.47809 24.15804 -0.02155
C 27.08606 24.12439 -0.00416
C 28.22826 23.40207 0.01177
C 28.38141 10.63615 0.04266
C 28.27375 9.26664 0.01324
C 27.11788 8.48612 0.0014
C 27.05366 7.01566 0.00924
C 28.29994 6.36837 0.02326
C 28.31514 4.92548 0.00261
C 27.01763 4.22084 0.03265
C 27.06721 2.7883 -0.02049
C 28.28825 2.14678 -0.01854
C 28.28402 0.74508 -0.01415
C 27.09703 0.08342 -0.03039
C 29.50349 32.65042 0.01836
C 30.78265 31.98662 0.03531
C 30.71128 30.54116 -0.00669
C 29.51244 29.81536 0.0101
C 29.51766 28.387 0.01705
C 30.80643 27.72764 -0.0405
C 30.78803 26.2663 -0.01303
C 29.4844 25.52468 -0.01461
C 30.74146 23.45101 -0.00944
C 27.04832 25.5571 0.01699
C 31.9538 21.40958 0.00594
C 33.17847 17.69089 0.00369
C 1.17836 22.00266 0.02712
C 34.41511 21.30268 -0.02213
C 0.05103 19.8874 0.01951
C 1.18875 19.13987 -0.01678
C 1.17006 17.75526 0.01223
C 34.41298 16.97325 0.00648
C 34.38541 15.59364 0.02114
C 1.21118 14.86063 -0.02957
C 1.2263 13.55108 0.00343
C 0.01712 12.80335 -0.02656
C 34.41573 11.36128 -0.02442
C 1.2157 10.65331 -0.00027
C 1.18465 9.2005 -0.00583
C 34.36683 8.53773 -0.02302
C 34.43312 7.11801 -0.02849
C 1.25555 6.33236 0.02931
C 1.2341 4.9392 0.00628
C 34.39038 4.27834 -0.0345
C 0.00871 2.852 -0.00931
C 1.23538 2.19746 -0.00939
C 1.22544 0.7327 -0.00468
C 1.19586 23.44199 0.00723
C 33.21289 19.17757 -0.02474
C 0.01241 24.15664 0.03076
C 1.24215 26.27114 -0.00598
C 33.20418 14.85757 0.00455
C 33.18051 13.47421 -0.00644
C 31.94518 12.79196 -0.01839
C 31.94741 11.43051 0.00137
C 33.19116 10.59591 0.00199
C 33.17919 9.20258 0.04381
C 31.91884 8.51269 0.02806
C 31.96483 7.1324 0.01504
C 33.23669 6.39618 -0.00069
C 33.13805 4.91835 0.04926
C 31.94424 4.25686 -0.03838
C 31.99106 2.85521 0.00349
C 33.18719 2.07599 -0.00323
C 33.17429 0.71379 -0.00841
C 32.00269 34.0353 0.0001
C 0.01871 32.65974 -0.02927
C 1.26316 31.97115 -0.01404
C 1.21482 30.50943 0.01027
C 0.01481 29.77186 0.01831
C 34.42233 28.38358 -0.01037
C 1.19357 27.66238 -0.00439
C 0.01033 25.57892 -0.05239
C 28.32355 26.24196 0.01799
C 28.27031 27.73068 0.01259
C 26.96831 28.39411 0.01495
C 19.60813 29.78558 0.00199
C 19.66159 28.32646 0.01511
C 20.86314 27.6984 -0.00478
C 20.93325 26.25637 -0.01662
C 19.70222 25.54561 -0.01185
C 19.60207 24.1404 0.01126
C 20.83944 23.34385 0.01852
C 20.9213 21.98897 -0.00381
C 19.70553 21.25701 0.03046
C 19.72023 19.8341 0.0296
C 19.70641 16.92672 0.03374
C 19.71273 15.63084 -0.02845
C 20.88352 13.48152 -0.03213
C 19.71287 12.75476 0.02239
C 19.6444 11.3273 0.01153
C 20.87336 10.66262 0.02734
C 20.95164 9.16575 -0.0055
C 19.74851 8.48829 0.01515
C 19.64244 7.07358 -0.00225
C 20.88151 6.39462 0.00071
C 20.92967 4.97776 -0.01107
C 20.89661 30.48748 0.01087
C 19.73425 4.26942 -0.01586
C 20.86985 31.93052 -0.01527
C 17.21501 0.01623 0.01277
C 18.48879 22.00803 0.00667
C 17.28128 21.31563 0.00143
C 17.25661 19.92423 -0.017
C 18.47621 19.22824 0.00364
C 18.504 17.6911 -0.00831
C 17.20704 17.05852 -0.02957
C 17.23909 15.6628 -0.04422
C 18.43031 14.98367 0.00654
C 18.40625 13.48744 -0.00703
C 17.2251 12.80128 -0.04076
C 17.21602 11.39348 -0.00652
C 18.45262 10.63486 0.0058
C 18.48819 9.24457 -0.00865
C 17.2165 8.58042 0.00675
C 17.20822 7.05924 -0.00311
C 18.46684 6.43018 0.00742
C 18.50563 4.95004 -0.01594
C 17.27823 4.2215 0.0106
C 17.14035 2.80923 -0.01154
C 18.45676 2.15729 -0.01721
C 18.41682 0.68129 -0.02422
C 19.7871 32.68364 0.00096
C 19.6447 2.87432 -0.01971
C 20.89413 2.12278 -0.02118
C 20.90287 0.69889 0.00733
C 24.51121 29.85248 -0.00802
C 24.52311 28.43736 -0.00218
C 25.76442 27.68471 -0.01654
C 25.80116 26.26823 -0.00037
C 24.64451 25.51739 -0.0032
C 24.44572 24.07967 0.00622
C 25.81793 10.62039 -0.02815
C 25.78653 9.24886 -0.00942
C 24.54428 8.48425 0.00487
C 24.55643 7.1324 0.00826
C 25.80845 6.39591 -0.00294
C 25.81997 4.94831 0.00152
C 24.58088 4.26392 0.01257
C 24.59681 2.74384 0.02316
C 25.84743 2.10261 0.04185
C 25.82609 0.68677 0.00194
C 24.60939 34.07906 -0.00621
C 27.14923 32.75491 0.02611
C 28.28984 31.9523 0.02198
C 28.25031 30.46569 0.01094
C 27.04271 29.79063 0.00235
C 25.81835 30.5717 0.00195
C 25.78887 31.98273 0.00996
C 24.59978 32.65488 0.04306
C 22.17793 0.04466 0.00367
C 19.69674 34.07178 -0.00178
C 22.09767 32.68311 0.00768
C 23.33739 31.92463 -0.0276
C 23.34473 30.58037 0.03005
C 22.12693 29.81345 -0.04078
C 22.08866 28.38438 0.02117
C 23.34073 27.68676 0.02737
C 23.39075 26.26478 -0.00498
C 22.12416 25.56327 0.00135
C 22.1343 24.1215 0.03102
C 3.68525 31.92231 -0.00039
C 23.37275 23.49316 0.02555
C 23.3978 10.69059 -0.00285
C 23.32721 9.23028 -0.009
C 22.15589 8.48576 -0.01199
C 22.12638 7.12248 -0.00229
C 23.36847 6.45212 -0.00938
C 23.38323 4.9624 -0.0264
C 22.13713 4.22832 -0.01154
C 22.199 2.84051 0.00684
C 23.32765 2.14863 -0.01052
C 23.39521 0.71305 -0.01679
C 22.16545 11.38613 0.01423
C 2.46522 32.65068 0.02728
