340
Graphene
C 34.36293 0.14472 0.01295
C 13.42471 30.57505 -0.00619
C 12.28484 29.78016 -0.02162
C 12.27702 28.33281 0.00889
C 13.53472 27.58592 -0.00481
C 13.52319 26.13474 0.00979
C 12.27198 25.48182 0.01443
C 12.35907 24.0911 0.03505
C 13.62612 23.29533 -0.02815
C 13.56315 21.85684 -0.04147
C 12.24297 21.26093 -0.05302
C 12.18847 19.83773 0.00213
C 13.39831 19.16076 -0.00066
C 13.37331 17.74969 -0.00289
C 12.1783 17.04834 0.00028
C 12.48513 15.62567 -0.02213
C 13.69417 14.96505 0.03698
C 13.71496 13.63498 -0.00109
C 13.5354 31.99784 0.01848
C 12.45021 12.93742 -0.00491
C 12.31313 32.73161 0.02098
C 10.96655 0.74277 0.0351
C 11.03606 19.1111 -0.01717
C 10.93438 17.61901 0.05265
C 9.67735 16.90749 -0.01952
C 9.8873 15.47979 -0.02813
C 11.15562 14.98095 0.00374
C 11.21312 13.53472 0.00052
C 9.885 12.98719 -0.03682
C 9.71294 11.53752 0.01965
C 11.04536 10.84875 0.02058
C 10.98372 9.35856 -0.01957
C 9.7633 8.55771 -0.0108
C 9.8076 7.13542 -0.00368
C 11.09601 6.4157 -0.02696
C 11.11137 5.03733 -0.00114
C 9.78639 4.28703 0.00228
C 9.78677 2.8153 0.00798
C 10.97995 2.15638 0.00422
C 9.78514 0.02555 -0.03113
C 12.36099 11.46797 0.03338
C 13.47725 10.74809 -0.0258
C 13.48284 9.27798 -0.0331
C 14.64626 17.18103 -0.04076
C 15.07373 15.84877 -0.00652
C 16.12106 14.88093 0.0058
C 16.20982 13.5558 -0.00865
C 14.94694 12.81671 0.00675
C 14.77341 11.4044 -0.00311
C 15.93251 10.59855 0.00742
C 16.00717 9.15678 -0.01594
C 14.72566 8.50696 0.0106
C 14.72468 7.11813 -0.01154
C 16.03658 6.36453 -0.01721
C 15.97996 4.96472 -0.02422
C 14.6916 4.30118 0.01277
C 14.62271 2.80616 0.00096
C 15.95826 2.18319 -0.01527
C 15.92582 0.73133 0.01087
C 14.74083 0.02832 0.00199
C 14.68196 19.62696 -0.00703
C 14.77997 21.13029 0.00654
C 15.8241 22.03809 -0.04422
C 16.13274 23.401 -0.02957
C 12.17415 8.63824 -0.00316
C 12.27937 7.20984 0.02188
C 13.49203 6.42959 -0.01979
C 13.49624 4.97418 0.02691
C 12.33665 4.23305 -0.01581
C 12.22522 2.89139 0.01452
C 13.39981 2.18245 0.04892
C 13.43732 0.74637 -0.00111
C 9.84671 19.86434 0.00244
C 12.16715 0.033 -0.03557
C 15.95855 32.0393 0.01739
C 15.90299 30.61984 0.00755
C 14.70833 29.80634 -0.0054
C 14.7021 28.38849 0.00667
C 15.96527 27.73276 0.00143
C 15.92019 26.28076 -0.017
C 14.73369 25.47723 0.00364
C 14.80405 24.1028 -0.00831
C 14.74361 32.70386 0.03754
C 17.20933 32.6696 0.01511
C 9.88464 21.40492 0.02299
C 11.13197 23.35243 0.01416
C 2.39807 0.10352 -0.00482
C 4.83141 32.697 -0.01384
C 6.10502 31.95725 0.03693
C 6.0456 30.59535 0.01745
C 4.89439 29.83652 0.00488
C 4.79694 28.46386 -0.01004
C 6.0671 27.73043 -0.02896
C 6.09034 26.3226 -0.00131
C 4.8921 25.61409 -0.01118
C 4.93281 24.09049 -0.014
C 6.14722 23.44889 0.02147
C 6.15407 21.97503 0.00373
C 4.93719 21.14554 -0.00191
C 4.94599 19.69998 0.00438
C 6.30692 19.15143 0.01291
C 6.17762 9.38796 0.00093
C 4.79638 8.70209 0.00057
C 3.66586 0.81595 0.02888
C 4.90813 7.19406 -0.01634
C 3.6255 2.2083 0.00685
C 2.32418 4.38832 0.00393
C 3.60763 30.52272 -0.01378
C 2.3803 29.82799 0.02635
C 2.4411 28.50214 0.0127
C 3.65826 27.74031 0.01396
C 3.68167 26.3321 0.01849
C 2.43767 25.57071 -0.01142
C 2.46693 24.15597 -0.00562
C 3.69951 23.34956 -0.00494
C 3.69593 21.94006 0.00054
C 2.41396 21.303 0.03007
C 2.5764 19.88959 -0.00095
C 3.67067 19.05403 0.01572
C 3.54047 9.30133 -0.04848
C 2.38159 8.65749 -0.00892
C 2.35276 7.12385 -0.01362
C 3.62128 6.47117 -0.0008
C 3.63053 5.02274 0.0288
C 2.40941 2.91118 0.00895
C 6.04904 6.47027 -0.00334
C 6.07938 5.11911 0.02339
C 4.86332 4.31525 0.01641
C 7.36867 7.18102 0.02819
C 8.51233 6.36075 0.00165
C 8.52532 4.98495 -0.02971
C 7.25658 4.40477 0.02894
C 7.32088 2.88251 -0.01789
C 8.58949 2.19681 0.00444
C 8.5851 0.70031 -0.00925
C 7.37844 0.02841 0.01877
C 9.81863 32.63905 0.01363
C 11.06083 31.96352 -0.02162
C 11.05733 30.60254 0.00415
C 9.84595 29.84325 -0.0014
C 9.83136 28.44581 0.02162
C 11.04049 27.73951 0.0076
C 11.01902 26.22969 0.01241
C 9.79747 25.46949 -0.01454
C 9.89287 24.06821 0.01945
C 7.2774 8.62721 -0.00891
C 8.51753 9.40298 -0.01046
C 8.54624 10.74455 -0.02689
C 8.58746 17.82895 -0.01536
C 4.90156 2.92204 -0.00719
C 6.13773 2.1344 0.01364
C 6.19443 0.76531 -0.01062
C 4.9072 0.029 -0.00033
C 7.36371 32.71075 0.03589
C 8.61138 31.95996 -0.02759
C 8.59643 30.58686 0.0402
C 7.36894 29.87942 0.00572
C 11.10223 21.98679 0.03542
C 7.3286 28.42128 0.03592
C 8.57032 26.27475 0.00943
C 7.31287 25.59013 0.02841
C 7.38801 24.14604 -0.01111
C 8.66072 23.48617 -0.01275
C 8.65562 22.06619 0.00985
C 7.35316 21.45505 -0.02245
C 7.4011 19.96119 -0.00428
C 8.61426 19.16486 0.03101
C 8.63644 27.68226 0.00406
C 18.40052 31.94779 -0.00478
C 18.38516 30.52783 -0.01662
C 17.13174 29.79263 -0.01185
C 30.65027 2.13913 -0.02142
C 30.61603 0.70681 0.0544
C 29.39362 0.09129 0.00026
C 31.87092 32.7543 0.00682
C 33.12563 31.96991 -0.01779
C 33.1238 30.57359 0.03794
C 31.94036 29.79663 0.01927
C 31.93428 28.40395 0.01574
C 33.18702 27.70524 -0.02383
C 33.11401 26.28798 -0.01429
C 31.96946 25.50909 -0.0136
C 31.95572 24.02376 0.00594
C 33.21314 23.40068 -0.02474
C 33.14083 21.9557 0.00369
C 31.9636 21.20959 0.00455
C 32.16473 19.70308 -0.00644
C 33.39265 18.98787 -0.01839
C 29.49313 2.94616 0.01428
C 33.22315 17.58888 0.00137
C 30.58425 13.6189 -0.01694
C 29.24848 15.86142 0.00346
C 26.94888 0.01125 -0.00669
C 29.42149 32.72122 0.0101
C 30.67619 32.07808 0.01705
C 30.74167 30.588 -0.0405
C 29.52719 29.89995 -0.01303
C 29.52156 28.39807 -0.01461
C 30.7148 27.62569 -0.02155
C 30.77165 26.22421 -0.00944
C 29.52264 25.47843 -0.03735
C 29.43323 24.0873 -0.00971
C 30.66455 23.34706 0.01518
C 30.68029 21.86522 0.01908
C 29.38277 21.14361 0.07705
C 29.58849 19.72031 0.0103
C 30.84948 19.17388 0.02108
C 30.77465 17.755 0.00716
C 29.50043 17.36141 0.00307
C 30.45888 14.96151 0.01713
C 31.95581 16.94145 0.00199
C 31.7152 15.55572 0.04381
C 32.99132 14.86882 0.02806
C 0.08702 19.76429 0.01223
C 1.27789 19.08046 0.00648
C 1.27477 17.67853 0.02114
C 0.15154 16.81087 -0.02957
C 34.20575 15.39985 0.00343
C 34.30937 12.84721 -0.02656
C 0.10674 11.43459 -0.02442
C 1.18702 10.59491 -0.00027
C 1.12068 9.23684 -0.00583
C 34.30771 8.92506 -0.02302
C 34.14454 7.30004 -0.02849
C 1.05038 6.57909 0.02931
C 1.06233 5.10073 0.00628
C 34.21935 4.43789 -0.0345
C 34.3915 2.99509 -0.00931
C 1.1815 2.2386 -0.00939
C 1.17455 0.78604 -0.00468
C 34.39162 21.26407 -0.01678
C 1.21169 22.09132 0.01951
C 1.24742 23.45826 -0.02213
C 34.42521 24.17085 0.02712
C 32.99181 13.35523 0.01504
C 31.69436 12.79847 -0.00069
C 33.66752 10.03816 0.04926
C 33.08784 6.48974 -0.03838
C 32.87624 5.10504 0.00349
C 31.80229 4.2233 -0.00323
C 31.78849 2.80841 -0.00841
C 33.20516 2.22668 0.0001
C 28.17216 0.7413 0.03531
C 33.14989 0.84157 -0.02927
C 34.31511 32.74659 0.01027
C 1.13386 31.97507 0.01831
C 1.19686 30.56989 -0.01037
C 34.33232 29.9174 -0.00439
C 34.41952 28.52285 -0.00598
C 1.23962 27.70822 -0.05239
C 1.17275 26.31051 0.03076
C 34.35819 25.57874 0.00723
C 31.91886 0.06978 -0.01404
C 28.22614 2.29409 0.01836
C 26.88197 2.90524 -0.03039
C 28.1049 15.16672 -0.01415
C 19.69027 28.36269 -0.0276
C 20.91194 27.62713 0.03005
C 20.94176 26.16806 -0.04078
C 19.5707 25.56441 0.02117
C 19.47428 11.39694 0.02737
C 20.81751 10.88285 -0.00498
C 20.87695 9.38154 0.00135
C 19.72157 8.63658 0.03102
C 19.69036 7.23663 0.02555
C 20.90276 6.44866 0.01423
C 20.9391 5.02431 -0.00285
C 19.67776 4.30547 -0.009
C 19.73206 2.86004 -0.01199
C 20.92415 2.19497 -0.00229
C 20.88473 0.74082 -0.00938
C 19.60255 0.02906 -0.0264
C 22.08709 32.55479 -0.01154
C 19.64015 29.80048 0.00768
C 20.87904 30.48635 -0.00178
C 20.84129 31.87432 0.00733
C 19.65969 32.67128 -0.02118
C 17.22266 28.4079 0.01126
C 18.43143 27.69858 0.01852
C 18.39528 26.27404 -0.00381
C 17.14689 25.60623 0.03046
C 17.30075 24.19556 0.0296
C 17.39633 12.66026 0.03374
C 17.18588 11.26355 -0.02845
C 18.39905 10.58106 -0.03213
C 23.32366 31.85608 0.00684
C 18.47178 9.13478 0.02239
C 17.23889 7.1114 0.02734
C 18.47776 6.53328 -0.0055
C 18.50685 5.02756 0.01515
C 17.23607 4.3545 -0.00225
C 17.18142 2.9079 0.00071
C 18.37095 2.18067 -0.01107
C 18.33247 0.7508 -0.01586
C 17.12441 0.01272 -0.01971
C 17.31255 8.47466 0.01153
C 3.63636 32.00381 -0.01303
C 23.25606 30.43939 -0.01052
C 22.09201 28.31162 0.00367
C 24.78957 25.37821 0.01094
C 24.71071 4.17037 0.00235
C 24.52235 2.79541 0.01495
C 25.68221 2.05954 0.01259
C 25.74706 0.59097 0.01799
C 24.47643 33.97131 0.01699
C 26.98829 32.67196 -0.00416
C 28.30615 31.98369 0.01177
C 28.28578 30.60128 0.04266
C 26.9506 29.78489 0.01324
C 27.05199 28.40751 0.0014
C 28.25267 27.74479 0.00924
C 28.2998 26.28352 0.02326
C 27.02407 25.5908 0.00261
C 26.95505 24.14549 0.03265
C 28.11317 23.32888 -0.02049
C 28.21655 21.93344 -0.01854
C 25.85632 26.27891 0.02198
C 25.76233 27.78195 0.02611
C 24.46989 28.35336 -0.00621
C 24.52556 29.79424 0.00194
C 23.37293 27.54159 0.04306
C 23.44414 26.00247 0.00996
C 22.18044 25.49404 0.00195
C 22.21501 11.33169 -0.00802
C 23.21388 10.37736 -0.00218
C 23.36905 9.19733 -0.01654
C 22.16256 8.67781 -0.00037
C 22.13991 7.22063 -0.0032
C 22.06933 29.73972 -0.01679
C 23.36813 6.46933 0.00622
C 22.16873 4.33006 -0.00942
C 22.14976 2.90828 0.00487
C 23.20464 2.14071 0.00826
C 23.30728 0.66386 -0.00294
C 22.06045 34.00471 0.00152
C 24.51734 32.501 0.01257
C 25.8533 31.88791 0.02316
C 25.74265 30.48964 0.04185
C 23.48493 5.11638 -0.02815
C 2.38731 32.68369 0.00848
