302
Graphene
C 34.37418 0.08869 0.01295
C 13.4248 5.07396 0.04892
C 12.18232 4.27503 -0.00111
C 12.2079 2.86001 -0.03557
C 13.42441 2.13328 0.03754
C 13.52991 0.71173 0.01739
C 12.26156 34.05731 0.00755
C 13.41442 6.45918 0.01452
C 14.81648 32.6422 -0.0054
C 16.03229 30.4587 0.00143
C 14.82851 29.75377 -0.017
C 14.81649 28.38146 0.00364
C 16.12774 27.62031 -0.00831
C 16.12889 26.22154 -0.02957
C 14.81622 25.30428 -0.04422
C 16.02209 31.96715 0.00667
C 12.18198 7.12802 -0.01581
C 12.21517 8.48238 0.02691
C 13.3497 9.29207 -0.01979
C 11.03675 4.86937 -0.04147
C 9.73414 4.23255 -0.05302
C 9.76612 2.89301 0.00213
C 11.07675 2.03076 -0.00066
C 11.01304 0.67883 -0.00289
C 9.73975 0.01223 0.00028
C 12.22967 32.70318 -0.02213
C 13.58503 32.01691 0.03698
C 13.57644 30.50956 -0.00109
C 12.34999 29.85932 -0.00491
C 12.38444 28.44933 0.03338
C 13.61838 27.57603 -0.0258
C 13.69609 26.14317 -0.0331
C 12.40126 25.68789 -0.00316
C 13.54504 10.68634 0.02188
C 14.85002 23.89805 0.00654
C 16.18978 23.77349 -0.00703
C 15.2904 13.35878 -0.04076
C 14.6332 11.1992 -0.00652
C 17.6046 23.99698 0.01126
C 17.42594 13.95598 0.01852
C 18.74017 13.42012 -0.00381
C 16.58132 12.71995 0.03046
C 16.98299 11.48309 0.0296
C 18.3202 10.73778 0.03374
C 18.39955 9.22522 -0.02845
C 17.12012 8.48586 -0.03213
C 17.22346 7.07019 0.02239
C 18.4298 6.40471 0.01153
C 18.38513 4.92283 0.02734
C 17.16663 4.26884 -0.0055
C 17.14247 2.88721 0.01515
C 18.32008 2.24729 -0.00225
C 18.39615 0.68804 0.00071
C 17.61976 25.42513 -0.01185
C 10.97463 6.30985 -0.02815
C 18.70248 26.30878 -0.01662
C 17.4049 28.42378 0.01511
C 15.94108 10.52172 0.0058
C 15.83128 9.13346 -0.00865
C 14.58801 8.56603 0.00675
C 14.70512 7.18888 -0.00311
C 15.89189 6.44814 0.00742
C 15.9079 5.01624 -0.01594
C 14.64035 4.31637 0.0106
C 14.62423 2.87718 -0.01154
C 15.87907 2.20651 -0.01721
C 15.98596 0.6935 -0.02422
C 14.76285 34.04369 0.01277
C 17.17499 32.74353 0.00096
C 18.38924 31.93481 -0.01527
C 18.53556 30.51436 0.01087
C 17.29092 29.76226 0.00199
C 18.65885 27.69676 -0.00478
C 9.76531 7.05554 0.03505
C 9.76842 8.3905 0.01443
C 10.92061 9.11803 0.00979
C 2.33547 4.38047 -0.02245
C 2.36146 2.90898 -0.00428
C 3.55868 2.1838 0.03101
C 3.62509 0.75274 -0.01536
C 2.44356 34.07308 -0.02689
C 4.87281 32.63769 -0.01046
C 6.11109 31.99103 -0.00891
C 6.05878 30.56279 0.02819
C 4.85805 29.77485 0.00165
C 4.89062 28.34502 -0.02971
C 6.21198 27.63618 0.02894
C 6.20255 26.20726 -0.01789
C 4.96803 25.48591 0.00444
C 4.76002 24.21768 -0.00925
C 4.92289 11.35564 0.01877
C 3.57026 5.08722 0.00985
C 6.06278 10.77413 0.01363
C 3.69031 6.51701 -0.01275
C 2.45922 8.67224 0.02841
C 3.64501 30.51344 -0.01634
C 2.41794 29.79585 -0.00334
C 2.37837 28.39791 0.02339
C 3.62438 27.66496 0.01641
C 3.70192 26.18812 -0.00719
C 2.43015 25.42411 0.01364
C 2.44729 24.03591 -0.01062
C 3.76058 23.37164 -0.00033
C 1.78425 20.54939 0.03589
C 2.45097 15.57174 -0.02759
C 3.27181 14.08352 0.0402
C 2.30676 12.97922 0.00572
C 2.32803 11.59958 0.03592
C 3.61257 10.85738 0.00406
C 3.69294 9.38124 0.00943
C 2.38909 7.26994 -0.01111
C 17.18055 0.00898 -0.01107
C 6.22018 9.31935 -0.02162
C 4.86452 7.28823 -0.0014
C 8.50117 6.39139 -0.0108
C 8.4893 4.89852 -0.00368
C 7.27775 4.21051 -0.02696
C 7.18075 2.83348 -0.00114
C 8.55689 2.16472 0.00228
C 8.53349 0.75553 0.00798
C 7.24971 0.05116 0.00422
C 9.81529 32.65865 0.0351
C 11.05943 31.96027 -0.03113
C 11.07705 30.57292 0.02098
C 9.83476 29.92219 0.01848
C 9.91932 28.45654 -0.00619
C 11.17508 27.81307 -0.02162
C 11.36298 26.47112 0.00889
C 10.46501 10.67681 -0.00481
C 7.36753 7.21829 -0.01957
C 4.87062 8.69214 0.00415
C 7.42836 8.61929 0.02058
C 8.98502 10.61905 -0.03682
C 6.09594 6.42873 0.02162
C 6.06559 5.02169 0.0076
C 4.7748 4.38378 0.01241
C 4.81526 2.95802 -0.01454
C 6.03004 2.19174 0.01945
C 6.0725 0.78222 0.01416
C 4.90151 0.02088 0.03542
C 7.34494 32.71696 0.02299
C 8.55743 31.98301 0.00244
C 8.5097 30.5887 -0.01717
C 7.32573 29.90233 0.05265
C 7.38888 28.42147 -0.01952
C 8.66067 27.77889 -0.02813
C 8.54275 26.46301 0.00374
C 7.50664 25.60722 0.00052
C 8.58439 9.34452 0.01965
C 19.71481 32.66359 -0.01586
C 20.9521 31.97916 -0.01971
C 20.93902 30.58499 -0.02118
C 33.10741 27.63477 0.01574
C 33.14525 26.15917 -0.02383
C 31.87467 25.56977 -0.01429
C 32.97391 19.21733 -0.0136
C 33.05718 17.808 0.00594
C 31.9194 17.08968 -0.02474
C 31.69979 15.81986 0.00369
C 33.02522 15.10641 0.00455
C 32.96252 13.62992 -0.00644
C 31.68588 12.90958 -0.01839
C 31.83277 11.42332 0.00137
C 33.10978 10.79083 0.00199
C 33.1964 9.36062 0.04381
C 31.9254 8.65815 0.02806
C 31.97966 7.20873 0.01504
C 31.77116 28.35893 0.01927
C 33.1321 6.53833 -0.00069
C 31.8529 29.81631 0.03794
C 33.08082 31.9926 0.00682
C 30.44832 13.66403 -0.00971
C 29.35276 12.83377 0.01518
C 29.37604 11.42419 0.01908
C 30.62722 10.70569 0.07705
C 30.63894 9.37408 0.0103
C 29.42212 8.62964 0.02108
C 29.50278 7.13629 0.00716
C 30.72681 6.4612 0.00307
C 30.68775 5.0433 0.00346
C 29.49229 4.35099 0.01713
C 29.46733 2.84917 -0.01694
C 30.69976 2.20693 0.01428
C 30.6452 0.70928 -0.02142
C 29.44246 0.10443 0.0544
C 31.85848 32.73658 0.00026
C 33.07869 30.52657 -0.01779
C 30.62279 15.01195 -0.03735
C 33.14739 5.02778 0.04926
C 31.94167 2.95478 0.00349
C 34.32223 15.82285 0.02114
C 1.10007 15.09426 -0.02957
C 1.02902 13.6392 0.00343
C 34.35822 12.97007 -0.02656
C 34.31891 11.51246 -0.02442
C 1.13119 10.88604 -0.00027
C 1.21264 9.4306 -0.00583
C 34.40047 8.68759 -0.02302
C 34.3778 7.24437 -0.02849
C 1.20952 6.4659 0.02931
C 1.17095 5.06599 0.00628
C 34.33072 4.33642 -0.0345
C 34.35345 2.84543 -0.00931
C 1.14477 2.14176 -0.00939
C 1.14697 0.78035 -0.00468
C 0.03726 17.27692 0.00648
C 31.96633 4.3455 -0.03838
C 1.19245 17.9487 0.01223
C 34.02569 19.88118 0.01951
C 33.12718 2.16297 -0.00323
C 33.1186 0.76627 -0.00841
C 31.88462 0.06882 0.0001
C 34.33589 32.70935 -0.02927
C 1.15688 31.92121 -0.01404
C 1.21101 30.49347 0.01027
C 34.36191 29.77014 0.01831
C 34.3638 28.37176 -0.01037
C 1.17869 27.63998 -0.00439
C 1.12114 26.17234 -0.00598
C 34.41135 25.35213 -0.05239
C 0.00302 24.00975 0.03076
C 1.29574 23.16021 0.00723
C 1.21203 21.72322 0.02712
C 0.05878 21.17479 -0.02213
C 1.40691 19.16073 -0.01678
C 3.6254 31.89467 0.00057
C 30.71322 26.28701 -0.00944
C 29.31874 28.39181 -0.01461
C 22.15531 29.87249 -0.01154
C 22.17276 28.47362 0.00684
C 21.93003 11.2957 -0.01052
C 23.28324 10.89865 -0.01679
C 23.26473 9.3533 0.00367
C 21.97291 8.61727 0.04306
C 22.06866 7.14376 0.00996
C 23.28792 6.41325 0.00195
C 23.28769 4.97467 -0.00802
C 22.10498 4.21104 -0.00218
C 22.09116 2.80727 -0.01654
C 23.35271 2.15304 -0.00037
C 23.3149 0.77661 -0.0032
C 22.03775 0.01656 0.00622
C 24.55225 32.76235 -0.02815
C 23.35514 30.68456 -0.0264
C 25.76867 32.05846 -0.00942
C 23.34502 32.03398 -0.00938
C 19.60585 34.05996 -0.01199
C 19.80704 29.85332 0.00733
C 19.8517 28.47201 -0.00178
C 21.13167 27.82794 0.00768
C 20.06486 12.81523 -0.0276
C 19.5859 11.34583 0.03005
C 20.74773 10.55629 -0.04078
C 20.8176 9.29716 0.02117
C 19.59651 8.50305 0.02737
C 19.64976 7.05424 -0.00498
C 20.93046 6.33921 0.00135
C 20.91485 4.91285 0.03102
C 19.65328 4.21062 0.02555
C 19.60171 2.8114 0.01423
C 20.85306 2.14163 -0.00285
C 20.84938 0.63529 -0.009
C 22.13645 32.71587 -0.00229
C 30.53337 27.71737 -0.02155
C 25.71291 30.65676 0.00487
C 24.55154 28.56169 -0.00294
C 28.17903 10.68032 0.00924
C 28.15668 9.30484 0.02326
C 26.95706 8.54361 0.00261
C 27.01131 7.07718 0.03265
C 28.28882 6.43531 -0.02049
C 28.24379 5.03534 -0.01854
C 27.02435 4.31494 -0.01415
C 27.01827 2.88697 -0.03039
C 28.22327 2.12612 0.01836
C 28.25785 0.76751 0.03531
C 26.97096 0.12459 -0.00669
C 29.37919 32.72761 0.0101
C 30.62359 32.00338 0.01705
C 30.60527 30.56172 -0.0405
C 29.28879 29.77798 -0.01303
C 27.02263 11.47088 0.0014
C 24.51438 29.92866 0.00826
C 27.93904 27.88501 0.01324
C 26.91953 29.90897 0.01177
C 24.60806 11.35255 0.00152
C 25.83595 10.78088 0.01257
C 25.7852 9.27782 0.02316
C 24.48708 8.56653 0.04185
C 24.50487 7.17488 0.00194
C 25.784 6.42567 -0.00621
C 25.72633 5.00535 0.02611
C 24.52205 4.2838 0.02198
C 24.53956 2.83756 0.01094
C 25.79637 2.17998 0.00235
C 25.79219 0.83986 0.01495
C 24.54101 0.09978 0.01259
C 26.9494 32.80882 0.01799
C 28.16781 32.02915 0.01699
C 28.10195 30.6054 -0.00416
C 26.91334 28.51512 0.04266
C 2.40154 32.61171 0.00093
