327
Graphene
C 0.00933 0.0273 0.01295
C 13.78362 2.29126 0.00213
C 13.51496 0.89037 -0.00066
C 12.3176 0.0209 -0.00289
C 14.66462 32.75435 0.00028
C 15.96187 32.03988 -0.02213
C 16.02421 30.49278 0.03698
C 14.86445 29.82162 -0.00109
C 12.14964 3.25691 -0.05302
C 15.67589 8.46683 -0.00491
C 15.72392 2.36918 -0.0258
C 15.92651 0.92375 -0.0331
C 14.77511 0.10718 -0.00316
C 17.19133 32.75306 0.02188
C 18.37734 32.05412 -0.01979
C 18.58856 30.5542 0.02691
C 17.37077 29.81315 -0.01581
C 14.57708 8.96343 0.03338
C 12.3338 7.1713 -0.04147
C 11.96638 8.47178 -0.02815
C 13.25711 8.46898 0.03505
C 9.90246 12.76423 -0.0108
C 9.89816 11.38564 -0.00368
C 11.05585 10.61253 -0.02696
C 10.81446 9.27149 -0.00114
C 9.66628 8.3642 0.00228
C 9.87965 6.9583 0.00798
C 11.25999 6.23488 0.00422
C 11.25456 4.68767 0.0351
C 9.92686 4.31775 -0.03113
C 9.85472 2.88437 0.02098
C 11.19496 2.24109 0.01848
C 11.17849 0.68788 -0.00619
C 9.92015 0.03434 -0.02162
C 12.31122 32.66064 0.00889
C 13.51227 31.94167 -0.00481
C 13.61542 30.53324 0.00979
C 12.28006 30.04723 0.01443
C 17.38983 28.41588 0.01452
C 9.69292 29.90853 -0.01957
C 18.49971 27.58535 0.04892
C 18.37164 8.81146 -0.03557
C 19.66783 2.80441 0.0106
C 20.85023 2.13163 -0.01154
C 20.82232 0.70345 -0.01721
C 19.59284 0.09687 -0.02422
C 22.15527 32.7415 0.01277
C 23.43695 31.96549 0.00096
C 23.41526 30.55773 -0.01527
C 19.5314 4.24516 -0.01594
C 22.13112 29.95022 0.01087
C 23.3606 27.73911 0.01511
C 23.27909 26.31654 -0.00478
C 22.01923 25.61101 -0.01662
C 23.15881 23.68359 -0.01185
C 23.1989 10.56937 0.01126
C 23.17753 9.13532 0.01852
C 22.03614 8.40354 -0.00381
C 22.13496 28.49781 0.00199
C 20.84775 4.89499 0.00742
C 20.96358 6.3226 -0.00311
C 19.74494 6.85199 0.00675
C 17.10066 8.22337 0.03754
C 17.43733 6.92293 0.01739
C 18.47069 6.08662 0.00755
C 18.27687 4.64089 -0.0054
C 17.18222 3.03502 0.00667
C 18.33952 2.22269 0.00143
C 18.32557 0.77515 -0.017
C 17.14866 0.04779 0.00364
C 19.61419 32.73589 -0.00831
C 20.88469 32.03833 -0.02957
C 20.97291 30.60848 -0.04422
C 19.7878 29.90645 0.00654
C 19.80988 28.51264 -0.00703
C 20.9282 27.73774 -0.04076
C 20.74537 26.28971 -0.00652
C 20.89308 9.18888 0.0058
C 19.71016 8.33245 -0.00865
C 19.28211 26.26615 -0.00111
C 22.16904 6.95245 0.03046
C 11.06203 30.52379 0.02058
C 9.84638 32.72895 -0.03682
C 2.41129 8.50087 0.00438
C 2.35685 7.05138 0.01291
C 3.65128 6.34258 0.00093
C 3.68636 4.92925 0.00057
C 2.40844 4.27611 -0.01634
C 2.51867 2.8122 -0.00334
C 3.7567 2.15569 0.02339
C 3.60538 9.20856 -0.00191
C 3.69529 0.76208 0.01641
C 4.92232 32.6994 0.01364
C 6.14537 32.06287 -0.01062
C 6.10698 30.58014 -0.00033
C 4.95394 29.78297 0.03589
C 4.97422 28.38056 -0.02759
C 6.26547 27.73942 0.0402
C 6.10982 26.34102 0.00572
C 2.489 34.07922 -0.00719
C 3.62582 10.63988 0.00373
C 2.3802 11.31546 0.02147
C 2.38604 12.7474 -0.014
C 3.70217 30.58032 -0.00892
C 2.48727 29.88515 -0.01362
C 2.51032 28.44421 -0.0008
C 3.6916 27.68446 0.0288
C 3.69937 26.23323 0.00393
C 2.50718 25.54115 0.00895
C 2.42985 24.08221 0.00685
C 3.68377 23.26098 0.02888
C 3.60428 21.6997 -0.00482
C 2.25442 21.33046 -0.01384
C 2.34105 19.91203 0.03693
C 3.68778 19.49279 0.01745
C 3.80338 17.92942 0.00488
C 2.54599 17.13837 -0.01004
C 2.53346 15.64583 -0.02896
C 3.6269 14.90598 -0.00131
C 3.60356 13.49177 -0.01118
C 4.96321 25.54248 0.03592
C 11.0413 32.05376 0.01965
C 4.77724 24.06354 0.00406
C 4.93852 17.13897 0.02841
C 7.27555 15.53159 -0.0014
C 8.60851 15.01773 0.02162
C 8.63116 13.54163 0.0076
C 7.38426 12.73912 0.01241
C 7.42804 11.40363 -0.01454
C 8.61291 10.57747 0.01945
C 8.56372 9.14477 0.01416
C 7.50788 28.48748 0.00415
C 7.24286 8.52088 0.03542
C 8.59555 6.39128 0.00244
C 8.57906 4.97264 -0.01717
C 7.34903 4.29568 0.05265
C 7.3872 2.92008 -0.01952
C 8.63653 2.15188 -0.02813
C 8.66537 0.75188 0.00374
C 7.43348 0.05318 0.00052
C 7.31697 7.09999 0.02299
C 7.35538 29.88589 -0.02162
C 8.54924 30.61232 0.01363
C 8.63207 32.03677 0.01877
C 4.93886 15.7437 -0.01111
C 6.04701 14.94833 -0.01275
C 6.13761 13.47401 0.00985
C 4.85608 12.71521 -0.02245
C 4.93946 11.34742 -0.00428
C 6.17272 10.72029 0.03101
C 6.07547 9.33011 -0.01536
C 4.85267 8.5745 -0.02689
C 4.84935 7.08195 -0.01046
C 6.11661 6.35921 -0.00891
C 6.1429 4.93498 0.02819
C 4.90699 4.25626 0.00165
C 4.95533 2.78456 -0.02971
C 6.18569 2.16534 0.02894
C 6.15357 0.71329 -0.01789
C 4.93993 0.05484 0.00444
C 7.46483 32.76062 -0.00925
C 4.40337 20.79485 0.00943
C 3.73482 31.97076 -0.04848
C 23.39405 6.29848 0.0296
C 22.05436 4.22692 -0.02845
C 33.08379 26.35667 0.00682
C 31.85852 25.67343 -0.01779
C 31.88735 24.18098 0.03794
C 33.16334 23.42885 0.01927
C 33.102 22.02918 0.01574
C 31.83758 21.3444 -0.02383
C 31.92367 19.90341 -0.01429
C 33.20758 27.75499 0.00026
C 33.19777 19.24644 -0.0136
C 31.94512 17.03493 -0.02474
C 31.97369 15.58551 0.00369
C 33.24794 14.89671 0.00455
C 33.17671 13.45021 -0.00644
C 31.9373 12.7183 -0.01839
C 31.88158 11.31088 0.00137
C 33.10067 10.65885 0.00199
C 33.19384 17.76302 0.00594
C 31.9838 28.46175 0.0544
C 31.9713 29.90742 -0.02142
C 33.18644 30.57628 0.01428
C 30.68324 14.88785 -0.0405
C 30.61302 13.3875 -0.01303
C 29.42613 12.69246 -0.01461
C 29.38802 11.31536 -0.02155
C 30.66306 10.60534 -0.00944
C 30.69873 9.17723 -0.03735
C 29.46358 8.52982 -0.00971
C 29.44432 7.14277 0.01518
C 30.63665 6.31786 0.01908
C 30.69173 4.93555 0.07705
C 29.42483 4.2139 0.0103
C 29.46949 2.79253 0.02108
C 30.76504 2.11935 0.00716
C 30.70711 0.68386 0.00307
C 29.47349 0.02218 0.00346
C 31.95061 32.68598 0.01713
C 33.15488 32.03415 -0.01694
C 33.10211 9.20164 0.04381
C 29.54084 15.60098 0.01705
C 31.8848 8.3958 0.02806
C 33.08288 6.33068 -0.00069
C 34.43104 17.09498 0.00648
C 0.01879 15.63346 0.02114
C 1.28637 14.94662 -0.02957
C 1.24494 13.52839 0.00343
C 0.05032 12.78953 -0.02656
C 34.34606 11.295 -0.02442
C 1.12047 10.60915 -0.00027
C 1.21319 17.85516 0.01223
C 1.14647 9.20844 -0.00583
C 34.26361 7.10711 -0.02849
C 1.08022 6.38963 0.02931
C 1.13043 4.96263 0.00628
C 34.36927 4.22074 -0.0345
C 34.4102 2.83467 -0.00931
C 1.28775 2.05835 -0.00939
C 1.22344 0.73712 -0.00468
C 34.37621 8.50903 -0.02302
C 1.19358 19.17936 -0.01678
C 0.04288 19.90981 0.01951
C 34.35093 21.28257 -0.02213
C 33.18829 4.96383 0.04926
C 31.95728 4.28113 -0.03838
C 31.9504 2.86991 0.00349
C 33.19184 2.13388 -0.00323
C 33.14711 0.79594 -0.00841
C 31.97677 0.07289 0.0001
C 34.39907 32.66825 -0.02927
C 1.24584 31.98942 -0.01404
C 1.288 30.57193 0.01027
C 0.01148 29.91799 0.01831
C 0.00118 28.49825 -0.01037
C 1.21293 27.81316 -0.00439
C 1.20612 26.26176 -0.00598
C 34.3412 25.60439 -0.05239
C 34.28267 24.18435 0.03076
C 1.13031 23.5271 0.00723
C 1.08398 22.08228 0.02712
C 31.91273 7.02413 0.01504
C 23.26048 4.95048 0.03374
C 29.49784 16.98494 0.0101
C 30.68128 19.15034 0.03531
C 24.28294 11.33641 0.00135
C 25.63656 10.71199 0.03102
C 25.7273 9.2057 0.02555
C 24.53034 8.51097 0.01423
C 24.56455 7.0248 -0.00285
C 25.79998 6.34901 -0.009
C 25.73932 4.93033 -0.01199
C 24.46019 12.71373 -0.00498
C 24.52782 4.23429 -0.00229
C 25.84272 2.17011 -0.0264
C 25.86779 0.6477 -0.01154
C 24.57607 0.03931 0.00684
C 27.04794 32.66835 -0.01052
C 28.2616 31.97773 -0.01679
C 28.24296 30.5856 0.00367
C 27.05993 29.86558 0.04306
C 24.54509 2.81499 -0.00938
C 25.5988 13.5251 0.02737
C 25.69528 14.90353 0.02117
C 25.89334 17.70796 -0.04078
C 22.1022 2.80915 -0.03213
C 23.26716 2.08443 0.02239
C 23.2812 0.74244 0.01153
C 22.11393 0.0254 0.02734
C 24.68227 32.6684 -0.0055
C 25.85996 31.9691 0.01515
C 25.84205 30.53656 -0.00225
C 24.62146 29.81804 0.00071
C 24.61973 28.43042 -0.01107
C 25.81184 27.70187 -0.01586
C 25.77142 26.29161 -0.01971
C 24.53251 25.61524 -0.02118
C 24.41486 24.15275 0.00733
C 25.67662 23.48236 -0.00178
C 25.66164 21.94798 0.00768
C 24.46685 21.21968 -0.0276
C 25.75491 19.03174 0.03005
C 26.98972 28.42453 0.00996
C 30.74613 17.70792 -0.00669
C 28.29392 27.73266 0.00195
C 26.9865 25.56611 -0.00218
C 28.22055 2.13014 0.01799
C 28.27053 0.69221 0.01699
C 27.07939 0.0218 -0.00416
C 29.55165 32.68267 0.01177
C 30.76187 32.01726 0.04266
C 30.72953 30.62733 0.01324
C 29.48437 29.91679 0.0014
C 27.07005 2.90705 0.01259
C 29.47955 28.48981 0.00924
C 30.59907 26.30574 0.00261
C 29.42615 25.55002 0.03265
C 29.41887 24.13047 -0.02049
C 30.70347 23.408 -0.01854
C 30.66955 22.0076 -0.01415
C 29.38534 21.30574 -0.03039
C 29.48771 19.89553 0.01836
C 30.64953 27.79838 0.02326
C 27.00267 4.28513 0.01495
C 28.27083 4.95322 0.00235
C 28.25309 6.36148 0.01094
C 26.96373 24.1244 -0.01654
C 28.19494 23.41346 -0.00037
C 28.16311 21.96885 -0.0032
C 26.95593 21.28604 0.00622
C 26.9228 19.86073 -0.02815
C 28.2587 19.14981 -0.00942
C 28.26104 17.71267 0.00487
C 27.01776 17.02755 0.00826
C 26.99614 15.55693 -0.00294
C 28.24628 14.9106 0.00152
C 28.11229 13.45082 0.01257
C 26.8984 12.80846 0.02316
C 26.85483 11.41185 0.04185
C 28.1074 10.67573 0.00194
C 28.19102 9.28718 -0.00621
C 26.96692 8.47314 0.02611
C 27.05723 7.01379 0.02198
C 28.22519 26.243 -0.00802
C 2.53246 32.70908 0.01572
