367
Graphene
C 0.01679 0.05021 0.01295
C 14.78486 29.79459 -0.02813
C 14.68661 28.4494 0.00374
C 15.98433 27.73942 0.00052
C 16.01158 26.27462 -0.03682
C 14.83166 25.60276 0.01965
C 14.75795 24.19364 0.02058
C 15.93423 23.37761 -0.01957
C 15.92949 21.94822 -0.0108
C 14.70786 21.17758 -0.00368
C 14.77168 19.81636 -0.02696
C 16.05413 19.17647 -0.00114
C 16.02031 17.68911 0.00228
C 14.75777 17.08024 0.00798
C 16.15047 6.42629 0.00422
C 15.83355 5.09913 0.0351
C 14.75911 4.16538 -0.03113
C 14.74179 2.74415 0.02098
C 15.94046 2.04564 0.01848
C 16.03498 0.61308 -0.00619
C 15.95565 30.49685 -0.01952
C 14.76586 0.02257 -0.02162
C 15.9769 31.88832 0.05265
C 12.27028 0.05026 0.00244
C 12.19057 32.73112 0.00165
C 13.54201 32.00529 -0.02971
C 13.57658 30.58041 0.02894
C 12.35173 29.83483 -0.01789
C 12.28571 28.40686 0.00444
C 13.50051 27.71247 -0.00925
C 13.57264 26.27985 0.01877
C 12.32786 25.60291 0.01363
C 12.29801 24.26034 -0.02162
C 13.51649 23.46945 0.00415
C 13.49976 22.05525 -0.0014
C 12.31825 21.24321 0.02162
C 12.30365 19.8418 0.0076
C 13.5515 19.1303 0.01241
C 13.78133 17.70467 -0.01454
C 12.25953 4.2014 0.01945
C 12.30944 2.89739 0.01416
C 13.53654 2.06238 0.03542
C 13.44319 0.71123 0.02299
C 14.79545 32.66216 -0.01717
C 9.94271 0.03183 0.02819
C 17.20285 32.64101 0.00889
C 18.44339 30.57271 0.00979
C 18.37642 2.21566 -0.00111
C 18.44705 0.75358 -0.03557
C 17.21199 34.01004 0.03754
C 19.64882 32.6197 0.01739
C 20.94452 31.97373 0.00755
C 20.88644 30.50565 -0.0054
C 19.64493 29.8307 0.00667
C 19.6513 28.44361 0.00143
C 20.92737 27.72502 -0.017
C 20.98267 26.31095 0.00364
C 19.70787 25.5531 -0.00831
C 19.69443 24.1417 -0.02957
C 20.91335 23.39732 -0.04422
C 20.89985 21.94332 0.00654
C 19.64247 21.29327 -0.00703
C 19.67654 19.84351 -0.04076
C 20.91378 19.09057 -0.00652
C 20.91268 17.71693 0.0058
C 19.64863 17.06913 -0.00865
C 17.12148 2.86002 0.04892
C 18.40986 31.95701 -0.00481
C 17.12189 4.30519 0.01452
C 18.43549 6.43482 0.02691
C 17.18032 29.80373 0.01443
C 17.24522 28.38083 0.03505
C 18.48261 27.70034 -0.02815
C 18.48314 26.2792 -0.04147
C 17.26731 25.59455 -0.05302
C 17.25489 24.17408 0.00213
C 18.45768 23.44485 -0.00066
C 18.43596 21.95758 -0.00289
C 17.16123 21.26788 0.00028
C 17.23821 19.87961 -0.02213
C 18.49864 19.15973 0.03698
C 18.40893 17.76567 -0.00109
C 17.17494 17.01522 -0.00491
C 17.15602 15.63981 0.03338
C 18.35365 14.8581 -0.0258
C 18.40762 13.46792 -0.0331
C 18.41769 10.57659 -0.00316
C 18.48888 9.31872 0.02188
C 17.11777 7.02506 -0.01979
C 18.39562 4.89496 -0.01581
C 19.61181 15.61031 0.00675
C 11.09668 0.75327 -0.00891
C 9.8072 2.88001 -0.02689
C 3.75613 6.38908 0.00873
C 3.73907 4.99354 -0.00049
C 2.47184 4.32184 0.00848
C 2.47538 2.83741 -0.01303
C 3.69819 2.13496 -0.01378
C 3.65061 0.76461 0.02635
C 2.47265 0.0552 0.0127
C 4.9048 32.63096 0.01396
C 6.13406 31.9733 0.01849
C 6.10036 30.56065 -0.01142
C 4.90543 29.8243 -0.00562
C 4.93748 28.41568 -0.00494
C 6.14881 27.71948 0.00054
C 6.1891 26.23141 0.03007
C 4.90831 25.59646 -0.00095
C 4.9384 24.1634 0.01572
C 6.12402 23.46924 -0.04848
C 6.06961 22.09638 -0.00892
C 4.9202 21.35112 -0.01362
C 2.45044 7.09382 0.01227
C 4.89838 19.87813 -0.0008
C 2.42541 8.55476 -0.03337
C 3.74166 10.51289 -0.02929
C 3.71643 30.568 0.01465
C 2.47067 29.79872 -0.00074
C 2.55396 28.37422 -0.00518
C 3.71332 27.64454 0.0086
C 3.64267 26.26947 -0.00643
C 2.40734 25.64894 0.017
C 2.46976 24.18658 -0.03113
C 3.70911 23.42862 -0.02566
C 3.66117 22.02421 -0.00094
C 2.49189 21.28315 0.02322
C 2.43995 19.84535 -0.00725
C 3.73701 19.12093 -0.05697
C 3.60513 17.71549 0.01087
C 2.40866 17.1126 -0.01343
C 2.37571 15.69982 0.00988
C 3.68244 14.93249 0.0276
C 3.69112 13.56228 0.01305
C 2.50117 12.73101 -0.00077
C 2.56929 11.36112 0.03368
C 3.69914 9.31531 -0.00966
C 11.04545 2.16837 -0.01046
C 6.13859 19.17431 0.0288
C 4.90712 16.96218 0.00895
C 7.38594 2.85517 -0.00719
C 8.62868 2.10216 0.01364
C 8.63698 0.67744 -0.01062
C 7.36967 0.08724 -0.00033
C 9.83647 32.7313 0.03589
C 11.00719 31.97624 -0.02759
C 11.13379 30.53324 0.0402
C 9.93582 29.85583 0.00572
C 9.86975 28.43294 0.03592
C 11.00581 27.57669 0.00406
C 11.03859 26.22045 0.00943
C 9.75889 25.56517 0.02841
C 9.75718 24.10819 -0.01111
C 11.05988 23.43186 -0.01275
C 11.06591 22.04131 0.00985
C 9.82841 21.34326 -0.02245
C 9.88102 19.75689 -0.00428
C 11.07826 19.24678 0.03101
C 9.78247 4.26285 -0.01536
C 7.38007 4.32988 0.01641
C 6.10104 17.77601 0.00393
C 8.59688 19.2076 0.02339
C 7.40301 21.34469 -0.01634
C 4.85124 15.62843 0.00685
C 4.87217 7.1656 0.02888
C 6.28389 4.91009 -0.00482
C 4.97572 4.34304 -0.01384
C 4.91911 2.89406 0.03693
C 6.18533 2.23482 0.01745
C 6.08447 0.80652 0.00488
C 4.90228 0.03352 -0.01004
C 7.37714 32.71206 -0.02896
C 8.52803 31.96528 -0.00131
C 8.6154 30.5932 -0.01118
C 7.40781 29.82341 -0.014
C 7.38148 28.40534 0.02147
C 8.58045 27.77805 0.00373
C 8.57876 26.35564 -0.00191
C 7.3823 25.57237 0.00438
C 7.31534 24.1398 0.01291
C 8.49823 23.45713 0.00093
C 8.60307 22.01479 0.00057
C 7.41331 19.86883 -0.00334
C 3.65359 31.99826 -0.03996
C 20.8556 14.92335 -0.00311
C 19.69274 12.8621 -0.01594
C 30.7195 0.67809 0.00307
C 29.51689 34.06897 0.00346
C 31.91443 32.64809 0.01713
C 33.18668 31.97518 -0.01694
C 33.14196 30.57789 0.01428
C 31.89555 29.80675 -0.02142
C 31.89977 28.38903 0.0544
C 33.1721 27.66152 0.00026
C 33.19168 26.31214 0.00682
C 31.92628 25.58068 -0.01779
C 31.99624 24.1606 0.03794
C 33.22359 23.41066 0.01927
C 33.20195 21.99958 0.01574
C 31.96219 21.33308 -0.02383
C 32.02558 19.90719 -0.01429
C 33.21672 19.19652 -0.0136
C 33.19099 17.73965 0.00594
C 31.95514 17.03448 -0.02474
C 31.97507 15.61247 0.00369
C 30.68884 2.21731 0.00716
C 33.25067 14.90069 0.00455
C 29.43077 2.72932 0.02108
C 30.83633 6.19037 0.07705
C 29.50498 28.41957 0.03265
C 30.7291 27.74047 -0.02049
C 30.73082 26.25714 -0.01854
C 29.50755 25.55355 -0.01415
C 29.49395 24.12939 -0.03039
C 30.74283 23.48439 0.01836
C 30.80485 22.05299 0.03531
C 29.5499 21.21175 -0.00669
C 29.57398 19.7999 0.0101
C 30.80106 19.19965 0.01705
C 30.72588 17.78296 -0.0405
C 29.52722 17.00597 -0.01303
C 29.46738 15.60864 -0.01461
C 30.79019 14.8358 -0.02155
C 30.69378 13.44253 -0.00944
C 29.43549 12.78749 -0.03735
C 29.46387 11.3474 -0.00971
C 30.6833 10.67144 0.01518
C 30.74151 9.26212 0.01908
C 30.74735 4.97146 0.0103
C 29.57625 29.79601 0.00261
C 33.18006 13.51878 -0.00644
C 32.00386 11.36028 0.00137
C 0.02051 19.78721 0.01951
C 1.23031 19.13271 -0.01678
C 1.23008 17.74133 0.01223
C 34.38385 17.0295 0.00648
C 0.02203 15.59383 0.02114
C 1.22904 14.937 -0.02957
C 1.22768 13.49738 0.00343
C 0.01263 12.8687 -0.02656
C 34.40753 11.36821 -0.02442
C 1.27624 10.72595 -0.00027
C 1.16779 9.30645 -0.00583
C 34.40384 8.52846 -0.02302
C 34.4235 7.09785 -0.02849
C 1.2743 6.43725 0.02931
C 1.23751 4.96073 0.00628
C 34.39565 4.23703 -0.0345
C 34.42769 2.83641 -0.00931
C 1.25404 2.1693 -0.00939
C 1.26732 0.81061 -0.00468
C 34.39236 21.19142 -0.02213
C 31.95905 12.72727 -0.01839
C 1.20733 21.98575 0.02712
C 0.06101 24.16726 0.03076
C 33.14137 10.60436 0.00199
C 33.12937 9.21338 0.04381
C 31.89854 8.50101 0.02806
C 31.91788 7.07223 0.01504
C 33.17828 6.3554 -0.00069
C 33.20065 5.01681 0.04926
C 31.964 4.32219 -0.03838
C 31.98115 2.82711 0.00349
C 33.19197 2.10304 -0.00323
C 33.15085 0.67292 -0.00841
C 31.8974 34.05249 0.0001
C 0.02928 32.69731 -0.02927
C 1.27612 31.89263 -0.01404
C 1.22702 30.51379 0.01027
C 34.38423 29.89201 0.01831
C 34.42571 28.43548 -0.01037
C 1.23769 27.79873 -0.00439
C 1.15255 26.33156 -0.00598
C 34.3888 25.5632 -0.05239
C 1.25911 23.47426 0.00723
C 20.91038 13.50476 0.00742
C 30.72775 30.52186 0.02326
C 29.47617 32.58934 0.0014
C 22.11781 21.30506 0.02734
C 22.10478 19.90076 -0.0055
C 23.31434 19.23828 0.01515
C 23.37532 17.70869 -0.00225
C 22.14533 16.96635 0.00071
C 22.05609 15.61628 -0.01107
C 23.31762 14.93157 -0.01586
C 23.37999 13.47572 -0.01971
C 22.08411 12.72036 -0.02118
C 22.08535 11.29755 0.00733
C 23.43476 10.70672 -0.00178
C 22.06347 8.41855 0.00768
C 22.02497 4.29524 -0.0276
C 22.21513 2.84288 0.03005
C 23.35202 2.08441 -0.04078
C 23.41731 0.72473 0.02117
C 22.12824 34.04531 0.02737
C 24.6091 32.57222 -0.00498
C 25.84921 31.91632 0.00135
C 23.29275 22.01625 0.01153
C 25.8435 30.52527 0.03102
C 23.39146 23.38553 0.02239
C 22.1564 25.59896 -0.02845
C 19.55449 11.38103 0.0106
C 20.79332 10.59313 -0.01154
C 20.90608 9.13023 -0.01721
C 19.59201 8.51345 -0.02422
C 19.73973 7.07443 0.01277
C 20.89931 6.41778 0.00096
C 20.80856 4.97196 -0.01527
C 19.56565 4.18369 0.01087
C 19.69271 2.8084 0.00199
C 20.92624 2.07742 0.01511
C 20.94225 0.64473 -0.00478
C 19.71751 34.01479 -0.01662
C 22.19435 32.64204 -0.01185
C 23.36162 31.92025 0.01126
C 23.387 30.44123 0.01852
C 22.08708 29.7708 -0.00381
C 22.14012 28.39402 0.03046
C 23.43305 27.6066 0.0296
C 23.50304 26.21457 0.03374
C 22.11058 24.11689 -0.03213
C 30.71171 31.91522 0.00924
C 24.64113 29.8062 0.02555
C 25.81133 27.63895 -0.00285
C 28.32072 26.27944 -0.00294
C 27.04591 25.56761 0.00152
C 27.07614 24.14482 0.01257
C 28.37037 23.4274 0.02316
C 28.38124 22.00925 0.04185
C 27.10202 21.3559 0.00194
C 27.05756 19.9088 -0.00621
C 28.30968 19.09089 0.02611
C 28.30203 17.73794 0.02198
C 27.07788 17.07602 0.01094
C 27.00915 15.68857 0.00235
C 28.2242 14.9461 0.01495
C 28.25424 13.51843 0.01259
C 26.98963 12.7935 0.01799
C 27.12444 11.31588 0.01699
C 28.21438 10.73842 -0.00416
C 28.33424 2.26468 0.01177
C 28.28218 0.70943 0.04266
C 27.06405 0.08905 0.01324
C 28.3062 27.7008 0.00826
C 24.66426 28.3405 0.01423
C 26.99311 28.35371 0.00487
C 28.32337 30.51168 -0.02815
C 25.87686 26.24475 -0.009
C 24.72142 25.59223 -0.01199
C 24.62107 24.17674 -0.00229
C 25.80904 23.42259 -0.00938
C 25.85025 22.01223 -0.0264
C 24.48346 21.31393 -0.01154
C 24.51034 19.9123 0.00684
C 25.75953 19.1881 -0.01052
C 25.7873 17.74158 -0.01679
C 24.62154 16.98686 0.00367
C 24.48857 15.57805 0.04306
C 25.80117 14.92875 0.00996
C 25.77177 13.52972 0.00195
C 24.5557 12.75532 -0.00802
C 24.45072 11.34719 -0.00218
C 25.80726 0.70609 -0.01654
C 24.61647 0.00127 -0.00037
C 27.0316 32.66888 -0.0032
C 28.29574 31.8623 0.00622
C 27.07048 29.79177 -0.00942
C 2.43132 32.67119 0.01996
