438
Graphene
C 0.01659 0.02603 0.01295
C 12.3587 21.2909 -0.00334
C 12.26578 19.94882 0.02339
C 13.53349 19.21887 0.01641
C 13.57362 17.74494 -0.00719
C 12.34613 17.1033 0.01364
C 12.32928 15.67611 -0.01062
C 13.47371 14.88501 -0.00033
C 13.47628 13.47199 0.03589
C 12.26116 12.67435 -0.02759
C 12.29882 11.33909 0.0402
C 13.5663 10.67341 0.00572
C 13.54424 9.21441 0.03592
C 12.3198 8.51521 0.00406
C 12.3258 7.07739 0.00943
C 13.49875 6.47007 0.02841
C 13.52789 4.94547 -0.01111
C 12.29894 4.21727 -0.01275
C 12.248 2.81245 0.00985
C 13.57057 2.07428 -0.02245
C 13.47102 0.70317 -0.00428
C 12.2619 0.04359 0.03101
C 14.75534 32.61155 -0.01536
C 15.95514 31.9945 -0.02689
C 13.46727 22.07399 -0.01634
C 16.02927 30.58249 -0.01046
C 13.55635 23.45282 0.00057
C 12.30239 25.59049 0.01291
C 9.82833 15.62271 -0.04848
C 11.06516 14.92442 -0.00892
C 11.06443 13.48491 -0.01362
C 9.8423 12.82606 -0.0008
C 9.85781 11.44546 0.0288
C 11.05344 10.67905 0.00393
C 11.05634 9.30177 0.00895
C 9.8567 8.47716 0.00685
C 9.85641 7.07754 0.02888
C 11.09134 6.40553 -0.00482
C 11.12501 4.94497 -0.01384
C 9.81873 4.20579 0.03693
C 9.82274 2.85624 0.01745
C 11.06783 2.10098 0.00488
C 10.98263 0.70975 -0.01004
C 9.83579 0.01386 -0.02896
C 12.37954 32.68316 -0.00131
C 13.53971 31.95294 -0.01118
C 13.54249 30.53748 -0.014
C 12.2529 29.90692 0.02147
C 12.2893 28.43679 0.00373
C 13.51687 27.65308 -0.00191
C 13.54538 26.24241 0.00438
C 12.3239 24.19448 0.00093
C 14.7913 29.79512 -0.00891
C 14.73831 28.41107 0.02819
C 15.98022 27.72561 0.00165
C 18.45071 30.51047 -0.01957
C 17.26706 29.88241 -0.0108
C 17.23263 28.37293 -0.00368
C 18.46883 27.66968 -0.02696
C 18.45766 26.25248 -0.00114
C 17.24368 25.53375 0.00228
C 17.1551 24.14095 0.00798
C 18.40274 23.4279 0.00422
C 18.45989 21.95193 0.0351
C 17.22652 21.25598 -0.03113
C 17.19946 19.89163 0.02098
C 18.4104 19.16104 0.01848
C 18.42592 17.7589 -0.00619
C 17.14499 17.09956 -0.02162
C 17.19634 15.67007 0.00889
C 18.40972 14.93315 -0.00481
C 18.46571 13.46137 0.00979
C 17.23583 12.78367 0.01443
C 17.21518 11.37196 0.03505
C 18.44837 10.68699 -0.02815
C 18.49674 9.26529 -0.04147
C 17.21835 8.54926 -0.05302
C 17.21606 7.061 0.00213
C 18.42033 31.90801 0.02058
C 17.21007 32.6485 0.01965
C 14.79678 0.02709 -0.03682
C 15.95543 0.70846 0.00052
C 15.96109 26.29541 -0.02971
C 14.72492 25.57419 0.02894
C 14.74643 24.14101 -0.01789
C 15.92308 23.42977 0.00444
C 15.97879 22.02746 -0.00925
C 14.79278 21.28832 0.01877
C 14.75235 19.86893 0.01363
C 15.97756 19.10336 -0.02162
C 15.93387 17.73702 0.00415
C 14.77094 17.01681 -0.0014
C 14.72573 15.5991 0.02162
C 9.83946 17.03295 0.01572
C 16.03081 14.90669 0.0076
C 14.72792 12.81411 -0.01454
C 14.76728 11.33382 0.01945
C 15.95229 10.67975 0.01416
C 15.97059 9.25191 0.03542
C 14.78818 8.55539 0.02299
C 14.77625 7.0455 0.00244
C 15.9741 6.3963 -0.01717
C 15.97073 4.9754 0.05265
C 14.71552 4.24054 -0.01952
C 14.74798 2.83386 -0.02813
C 15.98728 2.17104 0.00374
C 16.00445 13.44044 0.01241
C 11.07805 17.76778 -0.00095
C 11.08717 19.17529 0.03007
C 9.85446 19.87245 0.00054
C 3.6399 0.77288 0.00828
C 2.47278 0.05316 -0.02375
C 4.92879 32.63348 0.00558
C 6.13216 31.94863 -0.0059
C 6.12572 30.54914 -0.01386
C 4.9456 29.76601 -0.02805
C 4.97434 28.41494 0.00081
C 6.13415 27.67128 0.00245
C 6.22204 26.24363 0.02728
C 4.9168 25.54785 -0.00039
C 4.84251 24.11207 0.0064
C 6.12573 23.50012 0.00211
C 6.16713 22.00228 -0.00449
C 4.9641 21.26482 -0.01979
C 4.88484 19.89151 0.02784
C 6.17542 19.1584 -0.01977
C 6.13068 17.70728 -0.00561
C 4.96744 17.02531 0.00208
C 4.8469 15.5883 0.01707
C 6.14111 15.00336 0.02769
C 6.14023 13.52129 -0.03291
C 4.92334 12.78521 -0.04999
C 4.9615 11.38353 0.04505
C 3.69145 2.07246 0.00088
C 2.49633 2.86 0.04421
C 2.48292 4.28902 -0.00177
C 3.70646 4.99582 0.03278
C 3.66468 30.52551 -0.00018
C 2.41545 29.75722 0.01073
C 2.44893 28.35988 0.01984
C 3.74092 27.69196 0.00535
C 3.70688 26.24909 -0.00198
C 2.46971 25.61359 -0.00012
C 2.46621 24.19131 -0.04306
C 3.63722 23.41456 -0.03672
C 3.74245 21.99957 0.01913
C 2.51305 21.31103 0.00267
C 2.48068 19.94332 0.00787
C 6.10471 10.54084 0.03284
C 3.65963 19.15802 0.02426
C 2.42102 17.04324 -0.01471
C 2.40326 15.5673 -0.02827
C 3.69065 14.89982 0.01078
C 3.68455 13.50245 -0.00112
C 2.45484 12.78228 0.03345
C 2.49455 11.2805 0.00748
C 3.68438 10.65445 0.00662
C 3.66177 9.24413 -0.0154
C 2.4741 8.52537 -0.01299
C 2.46896 7.07493 -0.00407
C 3.72339 6.38134 0.01138
C 3.73451 17.78923 0.01218
C 18.43233 6.38979 -0.00066
C 6.09446 9.24209 -0.04307
C 4.95572 7.08507 0.00031
C 8.62045 10.71311 0.01087
C 8.60955 9.25699 -0.01343
C 7.39563 8.57589 0.00988
C 7.31789 7.19607 0.0276
C 8.5766 6.44277 0.01305
C 8.61487 5.00154 -0.00077
C 7.31913 4.27446 0.03368
C 7.40438 2.86413 -0.02929
C 8.62632 2.11993 -0.00966
C 8.60597 0.69605 -0.03337
C 7.35179 0.03904 0.01227
C 9.84862 32.72797 0.00873
C 11.09747 31.96274 -0.00049
C 11.00897 30.53177 0.00848
C 9.80959 29.8587 -0.01303
C 9.84538 28.39533 -0.01378
C 11.09913 27.68221 0.02635
C 11.02411 26.32537 0.0127
C 9.80665 25.58591 0.01396
C 9.89831 24.21025 0.01849
C 11.10997 23.39519 -0.01142
C 11.05658 22.01169 -0.00562
C 9.79279 21.27033 -0.00494
C 7.37974 11.35673 -0.05697
C 7.36141 12.7886 -0.00725
C 8.52074 13.47998 0.02322
C 8.55487 14.90663 -0.00094
C 6.12033 6.36158 -0.003
C 6.14053 5.0268 0.01402
C 4.87612 4.27327 0.02379
C 4.93332 2.89526 0.00907
C 6.14955 2.11275 0.00643
C 6.12227 0.71193 -0.01509
C 4.9136 0.01221 0.03267
C 7.42894 32.67444 0.02374
C 8.66494 32.00148 0.00402
C 8.60307 30.52453 0.0073
C 7.36741 29.82854 0.0174
C 4.88306 8.50119 0.03189
C 7.31509 28.44268 0.03828
C 8.61846 26.28701 -0.00279
C 7.39773 25.525 0.01996
C 7.42962 24.11409 -0.03996
C 8.61756 23.45654 0.01465
C 8.6058 22.03494 -0.00074
C 7.40904 21.30793 -0.00518
C 7.38479 19.87732 0.0086
C 8.60238 19.16081 -0.00643
C 8.58389 17.79371 0.017
C 7.43157 17.07537 -0.03113
C 7.3899 15.56939 -0.02566
C 8.64668 27.66317 0.01226
C 18.47408 4.99045 -0.00289
C 17.23915 4.29214 0.00028
C 17.23754 2.79723 -0.02213
C 30.72112 14.92578 -0.0405
C 30.78717 13.45297 -0.01303
C 29.46965 12.75143 -0.01461
C 29.4953 11.38256 -0.02155
C 30.72224 10.62071 -0.00944
C 30.70623 9.26648 -0.03735
C 29.49334 8.52728 -0.00971
C 29.53187 7.04849 0.01518
C 30.78142 6.39335 0.01908
C 30.75213 5.00666 0.07705
C 29.5577 4.23978 0.0103
C 29.51542 2.77749 0.02108
C 30.76008 2.12325 0.00716
C 30.78475 0.67572 0.00307
C 29.4828 34.05889 0.00346
C 31.97215 32.63662 0.01713
C 33.20126 31.9591 -0.01694
C 33.19453 30.53976 0.01428
C 31.99902 29.8719 -0.02142
C 31.97659 28.40015 0.0544
C 33.23909 27.74852 0.00026
C 33.15841 26.29864 0.00682
C 31.96642 25.55551 -0.01779
C 29.51157 15.6067 0.01705
C 29.54515 17.07234 0.0101
C 30.78367 17.73064 -0.00669
C 30.71307 19.1174 0.03531
C 28.28829 10.68332 0.00194
C 28.29026 9.25522 -0.00621
C 27.08851 8.58102 0.02611
C 27.01435 7.02768 0.02198
C 28.26514 6.35923 0.01094
C 28.28275 4.96101 0.00235
C 27.10802 4.25238 0.01495
C 27.00678 2.81634 0.01259
C 28.23754 2.13056 0.01799
C 28.26576 0.66396 0.01699
C 27.02654 34.0644 -0.00416
C 31.97696 24.0986 0.03794
C 29.49941 32.71132 0.01177
C 30.74834 30.56587 0.01324
C 29.51807 29.80879 0.0014
C 29.52153 28.37583 0.00924
C 30.71984 27.6446 0.02326
C 30.67216 26.26928 0.00261
C 29.50519 25.55173 0.03265
C 29.54518 24.05703 -0.02049
C 30.75996 23.43003 -0.01854
C 30.71971 22.06699 -0.01415
C 29.54498 21.33718 -0.03039
C 29.50655 19.92001 0.01836
C 30.72987 31.95305 0.04266
C 27.03346 11.34122 0.04185
C 33.218 23.4567 0.01927
C 32.00593 21.3072 -0.02383
C 0.00888 24.15806 0.03076
C 1.20774 23.41853 0.00723
C 1.19932 22.01438 0.02712
C 34.41359 21.31505 -0.02213
C 34.4171 19.95074 0.01951
C 1.24458 19.13964 -0.01678
C 1.22332 17.71501 0.01223
C 34.37927 17.00894 0.00648
C 34.41947 15.6265 0.02114
C 1.25381 14.90337 -0.02957
C 1.17477 13.43672 0.00343
C 34.4075 12.75512 -0.02656
C 0.0003 11.36561 -0.02442
C 1.21015 10.6243 -0.00027
C 1.20085 9.24373 -0.00583
C 0.01815 8.48756 -0.02302
C 0.00747 7.09096 -0.02849
C 1.25118 6.38581 0.02931
C 1.20155 4.93634 0.00628
C 0.01477 4.18467 -0.0345
C 34.4245 2.8003 -0.00931
C 1.22133 2.13062 -0.00939
C 1.24993 0.71957 -0.00468
C 0.03479 25.55663 -0.05239
C 1.22726 26.3064 -0.00598
C 1.15882 27.67443 -0.00439
C 34.38172 28.40249 -0.01037
C 31.97282 19.8277 -0.01429
C 33.17146 19.18788 -0.0136
C 33.22657 17.74509 0.00594
C 32.00828 17.03666 -0.02474
C 31.91211 15.6142 0.00369
C 33.15565 14.83754 0.00455
C 33.22934 13.463 -0.00644
C 31.96911 12.75868 -0.01839
C 32.00027 11.29867 0.00137
C 33.22504 10.60382 0.00199
C 33.22073 9.21598 0.04381
C 33.19974 22.01171 0.01574
C 31.99798 8.46322 0.02806
C 33.16475 6.36972 -0.00069
C 33.18827 4.99368 0.04926
C 32.01945 4.22127 -0.03838
C 32.04996 2.82168 0.00349
C 33.17755 2.07962 -0.00323
C 33.19788 0.68135 -0.00841
C 31.9885 34.07911 0.0001
C 34.43216 32.64104 -0.02927
C 1.27566 31.9757 -0.01404
C 1.20242 30.51667 0.01027
C 34.42691 29.83726 0.01831
C 32.00211 7.10126 0.01504
C 3.74798 31.96893 -0.0005
C 27.06096 12.80626 0.02316
C 28.27922 14.93655 0.00152
C 20.95093 4.89701 -0.04076
C 19.69219 4.27454 -0.00652
C 19.70005 2.85561 0.0058
C 20.88673 2.18572 -0.00865
C 20.88893 0.71367 0.00675
C 19.66922 0.02071 -0.00311
C 22.11713 32.67238 0.00742
C 23.38018 31.90728 -0.01594
C 23.40625 30.52671 0.0106
C 22.11428 29.8875 -0.01154
C 22.12805 28.37395 -0.01721
C 23.37166 27.73728 -0.02422
C 23.38928 26.26525 0.01277
C 22.15727 25.51834 0.00096
C 22.06109 24.10185 -0.01527
C 23.39103 23.42688 0.01087
C 23.35455 21.98077 0.00199
C 22.24955 21.32203 0.01511
C 22.09617 19.90007 -0.00478
C 23.34708 13.46904 -0.01662
C 22.14957 12.75879 -0.01185
C 22.07769 11.34859 0.01126
C 23.29898 10.65048 0.01852
C 20.85492 6.36287 -0.00703
C 19.64328 7.11328 0.00654
C 19.70124 8.5036 -0.04422
C 20.83566 9.20311 -0.02957
C 18.4453 2.13177 0.03698
C 18.40098 0.6962 -0.00109
C 17.17712 34.03179 -0.00491
C 19.62773 32.67776 0.03338
C 20.90362 31.95731 -0.0258
C 20.891 30.51057 -0.0331
C 19.64193 29.83835 -0.00316
C 19.68819 28.32551 0.02188
C 20.94323 27.6852 -0.01979
C 20.90618 26.26589 0.02691
C 19.68544 25.5607 -0.01581
C 23.44111 9.28416 -0.00381
C 19.67639 24.15066 0.01452
C 20.88442 21.9556 -0.00111
C 19.66605 21.26276 -0.03557
C 19.68862 19.90121 0.03754
C 20.89067 19.18324 0.01739
C 19.64875 17.02548 0.00755
C 19.75288 15.65667 -0.0054
C 20.93182 14.9092 0.00667
C 20.90016 13.50357 0.00143
C 19.65654 12.73926 -0.017
C 19.67926 11.41415 0.00364
C 20.92139 10.65992 -0.00831
C 20.87219 23.39673 0.04892
C 28.26415 13.47554 0.01257
C 22.13986 8.48972 0.03046
C 23.33492 6.35827 0.03374
C 25.84579 4.94697 -0.01199
C 24.60214 4.25509 -0.00229
C 24.60447 2.90503 -0.00938
C 25.85794 2.17023 -0.0264
C 25.80112 0.72191 -0.01154
C 24.59407 34.059 0.00684
C 27.05604 32.64935 -0.01052
C 28.30768 31.98824 -0.01679
C 28.29865 30.51336 0.00367
C 27.05031 29.80074 0.04306
C 27.11776 28.41184 0.00996
C 28.25781 27.73475 0.00195
C 28.30447 26.29338 -0.00802
C 27.0626 25.61192 -0.00218
C 27.04873 24.13172 -0.01654
C 28.28986 23.35758 -0.00037
C 28.25789 21.97597 -0.0032
C 27.09119 21.289 0.00622
C 27.03812 19.84053 -0.02815
C 28.24605 19.18269 -0.00942
C 28.26248 17.73014 0.00487
C 26.99174 17.03175 0.00826
C 27.06454 15.63948 -0.00294
C 25.77282 6.31418 -0.009
C 24.56761 7.07873 -0.00285
C 24.59606 8.54722 0.01423
C 25.83279 9.2584 0.02555
C 23.34476 4.88109 -0.02845
C 22.16885 4.25535 -0.03213
C 22.13769 2.91675 0.02239
C 23.37122 2.13749 0.01153
C 23.33287 0.74095 0.02734
C 22.1336 34.04733 -0.0055
C 24.60215 32.64033 0.01515
C 25.82289 31.94548 -0.00225
C 25.80675 30.54837 0.00071
C 24.60332 29.78127 -0.01107
C 24.62868 28.41489 -0.01586
C 22.1312 7.08273 0.0296
C 25.83723 27.7318 -0.01971
C 24.55645 25.54708 0.00733
C 24.55108 24.15937 -0.00178
C 25.78428 23.4074 0.00768
C 25.76497 22.01069 -0.0276
C 24.53978 21.29997 0.03005
C 24.56269 19.85883 -0.04078
C 25.81806 19.26282 0.02117
C 25.84162 13.48766 0.02737
C 24.63117 12.86318 -0.00498
C 24.58143 11.34491 0.00135
C 25.84385 10.59016 0.03102
C 25.79871 26.29094 -0.02118
C 2.46016 32.72491 0.01116
