356
Graphene
C 34.39926 0.02026 0.01295
C 14.72015 8.57643 -0.0108
C 14.71126 7.20129 -0.00368
C 15.97422 6.48778 -0.02696
C 15.90915 4.97675 -0.00114
C 14.69508 4.26118 0.00228
C 14.78183 2.9151 0.00798
C 16.05091 2.19143 0.00422
C 16.0209 0.77566 0.0351
C 15.95512 9.23198 -0.01957
C 14.85762 34.06763 -0.03113
C 18.47722 31.94184 0.01848
C 18.49781 30.49948 -0.00619
C 17.31856 29.75092 -0.02162
C 17.311 28.31965 0.00889
C 18.57533 27.66018 -0.00481
C 18.81704 26.2061 0.00979
C 17.04971 15.2494 0.01443
C 18.50017 14.93119 0.03505
C 17.28295 32.61969 0.02098
C 18.42063 13.50179 -0.02815
C 15.873 10.70618 0.02058
C 14.65487 12.65257 -0.03682
C 12.31541 7.13537 -0.02162
C 13.55887 6.40615 0.00415
C 13.4559 4.95849 -0.0014
C 12.20459 4.30929 0.02162
C 12.27413 2.91306 0.0076
C 13.59246 2.12303 0.01241
C 13.65077 0.73044 -0.01454
C 12.39232 0.04406 0.01945
C 14.62906 11.32318 0.01965
C 14.77198 32.60245 0.01416
C 15.98377 30.51811 0.02299
C 14.91039 29.74054 0.00244
C 16.0324 27.53359 -0.01717
C 15.9821 26.25639 0.05265
C 14.63846 17.20774 -0.01952
C 14.98398 15.99664 -0.02813
C 15.87984 14.78469 0.00374
C 15.88695 13.32883 0.00052
C 16.0185 31.94931 0.03542
C 17.11549 12.80967 -0.04147
C 17.0951 11.40318 -0.05302
C 18.37447 10.59472 0.00213
C 20.86815 9.22879 0.00667
C 19.65776 8.50027 0.00143
C 19.59752 7.10424 -0.017
C 20.84537 6.3488 0.00364
C 20.83967 4.94289 -0.00831
C 19.60948 4.23239 -0.02957
C 19.62203 2.81524 -0.04422
C 20.88216 2.11687 0.00654
C 20.78012 10.66151 -0.0054
C 20.89158 0.72113 -0.00703
C 22.19312 32.56035 -0.00652
C 23.43891 31.87175 0.0058
C 23.43959 30.43558 -0.00865
C 22.13716 29.75807 0.00675
C 22.19163 28.34128 -0.00311
C 23.38241 27.63631 0.00742
C 23.24711 26.22498 -0.01594
C 21.84328 25.66892 0.0106
C 19.66579 34.00686 -0.04076
C 19.59428 11.35841 0.00755
C 19.61991 12.78125 0.01739
C 20.825 13.39623 0.03754
C 18.43081 9.19829 -0.00066
C 17.1483 8.57475 -0.00289
C 17.16238 7.17708 0.00028
C 18.36475 6.41178 -0.02213
C 18.38343 4.97988 0.03698
C 17.16539 4.34479 -0.00109
C 17.25769 2.92077 -0.00491
C 18.47447 2.11316 0.03338
C 18.48542 0.63285 -0.0258
C 17.26125 0.01255 -0.0331
C 19.71001 32.59812 -0.00316
C 20.92363 31.92179 0.02188
C 20.93469 30.54636 -0.01979
C 19.73701 29.775 0.02691
C 19.72003 28.45875 -0.01581
C 20.88772 27.64444 0.01452
C 20.59039 26.16853 0.04892
C 19.75055 15.64133 -0.00111
C 20.89566 14.85007 -0.03557
C 12.21334 8.51632 0.01363
C 23.70081 22.84652 -0.01154
C 13.45098 9.26341 0.01877
C 12.21584 11.38364 0.00444
C 2.41341 4.33556 -0.00562
C 2.46911 2.88946 -0.00494
C 3.66365 2.15206 0.00054
C 3.67736 0.77466 0.03007
C 2.44529 0.10054 -0.00095
C 4.90037 32.73288 0.01572
C 6.1851 31.97476 -0.04848
C 6.1339 30.58041 -0.00892
C 3.67287 5.00371 -0.01142
C 4.98253 29.86406 -0.01362
C 5.05477 12.73297 0.0288
C 4.87597 11.30972 0.00393
C 6.12248 10.66482 0.00895
C 6.0737 9.19296 0.00685
C 4.84032 8.55249 0.02888
C 4.8463 7.14781 -0.00482
C 6.10922 6.50896 -0.01384
C 6.11279 5.07594 0.03693
C 5.31187 28.50849 -0.0008
C 4.95262 4.37649 0.01745
C 3.68856 6.38955 0.01849
C 2.4293 8.48879 0.0127
C 3.72207 30.52586 -0.05697
C 2.53094 29.77907 0.01087
C 2.59183 28.37686 -0.01343
C 3.97009 27.68474 0.00988
C 3.76412 26.31838 0.0276
C 2.6968 25.41909 0.01305
C 2.41928 24.04227 -0.00077
C 2.36703 21.25717 0.03368
C 2.47917 7.06934 0.01396
C 2.37369 19.9241 -0.02929
C 2.4997 17.41493 -0.03337
C 2.55172 15.86877 0.01227
C 3.60605 14.95255 0.00873
C 3.79997 13.56625 -0.00049
C 2.49709 12.86071 0.00848
C 2.4173 11.42823 -0.01303
C 3.60588 10.64418 -0.01378
C 3.62931 9.2308 0.02635
C 3.39351 18.77749 -0.00966
C 4.89189 2.9594 0.00488
C 6.16136 2.2347 -0.01004
C 6.14561 0.71998 -0.02896
C 10.93852 10.6673 0.00406
C 10.94731 9.25326 0.00943
C 9.65219 8.67613 0.02841
C 9.73703 7.24346 -0.01111
C 11.01471 6.54518 -0.01275
C 11.00494 5.16083 0.00985
C 9.84718 4.33226 -0.02245
C 9.86148 2.89125 -0.00428
C 9.78731 11.50207 0.03592
C 11.04875 2.18305 0.03101
C 9.90924 0.03028 -0.02689
C 12.32039 32.62856 -0.01046
C 13.51106 31.85522 -0.00891
C 13.68663 30.34035 0.02819
C 12.3092 29.60633 0.00165
C 12.07833 28.33898 -0.02971
C 13.34708 13.44756 0.02894
C 12.23471 12.79617 -0.01789
C 11.11796 0.77153 -0.01536
C 9.83184 29.81338 0.00572
C 11.02454 30.48552 0.0402
C 11.09503 31.93078 -0.02759
C 4.86854 0.02964 -0.00131
C 7.40824 32.74907 -0.01118
C 8.66465 31.99988 -0.014
C 8.6311 30.47727 0.02147
C 7.31878 29.78167 0.00373
C 6.87132 28.45494 -0.00191
C 7.18376 11.49282 0.00438
C 8.49549 10.96135 0.01291
C 8.50065 9.48935 0.00093
C 7.36579 8.68177 0.00057
C 7.35542 7.1804 -0.01634
C 8.52234 6.43191 -0.00334
C 8.52114 5.01089 0.02339
C 7.30928 4.32662 0.01641
C 7.35962 2.86596 -0.00719
C 8.64276 2.15355 0.01364
C 8.69 0.7626 -0.01062
C 7.45979 0.08309 -0.00033
C 9.86428 32.65017 0.03589
C 13.39746 10.64415 -0.00925
C 23.28776 19.28125 -0.01721
C 23.06037 17.90846 -0.02422
C 21.9492 16.91646 0.01277
C 31.9717 32.74149 0.01713
C 33.20471 32.01239 -0.01694
C 33.21667 30.56553 0.01428
C 31.96298 29.90979 -0.02142
C 32.01394 28.4672 0.0544
C 33.28027 27.67039 0.00026
C 33.27226 26.21729 0.00682
C 31.97766 25.57507 -0.01779
C 29.51657 0.04489 0.00346
C 31.9959 24.11894 0.03794
C 33.12134 22.05764 0.01574
C 31.87009 21.29793 -0.02383
C 31.83859 19.87307 -0.01429
C 33.11245 19.15152 -0.0136
C 33.14614 17.76489 0.00594
C 31.87098 17.00697 -0.02474
C 31.86723 15.61572 0.00369
C 33.20101 14.90518 0.00455
C 33.24907 23.43343 0.01927
C 33.25071 13.50527 -0.00644
C 30.77706 0.7393 0.00307
C 29.49854 2.74482 0.02108
C 30.70117 22.02216 -0.01415
C 29.43139 21.30027 -0.03039
C 29.37064 19.93525 0.01836
C 30.64959 19.19687 0.03531
C 30.60047 17.74092 -0.00669
C 29.41055 17.02631 0.0101
C 29.45172 15.61397 0.01705
C 30.65305 14.90027 -0.0405
C 30.82021 2.1361 0.00716
C 30.70215 13.48062 -0.01303
C 29.49465 11.34229 -0.02155
C 30.71119 10.63117 -0.00944
C 30.73926 9.14445 -0.03735
C 29.50377 8.54078 -0.00971
C 29.47499 7.05884 0.01518
C 30.69468 6.35429 0.01908
C 30.70746 4.94821 0.07705
C 29.50339 4.2306 0.0103
C 29.48433 12.74382 -0.01461
C 32.00444 12.78049 -0.01839
C 31.88136 11.35213 0.00137
C 33.14728 10.6722 0.00199
C 1.03876 19.29996 -0.01678
C 1.17231 17.83551 0.01223
C 34.3606 17.11891 0.00648
C 34.41704 15.63277 0.02114
C 1.26682 15.04011 -0.02957
C 1.32 13.6271 0.00343
C 0.12182 12.88907 -0.02656
C 34.40079 11.39855 -0.02442
C 34.29979 19.92353 0.01951
C 1.21998 10.69529 -0.00027
C 34.34941 8.54807 -0.02302
C 34.40154 7.11014 -0.02849
C 1.19596 6.42616 0.02931
C 1.15068 5.02894 0.00628
C 0.01382 4.25727 -0.0345
C 0.01883 2.8001 -0.00931
C 1.23638 2.12259 -0.00939
C 1.14109 0.77503 -0.00468
C 1.17477 9.26333 -0.00583
C 34.32098 21.3343 -0.02213
C 1.14074 21.9774 0.02712
C 1.1536 23.42725 0.00723
C 33.17078 9.26814 0.04381
C 31.97593 8.52051 0.02806
C 31.97379 7.05621 0.01504
C 33.20867 6.37862 -0.00069
C 33.26132 4.93382 0.04926
C 31.96323 4.30844 -0.03838
C 31.95927 2.85439 0.00349
C 33.21999 2.15345 -0.00323
C 33.21061 0.74978 -0.00841
C 31.95134 0.0321 0.0001
C 0.01144 32.66915 -0.02927
C 1.24652 31.9324 -0.01404
C 1.25126 30.50405 0.01027
C 0.03262 29.82533 0.01831
C 0.06995 28.35453 -0.01037
C 1.43062 27.63941 -0.00439
C 1.46286 26.15004 -0.00598
C 0.0917 25.53296 -0.05239
C 34.418 24.21977 0.03076
C 30.68485 23.43582 -0.01854
C 29.48235 24.19755 -0.02049
C 29.54608 25.56302 0.03265
C 30.7678 26.3043 0.00261
C 24.53248 25.41582 -0.01107
C 24.50959 24.00675 -0.01586
C 25.83898 23.53778 -0.01971
C 25.74217 22.12942 -0.02118
C 24.31196 21.78787 0.00733
C 24.29681 20.21187 -0.00178
C 25.56351 19.40627 0.00768
C 25.57654 17.93119 -0.0276
C 25.77276 26.2092 0.00071
C 24.37312 17.10689 0.03005
C 25.76469 14.89543 0.02117
C 25.73062 13.50101 0.02737
C 24.51508 12.74659 -0.00498
C 24.63387 11.29193 0.00135
C 25.81036 10.55817 0.03102
C 25.87846 9.18336 0.02555
C 24.58858 8.43328 0.01423
C 24.46454 7.04327 -0.00285
C 24.48461 15.65351 -0.04078
C 25.75859 27.66144 -0.00225
C 24.56421 28.37191 0.01515
C 24.61579 29.78122 -0.0055
C 22.09196 15.578 0.00096
C 23.29304 14.89761 -0.01527
C 23.28939 13.51141 0.01087
C 22.1017 12.73648 0.00199
C 22.12938 11.31389 0.01511
C 23.36995 10.62878 -0.00478
C 23.31614 9.19907 -0.01662
C 22.077 8.46221 -0.01185
C 22.10355 7.05253 0.01126
C 23.3384 6.3489 0.01852
C 23.3206 5.00287 -0.00381
C 22.12292 4.29493 0.03046
C 22.10004 2.85025 0.0296
C 23.31507 2.1213 0.03374
C 23.32773 0.68837 -0.02845
C 22.13484 34.04119 -0.03213
C 24.62352 32.5979 0.02239
C 25.80715 31.90166 0.01153
C 25.9114 30.57348 0.02734
C 25.72706 6.28651 -0.009
C 3.66601 32.03798 -0.00725
C 25.8008 4.93515 -0.01199
C 24.49785 2.79762 -0.00938
C 27.02565 11.27223 0.04185
C 28.30842 10.62656 0.00194
C 28.28951 9.22751 -0.00621
C 27.04664 8.46237 0.02611
C 27.023 7.04481 0.02198
C 28.22848 6.31084 0.01094
C 28.24056 4.92464 0.00235
C 27.06246 4.27041 0.01495
C 26.99383 12.74862 0.02316
C 26.97315 2.855 0.01259
C 28.24866 0.73023 0.01699
C 27.06009 0.00435 -0.00416
C 29.50874 32.68505 0.01177
C 30.73929 32.00469 0.04266
C 30.74506 30.54507 0.01324
C 29.46754 29.85662 0.0014
C 29.50955 28.46939 0.00924
C 30.76328 27.78566 0.02326
C 28.19992 2.13056 0.01799
C 28.19547 13.45309 0.01257
C 28.19688 14.94852 0.00152
C 26.97908 15.61899 -0.00294
C 25.80612 2.12492 -0.0264
C 25.7565 0.6699 -0.01154
C 24.56828 34.06454 0.00684
C 27.12684 32.70164 -0.01052
C 28.27138 31.97643 -0.01679
C 28.2628 30.53442 0.00367
C 27.06143 29.79927 0.04306
C 27.02688 28.42339 0.00996
C 28.24906 27.74857 0.00195
C 28.33052 26.31138 -0.00802
C 27.05836 25.6809 -0.00218
C 27.08308 24.28141 -0.01654
C 28.20735 23.47096 -0.00037
C 28.21295 22.03024 -0.0032
C 26.94012 21.29901 0.00622
C 26.84138 19.91272 -0.02815
C 28.06408 19.24623 -0.00942
C 28.05181 17.85178 0.00487
C 26.86611 17.12404 0.00826
C 24.60783 4.18151 -0.00229
C 2.50201 32.73107 0.02322
