373
Graphene
C 34.35363 0.04878 0.01295
C 14.65828 25.55204 0.00244
C 14.74745 24.21384 -0.01717
C 16.01667 23.66888 0.05265
C 16.21989 10.71384 -0.01952
C 16.06803 9.26119 -0.02813
C 14.81701 8.56223 0.00374
C 14.75696 7.10971 0.00052
C 15.936 6.30769 -0.03682
C 15.96609 4.96696 0.01965
C 14.68612 4.26676 0.02058
C 14.82384 2.79501 -0.01957
C 16.04026 2.13458 -0.0108
C 15.99484 0.73826 -0.00368
C 14.81001 34.0777 -0.02696
C 17.20815 32.58025 -0.00114
C 18.34874 31.87386 0.00228
C 18.32837 30.44444 0.00798
C 17.13803 29.712 0.00422
C 17.17309 28.33366 0.0351
C 15.9922 26.23024 0.02299
C 18.52573 27.69121 -0.03113
C 15.98448 27.63701 0.03542
C 14.6618 29.8166 0.01945
C 13.49794 30.58271 -0.02689
C 12.23948 29.8666 -0.01046
C 12.32884 28.45741 -0.00891
C 13.57692 27.7038 0.02819
C 13.53362 26.25991 0.00165
C 12.36062 25.58931 -0.02971
C 13.60422 9.20255 0.02894
C 12.34344 8.64171 -0.01789
C 12.25771 7.15907 0.00444
C 13.47561 6.43482 -0.00925
C 13.46719 4.94473 0.01877
C 12.26903 4.25121 0.01363
C 12.35348 2.78426 -0.02162
C 13.64617 2.04877 0.00415
C 13.57256 0.66413 -0.0014
C 12.35968 0.00282 0.02162
C 14.80943 32.65417 0.0076
C 15.95314 31.9604 0.01241
C 15.93272 30.50725 -0.01454
C 14.79346 28.4016 0.01416
C 18.428 26.31595 0.02098
C 17.22619 25.58214 0.01848
C 17.17445 24.12757 -0.00619
C 19.66277 21.52016 -0.01581
C 20.95595 19.04616 0.01452
C 20.92573 17.76331 0.04892
C 20.91264 14.89834 -0.00111
C 20.84288 13.45949 -0.03557
C 19.80416 12.72292 0.03754
C 19.48805 11.39771 0.01739
C 20.84836 10.62702 0.00755
C 20.94648 9.26592 -0.0054
C 19.71088 8.48496 0.00667
C 19.72517 7.14366 0.00143
C 20.92308 6.38222 -0.017
C 20.84935 4.94822 0.00364
C 19.61605 4.21541 -0.00831
C 19.64107 2.76131 -0.02957
C 20.78594 2.03033 -0.04422
C 20.86263 0.6708 0.00654
C 19.60942 34.04511 -0.00703
C 22.0692 32.63975 -0.04076
C 20.95904 21.91217 0.02691
C 20.75704 23.38586 -0.01979
C 19.58357 24.10358 0.02188
C 19.64889 25.53642 -0.00316
C 18.32377 23.37965 -0.02162
C 18.40919 22.06831 0.00889
C 18.29184 10.63964 -0.00481
C 18.55344 9.24002 0.00979
C 17.32181 8.49941 0.01443
C 17.21012 7.08829 0.03505
C 18.48633 6.35375 -0.02815
C 18.43692 4.94091 -0.04147
C 17.23258 4.21104 -0.05302
C 13.55295 32.03636 -0.01536
C 17.21229 2.7757 0.00213
C 18.44951 0.69073 -0.00289
C 17.24907 34.04636 0.00028
C 19.61548 32.5837 -0.02213
C 20.82802 31.97873 0.03698
C 20.8807 30.54846 -0.00109
C 19.62908 29.78751 -0.00491
C 19.69354 28.40509 0.03338
C 20.90877 27.63279 -0.0258
C 20.86348 26.27321 -0.0331
C 18.44241 2.09031 -0.00066
C 12.28923 32.67182 0.03101
C 9.86938 0.03717 -0.00428
C 11.07194 0.65662 -0.02245
C 6.17852 32.02757 0.03368
C 6.14056 30.62236 -0.02929
C 5.02478 29.78864 -0.00966
C 6.08688 19.16932 -0.03337
C 6.22128 17.8535 0.01227
C 4.91551 17.06462 0.00873
C 4.95627 15.69975 -0.00049
C 6.23656 14.92381 0.00848
C 6.18399 13.52713 -0.01303
C 4.94748 12.80131 -0.01378
C 4.84477 11.39174 0.02635
C 6.09818 10.70062 0.0127
C 6.08561 9.34433 0.01396
C 4.84065 8.58615 0.01849
C 4.85131 7.18089 -0.01142
C 6.07743 6.52485 -0.00562
C 6.12705 5.07111 -0.00494
C 4.93558 4.25465 0.00054
C 4.94055 2.86046 0.03007
C 4.95473 32.61186 -0.00077
C 2.47944 0.01933 0.01305
C 3.70738 0.73158 0.0276
C 3.66165 2.12271 0.00988
C 3.8262 30.39702 0.0174
C 2.53435 29.68334 0.03828
C 2.33489 28.37297 0.01226
C 2.31531 19.80659 -0.00279
C 3.6149 19.24351 0.01996
C 3.74853 17.92681 -0.03996
C 2.51918 17.12141 0.01465
C 2.54182 15.63001 -0.00074
C 3.6902 14.89761 -0.00518
C 6.13795 2.10813 -0.00095
C 3.64953 13.47158 0.0086
C 2.40803 11.4466 0.017
C 3.58617 10.72119 -0.03113
C 3.67969 9.33543 -0.02566
C 2.50616 8.58849 -0.00094
C 2.49676 7.14519 0.02322
C 3.7105 6.46796 -0.00725
C 3.70449 4.96003 -0.05697
C 2.4863 4.27887 0.01087
C 2.45494 2.84582 -0.01343
C 2.42825 12.80899 -0.00643
C 23.29309 31.98262 -0.00652
C 6.15538 0.68238 0.01572
C 7.44874 32.73129 -0.00892
C 11.08354 31.98417 -0.01634
C 11.04683 30.54054 -0.00334
C 9.83629 29.82637 0.02339
C 9.87884 28.47598 0.01641
C 11.06887 27.76635 -0.00719
C 11.13584 26.30614 0.01364
C 9.70234 25.49148 -0.01062
C 9.68417 23.94105 -0.00033
C 10.93563 23.30877 0.03589
C 9.72478 11.33225 -0.02759
C 10.75415 10.5001 0.0402
C 11.10709 9.26821 0.00572
C 9.82798 8.54654 0.03592
C 9.83805 7.10322 0.00406
C 11.0511 6.50382 0.00943
C 11.1132 4.9644 0.02841
C 9.85848 4.26672 -0.01111
C 9.80665 2.85832 -0.01275
C 11.0938 2.08013 0.00985
C 9.90285 32.68699 0.00057
C 7.40321 0.03169 0.00093
C 8.6134 0.81616 0.01291
C 8.56926 2.21966 0.00438
C 8.66099 32.02672 -0.01362
C 8.64502 30.59021 -0.0008
C 7.36307 30.05984 0.0288
C 7.40849 28.69063 0.00393
C 8.47463 27.74049 0.00895
C 8.76178 26.43804 0.00685
C 8.84777 22.18264 0.02888
C 7.10059 20.10997 -0.00482
C 7.24083 17.03665 -0.01384
C 4.94557 34.00927 -0.04848
C 7.30647 15.6843 0.03693
C 7.35013 11.57198 0.00488
C 8.51958 10.78219 -0.01004
C 8.54046 9.30445 -0.02896
C 7.38566 8.58211 -0.00131
C 7.38483 7.12152 -0.01118
C 8.57025 6.43696 -0.014
C 8.53385 5.01439 0.02147
C 7.28937 4.31029 0.00373
C 7.2633 2.89721 -0.00191
C 7.39836 12.96282 0.01745
C 3.67608 31.92633 0.0073
C 23.31355 30.46658 0.0058
C 22.11866 28.35107 0.00675
C 30.73196 4.95506 0.00716
C 29.50655 4.28066 0.00307
C 29.45391 2.88698 0.00346
C 30.63877 2.15207 0.01713
C 30.69582 0.78057 -0.01694
C 29.4305 34.07877 0.01428
C 31.93321 32.68917 -0.02142
C 33.141 31.95061 0.0544
C 33.23998 30.54661 0.00026
C 32.01479 29.83441 0.00682
C 32.0127 28.42094 -0.01779
C 33.19018 27.7257 0.03794
C 33.19953 26.31195 0.01927
C 32.02216 25.64305 0.01574
C 31.97827 24.19458 -0.02383
C 33.16985 23.42728 -0.01429
C 33.30062 21.95683 -0.0136
C 31.97363 21.24534 0.00594
C 31.95679 19.84784 -0.02474
C 30.70209 6.39036 0.02108
C 33.18862 19.11411 0.00369
C 29.59029 7.11152 0.0103
C 30.78239 9.2995 0.01908
C 29.55718 29.82546 0.00261
C 29.57507 28.44209 0.03265
C 30.79615 27.72513 -0.02049
C 30.72871 26.26843 -0.01854
C 29.56567 25.55656 -0.01415
C 29.52273 24.11698 -0.03039
C 30.7539 23.39954 0.01836
C 30.81571 21.9665 0.03531
C 29.56746 21.33772 -0.00669
C 29.58162 19.81392 0.0101
C 30.70423 19.11223 0.01705
C 30.73576 17.68836 -0.0405
C 29.49114 16.98768 -0.01303
C 29.47336 15.64713 -0.01461
C 30.70505 14.92174 -0.02155
C 30.66106 13.53087 -0.00944
C 29.46901 12.81238 -0.03735
C 29.49036 11.34547 -0.00971
C 30.78499 10.68114 0.01518
C 29.54129 8.5783 0.07705
C 33.17451 17.78726 0.00455
C 31.92969 16.95298 -0.00644
C 31.92343 15.5915 -0.01839
C 34.41308 19.91801 0.01951
C 1.13569 19.18547 -0.01678
C 1.26806 17.75233 0.01223
C 0.02431 17.07532 0.00648
C 34.42013 15.62694 0.02114
C 1.26193 14.98193 -0.02957
C 1.1924 13.53442 0.00343
C 0.03936 12.81416 -0.02656
C 34.39273 11.38348 -0.02442
C 1.15681 10.65776 -0.00027
C 1.20114 9.19152 -0.00583
C 34.42918 8.51797 -0.02302
C 0.00716 7.13888 -0.02849
C 1.2772 6.46003 0.02931
C 1.28047 5.05866 0.00628
C 0.01742 4.27585 -0.0345
C 34.40325 2.93993 -0.00931
C 1.20426 2.17633 -0.00939
C 1.19295 0.74535 -0.00468
C 0.01053 21.32523 -0.02213
C 34.24846 24.22013 0.02712
C 34.28567 25.53853 0.00723
C 1.21931 27.67792 0.03076
C 33.254 14.91562 0.00137
C 33.21014 13.57441 0.00199
C 31.92225 12.84245 0.04381
C 31.96477 11.41935 0.02806
C 33.18771 10.65728 0.01504
C 33.21975 9.21554 -0.00069
C 32.01043 8.54219 0.04926
C 31.9684 7.06835 -0.03838
C 33.14765 6.37263 0.00349
C 30.72595 30.58361 0.02326
C 33.19764 4.98655 -0.00323
C 31.86013 2.84602 0.0001
C 33.06947 2.16868 -0.02927
C 33.12505 0.73258 -0.01404
C 31.94016 0.02439 0.01027
C 34.4207 32.72875 0.01831
C 1.22915 31.96425 -0.01037
C 1.32374 30.52679 -0.00439
C 0.07859 29.78754 -0.00598
C 0.06114 28.34243 -0.05239
C 31.97111 4.29037 -0.00841
C 30.67501 31.95791 0.00924
C 29.46885 32.63795 0.0014
C 26.99406 34.00127 0.01324
C 23.22035 2.09851 0.02239
C 23.3612 0.68113 0.01153
C 22.09357 34.03562 0.02734
C 24.49454 32.61014 -0.0055
C 25.79779 31.89868 0.01515
C 25.80195 30.44352 -0.00225
C 24.54074 29.74978 0.00071
C 24.59371 28.376 -0.01107
C 25.86521 27.6342 -0.01586
C 25.83368 26.25359 -0.01971
C 24.60627 25.52519 -0.02118
C 24.59068 24.08546 0.00733
C 25.86906 23.3409 -0.00178
C 25.8627 21.95829 0.00768
C 24.62434 21.21151 -0.0276
C 24.6309 19.80421 0.03005
C 25.89592 19.22471 -0.04078
C 25.83078 17.80941 0.02117
C 24.63552 16.99002 0.02737
C 22.03061 2.75833 -0.03213
C 22.10371 4.20269 -0.02845
C 23.27193 4.93842 0.03374
C 23.36677 6.28841 0.0296
C 23.2922 27.63783 -0.00311
C 23.30832 26.19698 0.00742
C 22.14159 25.48626 -0.01594
C 22.05407 24.11632 0.0106
C 23.32246 23.39606 -0.01154
C 23.38652 21.9594 -0.01721
C 22.1217 21.22769 -0.02422
C 22.08058 19.81009 0.01277
C 23.32678 19.0495 0.00096
C 24.59818 15.60259 -0.00498
C 23.30113 17.69307 -0.01527
C 22.10838 15.58587 0.00199
C 23.38417 14.8723 0.01511
C 23.41152 13.5166 -0.00478
C 22.20633 12.72095 -0.01662
C 22.08254 11.34507 -0.01185
C 23.27685 10.61625 0.01126
C 23.33755 9.21543 0.01852
C 22.1815 8.54052 -0.00381
C 22.12469 7.08501 0.03046
C 22.03064 16.97144 0.01087
C 22.05323 29.79382 -0.00865
C 25.7987 14.97995 0.00135
C 24.60528 12.78006 0.02555
C 27.10333 19.90632 0.00826
C 28.29846 19.11381 -0.00294
C 28.24236 17.79456 0.00152
C 27.08608 17.06235 0.01257
C 27.01597 15.63814 0.02316
C 28.27604 14.88893 0.04185
C 28.27407 13.50549 0.00194
C 27.01943 12.79453 -0.00621
C 26.9638 11.36263 0.02611
C 28.24956 10.69032 0.02198
C 28.27582 9.24483 0.01094
C 27.03323 8.52862 0.00235
C 27.00252 7.15878 0.01495
C 28.27757 6.43363 0.01259
C 28.25836 5.04455 0.01799
C 27.04674 4.25512 0.01699
C 27.02633 2.83299 -0.00416
C 28.13312 2.09221 0.01177
C 28.21942 0.7076 0.04266
C 27.07278 21.30755 0.00487
C 28.41537 22.05426 -0.00942
C 28.32415 23.43756 -0.02815
C 27.05257 24.06533 0.00622
C 24.51243 11.38425 0.01423
C 25.72304 10.67397 -0.00285
C 25.76586 9.27555 -0.009
C 24.59305 8.46892 -0.01199
C 24.50064 7.04005 -0.00229
C 25.85294 6.32236 -0.00938
C 25.81373 4.84727 -0.0264
C 24.55677 4.15482 -0.01154
C 24.49465 2.78189 0.00684
C 25.88273 13.54025 0.03102
C 25.71998 2.07812 -0.01052
C 24.53724 34.03561 0.00367
C 27.02492 32.499 0.04306
C 28.27089 31.94053 0.00996
C 28.28197 30.46214 0.00195
C 27.03636 29.79835 -0.00802
C 27.04877 28.365 -0.00218
C 28.25423 27.62768 -0.01654
C 28.31884 26.23008 -0.00037
C 27.10266 25.50635 -0.0032
C 25.78145 0.65692 -0.01679
C 2.45493 32.66472 0.00402
