396
Graphene
C 34.40873 34.01547 0.01295
C 12.35243 17.09931 -0.01789
C 12.30842 15.70852 0.00444
C 13.59728 15.01561 -0.00925
C 13.57862 13.5292 0.01877
C 12.35433 12.86183 0.01363
C 12.36496 11.36851 -0.02162
C 13.53349 10.70332 0.00415
C 13.50756 9.29387 -0.0014
C 12.26575 8.51715 0.02162
C 13.47124 17.87126 0.02894
C 12.28887 7.07886 0.0076
C 13.55473 4.89609 -0.01454
C 12.35231 4.24095 0.01945
C 12.40713 2.82349 0.01416
C 13.60742 2.13177 0.03542
C 13.59584 0.61494 0.02299
C 12.23759 34.05939 0.00244
C 14.65289 32.67689 -0.01717
C 15.87336 31.79907 0.05265
C 15.96811 30.39378 -0.01952
C 13.51556 6.36293 0.01241
C 12.20694 29.88932 -0.02971
C 13.18336 30.53799 0.00165
C 13.46799 32.0142 0.02819
C 9.91029 19.84165 0.01364
C 10.92961 19.22648 -0.01062
C 11.05265 17.78572 -0.00033
C 9.88633 17.13403 0.03589
C 9.85672 15.77329 -0.02759
C 11.08705 14.96942 0.0402
C 11.05664 13.56098 0.00572
C 9.83604 12.84441 0.03592
C 9.87629 11.36671 0.00406
C 11.08377 10.70825 0.00943
C 11.06808 9.26889 0.02841
C 9.86871 8.55481 -0.01111
C 9.84241 7.15475 -0.01275
C 11.06985 6.35114 0.00985
C 11.07025 4.92308 -0.02245
C 9.91295 4.29562 -0.00428
C 9.87393 2.8515 0.03101
C 11.03213 2.17667 -0.01536
C 10.9748 0.75737 -0.02689
C 9.81705 0.0103 -0.01046
C 12.23327 32.64862 -0.00891
C 16.05512 17.86102 -0.02813
C 14.73555 17.25564 0.00374
C 14.76275 15.83146 0.00052
C 15.99282 15.03485 -0.03682
C 18.42785 10.59139 -0.00066
C 18.38629 9.26155 -0.00289
C 17.19808 8.48203 0.00028
C 17.25999 7.11748 -0.02213
C 18.41886 6.38782 0.03698
C 18.43041 4.97122 -0.00109
C 17.29506 4.27999 -0.00491
C 17.21323 2.82258 0.03338
C 18.44428 2.12168 -0.0258
C 18.39874 0.59475 -0.0331
C 17.12633 33.94344 -0.00316
C 19.58975 32.57257 0.02188
C 20.86727 31.95477 -0.01979
C 20.85624 30.52662 0.02691
C 19.65042 29.73446 -0.01581
C 19.58156 28.37971 0.01452
C 20.80991 27.59575 0.04892
C 21.00842 26.30692 -0.00111
C 20.71043 19.11536 -0.03557
C 20.90561 17.72743 0.03754
C 19.63096 17.00004 0.01739
C 17.26684 11.32429 0.00213
C 9.68458 28.52628 -0.00719
C 17.19473 12.8354 -0.05302
C 18.3899 14.91357 -0.02815
C 15.99633 13.53037 0.01965
C 14.74473 12.77431 0.02058
C 14.80521 11.37522 -0.01957
C 15.98749 10.64862 -0.0108
C 15.93847 9.21589 -0.00368
C 14.76289 8.50824 -0.02696
C 14.77579 7.03682 -0.00114
C 16.08009 6.38144 0.00228
C 16.01042 4.98112 0.00798
C 14.80755 4.22488 0.00422
C 14.81753 2.76081 0.0351
C 16.05666 2.08317 -0.03113
C 16.00484 0.65473 0.02098
C 14.79616 34.04883 0.01848
C 17.09616 32.49326 -0.00619
C 18.33304 31.84368 -0.02162
C 18.42641 30.40689 0.00889
C 17.06763 29.8668 -0.00481
C 18.52676 17.83159 0.00979
C 17.27036 17.16551 0.01443
C 17.20976 15.7024 0.03505
C 18.4616 13.4904 -0.04147
C 19.60663 15.54782 0.00755
C 9.71958 29.87713 0.01641
C 11.01329 31.90226 -0.00334
C 2.4041 4.28119 0.01226
C 2.38242 2.91963 -0.00279
C 3.66356 2.21547 0.01996
C 3.69708 0.75968 -0.03996
C 2.44113 0.04791 0.01465
C 4.87771 32.79892 -0.00074
C 6.17083 32.06332 -0.00518
C 6.13919 30.63561 0.0086
C 4.86676 29.81657 -0.00643
C 3.64299 4.98897 0.03828
C 4.82537 28.38679 0.017
C 6.04703 26.33755 -0.02566
C 4.78833 25.53803 -0.00094
C 4.91163 24.1339 0.02322
C 6.19151 23.46411 -0.00725
C 6.21083 22.02051 -0.05697
C 4.98849 21.3856 0.01087
C 4.90914 19.88812 -0.01343
C 6.2734 19.21273 0.00988
C 6.15436 17.77103 0.0276
C 6.12395 27.67931 -0.03113
C 3.63214 6.51586 0.0174
C 2.4439 7.19078 0.0073
C 2.41631 8.57245 0.00402
C 3.62786 30.59845 0.02784
C 2.46529 29.90351 -0.01977
C 2.39263 28.44763 -0.00561
C 3.63311 27.71018 0.00208
C 3.52956 26.27028 0.01707
C 2.40876 25.57703 0.02769
C 2.43525 24.08535 -0.03291
C 3.70719 23.41402 -0.04999
C 3.78786 22.07127 0.04505
C 2.52861 21.273 0.03284
C 2.56388 19.92268 -0.04307
C 3.72507 19.11968 0.03189
C 3.69279 17.71792 0.00031
C 2.488 16.99097 -0.003
C 2.48063 15.5878 0.01402
C 3.64652 14.90721 0.02379
C 3.64058 13.53859 0.00907
C 2.34094 12.77402 0.00643
C 2.38206 11.37619 -0.01509
C 3.65923 10.68398 0.03267
C 3.60027 9.23182 0.02374
C 4.93926 17.0022 0.01305
C 4.89241 15.6243 -0.00077
C 6.10134 15.01039 0.03368
C 6.17188 13.45684 -0.02929
C 7.44048 19.88167 0.00895
C 8.61211 19.24948 0.00685
C 8.68426 17.7905 0.02888
C 7.47413 17.095 -0.00482
C 7.37739 15.64877 -0.01384
C 8.66327 14.99921 0.03693
C 8.6866 13.50244 0.01745
C 7.42392 12.83241 0.00488
C 7.38949 11.39246 -0.01004
C 8.68352 10.70728 -0.02896
C 8.61139 9.22626 -0.00131
C 7.34518 8.59288 -0.01118
C 7.37343 7.19542 -0.014
C 8.60063 6.43065 0.02147
C 8.63788 5.01849 0.00373
C 7.36589 4.35551 -0.00191
C 7.33473 2.93142 0.00438
C 8.60031 2.18539 0.01291
C 8.59715 0.76921 0.00093
C 7.32346 0.16792 0.00057
C 9.7621 32.66839 -0.01634
C 7.42279 21.31361 0.00393
C 10.87886 30.46065 0.02339
C 8.61118 22.21564 0.0288
C 7.35133 24.24026 -0.01362
C 4.92848 12.81305 -0.00966
C 4.89411 11.39167 -0.03337
C 6.14993 10.71884 0.01227
C 6.13754 9.28351 0.00873
C 4.8261 8.56338 -0.00049
C 4.87803 7.19012 0.00848
C 6.13136 6.52323 -0.01303
C 6.0898 5.13494 -0.01378
C 4.84091 4.38263 0.02635
C 4.89233 2.92795 0.0127
C 6.12909 2.25494 0.01396
C 6.13962 0.8109 0.01849
C 4.95456 0.10167 -0.01142
C 7.34889 32.77381 -0.00562
C 8.56109 31.96517 -0.00494
C 8.54869 30.60128 0.00054
C 7.29878 29.85633 0.03007
C 7.40312 28.40237 -0.00095
C 8.56742 27.60443 0.01572
C 8.47258 26.30191 -0.04848
C 7.20058 25.63306 -0.00892
C 8.53232 23.44402 -0.0008
C 20.95567 14.84833 -0.0054
C 21.00091 13.44041 0.00667
C 19.70133 12.80925 0.00143
C 30.74577 6.38051 0.01908
C 30.78045 5.00831 0.07705
C 29.5297 4.27249 0.0103
C 29.53516 2.87464 0.02108
C 30.68749 2.05659 0.00716
C 30.69062 0.68908 0.00307
C 29.49731 34.07579 0.00346
C 31.95672 32.64374 0.01713
C 33.22962 31.93836 -0.01694
C 29.50019 7.15003 0.01518
C 33.21439 30.56374 0.01428
C 31.94562 28.39912 0.0544
C 33.14793 27.71522 0.00026
C 33.15619 26.24909 0.00682
C 31.95203 25.47538 -0.01779
C 31.93302 24.09239 0.03794
C 33.18161 23.39335 0.01927
C 33.22542 22.0061 0.01574
C 31.9808 21.27925 -0.02383
C 31.98952 19.85815 -0.01429
C 32.00711 29.77397 -0.02142
C 29.36892 8.60896 -0.00971
C 30.68337 9.28547 -0.03735
C 30.6475 10.70866 -0.00944
C 29.43203 32.68559 0.01177
C 30.73668 31.88983 0.04266
C 30.76373 30.52404 0.01324
C 29.5086 29.83721 0.0014
C 29.45357 28.32181 0.00924
C 30.71012 27.64953 0.02326
C 30.75893 26.24054 0.00261
C 29.60783 25.51456 0.03265
C 29.51468 24.09336 -0.02049
C 30.63915 23.40102 -0.01854
C 30.71824 21.98512 -0.01415
C 29.51754 21.27364 -0.03039
C 29.44267 19.87207 0.01836
C 30.64995 19.18404 0.03531
C 30.69833 17.79126 -0.00669
C 29.50458 17.08533 0.0101
C 29.36168 15.60734 0.01705
C 30.63846 14.92245 -0.0405
C 30.61022 13.50985 -0.01303
C 29.4422 12.81139 -0.01461
C 29.37672 11.41102 -0.02155
C 33.30546 19.20724 -0.0136
C 33.19131 17.7854 0.00594
C 31.89178 17.07649 -0.02474
C 31.83561 15.66594 0.00369
C 1.25376 21.95956 0.02712
C 0.03269 21.34206 -0.02213
C 0.0553 19.81669 0.01951
C 1.30684 19.16191 -0.01678
C 1.25638 17.69538 0.01223
C 34.43261 17.01935 0.00648
C 34.38795 15.56534 0.02114
C 1.254 14.95533 -0.02957
C 1.13629 13.5057 0.00343
C 34.33046 12.82226 -0.02656
C 34.38269 11.36799 -0.02442
C 1.14364 10.70697 -0.00027
C 1.12692 9.25563 -0.00583
C 34.36165 8.52024 -0.02302
C 34.42286 7.13166 -0.02849
C 1.1599 6.40159 0.02931
C 1.1351 5.01148 0.00628
C 34.41745 4.28639 -0.0345
C 34.40123 2.81142 -0.00931
C 1.16602 2.14672 -0.00939
C 1.15797 0.72401 -0.00468
C 1.22695 23.36484 0.00723
C 26.99944 0.03603 -0.00416
C 34.41271 24.16475 0.03076
C 1.19906 26.27518 -0.00598
C 33.12524 14.92984 0.00455
C 33.10924 13.47146 -0.00644
C 31.86892 12.79225 -0.01839
C 31.91584 11.34799 0.00137
C 33.14975 10.66248 0.00199
C 33.13785 9.22123 0.04381
C 31.92285 8.56161 0.02806
C 31.92604 7.02006 0.01504
C 33.19091 6.39784 -0.00069
C 33.16936 4.96322 0.04926
C 31.97624 4.27888 -0.03838
C 31.9304 2.81466 0.00349
C 33.07163 2.09631 -0.00323
C 33.15184 0.67858 -0.00841
C 31.96296 34.07814 0.0001
C 34.43245 32.55152 -0.02927
C 1.22951 31.96345 -0.01404
C 1.2441 30.51314 0.01027
C 0.02374 29.81178 0.01831
C 0.01089 28.4184 -0.01037
C 1.19803 27.70906 -0.00439
C 0.00297 25.53198 -0.05239
C 28.21622 0.77174 0.01699
C 28.29331 2.21022 0.01799
C 27.10824 2.86295 0.01259
C 23.15187 19.17503 -0.00478
C 23.2419 17.79163 -0.01662
C 22.07469 17.05614 -0.01185
C 22.06264 15.65794 0.01126
C 23.29091 14.906 0.01852
C 23.51446 13.52279 -0.00381
C 22.3327 12.65793 0.03046
C 22.23955 11.19702 0.0296
C 22.09636 8.61028 0.03374
C 22.13588 7.09478 -0.02845
C 23.44538 6.43101 -0.03213
C 23.47317 5.03278 0.02239
C 22.22653 4.26269 0.01153
C 22.13166 2.81595 0.02734
C 23.34065 2.1151 -0.0055
C 23.37463 0.70566 0.01515
C 22.16919 34.01164 -0.00225
C 24.60314 32.62936 0.00071
C 25.81627 31.92205 -0.01107
C 25.80416 30.48845 -0.01586
C 24.60452 29.82666 -0.01971
C 21.88018 19.94095 0.01511
C 24.60637 28.43577 -0.02118
C 22.17157 21.39508 0.00199
C 23.36843 23.42522 -0.01527
C 19.69189 11.37588 -0.017
C 20.87642 10.63567 0.00364
C 20.84605 9.20536 -0.00831
C 19.62348 8.45018 -0.02957
C 19.70843 7.06509 -0.04422
C 20.9479 6.38269 0.00654
C 20.91156 4.93762 -0.00703
C 19.65781 4.22218 -0.04076
C 19.70249 2.85589 -0.00652
C 20.92952 2.074 0.0058
C 20.89713 0.67228 -0.00865
C 19.64685 33.9694 0.00675
C 22.15229 32.67654 -0.00311
C 23.3669 31.97513 0.00742
C 23.31456 30.44731 -0.01594
C 22.05748 29.7457 0.0106
C 22.05818 28.36502 -0.01154
C 23.37403 27.59308 -0.01721
C 23.27654 26.24129 -0.02422
C 22.10169 25.50248 0.01277
C 22.19487 24.08725 0.00096
C 23.33634 21.97637 0.01087
C 3.65107 32.02849 -0.01979
C 25.86365 27.69935 0.00733
C 24.61407 25.5248 0.00768
C 28.32957 26.24007 -0.00218
C 27.09515 25.51625 -0.01654
C 27.12702 24.08709 -0.00037
C 28.30745 23.42925 -0.0032
C 28.29095 21.99433 0.00622
C 26.98828 21.26451 -0.02815
C 26.9501 19.86475 -0.00942
C 28.2167 19.18642 0.00487
C 28.1822 17.74543 0.00826
C 26.98641 16.97562 -0.00294
C 26.9579 15.53766 0.00152
C 28.17362 14.85996 0.01257
C 28.16683 13.48808 0.02316
C 26.99387 12.63448 0.04185
C 28.05575 10.85664 0.00194
C 28.08359 9.36794 -0.00621
C 26.93588 8.44378 0.02611
C 27.07673 7.12396 0.02198
C 28.30454 6.36251 0.01094
C 28.2608 4.93258 0.00235
C 27.08402 4.29887 0.01495
C 28.32032 27.61695 -0.00802
C 25.75256 26.20516 -0.00178
C 27.13846 28.37853 0.00195
C 28.29129 30.56779 0.04306
C 24.57045 24.13803 -0.0276
C 25.84422 23.34696 0.03005
C 25.78638 21.96954 -0.04078
C 24.55207 21.21016 0.02117
C 24.44259 19.82242 0.02737
C 25.72034 19.08056 -0.00498
C 25.73408 17.71746 0.00135
C 24.48107 16.97549 0.03102
C 24.48597 15.57191 0.02555
C 25.71267 14.8013 0.01423
C 25.5946 13.35529 -0.00285
C 24.65223 7.12717 -0.009
C 25.82949 6.35016 -0.01199
C 25.83305 4.90693 -0.00229
C 24.61552 4.26961 -0.00938
C 24.65707 2.81933 -0.0264
C 25.83661 2.15656 -0.01154
C 25.83113 0.71821 0.00684
C 24.61475 0.02164 -0.01052
C 27.03992 32.63737 -0.01679
C 28.27079 31.93188 0.00367
C 27.04865 29.80465 0.00996
C 2.48439 32.72332 -0.00449
