358
Graphene
C 34.38506 34.07915 0.01295
C 11.07714 13.48428 -0.01957
C 9.82142 12.72739 -0.0108
C 9.79524 11.32952 -0.00368
C 11.00053 10.69725 -0.02696
C 10.98497 9.22256 -0.00114
C 9.80414 8.48994 0.00228
C 9.83633 7.06928 0.00798
C 10.96138 6.37494 0.00422
C 11.15306 14.96788 0.02058
C 11.04249 4.94472 0.0351
C 9.8092 2.82492 0.02098
C 11.05241 2.10947 0.01848
C 11.12997 0.70799 -0.00619
C 9.8201 0.05588 -0.02162
C 12.36793 32.62796 0.00889
C 13.47624 31.88938 -0.00481
C 13.42853 30.50304 0.00979
C 12.25364 29.82063 0.01443
C 9.81112 4.23116 -0.03113
C 12.2369 28.34083 0.03505
C 9.90362 15.62201 0.01965
C 11.06287 17.75414 0.00052
C 7.32409 2.95317 0.01363
C 8.61749 2.18251 -0.02162
C 8.62258 0.80193 0.00415
C 7.39017 0.07712 -0.0014
C 9.82369 32.69937 0.02162
C 11.07122 31.99812 0.0076
C 11.0393 30.62202 0.01241
C 9.83303 29.92082 -0.01454
C 9.86973 17.053 -0.03682
C 9.80987 28.48529 0.01945
C 11.00852 26.21289 0.03542
C 9.83798 25.51096 0.02299
C 9.7554 24.17682 0.00244
C 11.01643 23.4784 -0.01717
C 11.10518 22.0038 0.05265
C 9.85945 21.27453 -0.01952
C 9.8768 19.88339 -0.02813
C 11.12423 19.1621 0.00374
C 10.99002 27.70015 0.01416
C 13.48972 27.64036 -0.02815
C 13.50325 26.26422 -0.04147
C 12.2225 25.59338 -0.05302
C 14.70045 32.63405 -0.0054
C 15.90311 31.97337 0.00667
C 15.90687 30.47292 0.00143
C 14.66503 29.75925 -0.017
C 14.68231 28.44034 0.00364
C 15.90939 27.65086 -0.00831
C 15.93824 26.23775 -0.02957
C 14.71436 25.51073 -0.04422
C 12.37451 34.03304 0.00755
C 14.79399 24.08902 0.00654
C 16.02765 21.90067 -0.04076
C 14.79964 21.13804 -0.00652
C 14.85338 19.77107 0.0058
C 15.95178 17.77928 -0.00865
C 14.78668 17.05821 0.00675
C 14.70226 15.64996 -0.00311
C 16.0249 14.95286 0.00742
C 16.06755 13.53064 -0.01594
C 16.03385 23.32988 -0.00703
C 13.54691 0.72567 0.01739
C 13.50294 2.11199 0.03754
C 12.27688 2.81143 -0.03557
C 12.26053 24.14185 0.00213
C 13.55022 23.41456 -0.00066
C 13.57066 21.98197 -0.00289
C 12.383 21.30584 0.00028
C 12.3414 19.89582 -0.02213
C 13.55519 19.19391 0.03698
C 13.55589 17.71439 -0.00109
C 12.35238 17.0075 -0.00491
C 12.31577 15.60687 0.03338
C 13.5636 14.86107 -0.0258
C 13.61323 13.44807 -0.0331
C 12.37911 12.7728 -0.00316
C 12.33458 11.32783 0.02188
C 13.54732 10.63836 -0.01979
C 13.45779 9.28651 0.02691
C 12.21779 8.46767 -0.01581
C 12.14569 7.08021 0.01452
C 13.44522 4.88418 0.04892
C 12.27832 4.227 -0.00111
C 7.31465 4.35707 0.01877
C 8.60253 4.92741 -0.00925
C 8.65257 6.32163 0.00444
C 7.34871 7.11325 -0.01789
C 3.64421 6.4718 -0.01142
C 3.61911 5.04189 -0.00562
C 2.43453 4.30651 -0.00494
C 2.41962 2.90213 0.00054
C 3.63308 2.18794 0.03007
C 3.73517 0.73263 -0.00095
C 2.45163 0.05653 0.01572
C 4.90376 32.67568 -0.04848
C 2.43524 7.18756 0.01849
C 6.14422 31.96016 -0.00892
C 4.93362 29.87141 -0.0008
C 4.89507 28.39247 0.0288
C 6.13901 27.69705 0.00393
C 6.17179 26.2792 0.00895
C 4.90782 25.59034 0.00685
C 4.9445 24.1169 0.02888
C 6.16921 23.49888 -0.00482
C 6.13306 21.96309 -0.01384
C 6.11651 30.58159 -0.01362
C 2.44967 8.56298 0.01396
C 3.67623 9.34376 0.0127
C 3.61686 10.7525 0.02635
C 3.67758 30.51808 0.02322
C 2.45363 29.7962 -0.00725
C 2.44225 28.39467 -0.05697
C 3.61718 27.71209 0.01087
C 3.62576 26.22852 -0.01343
C 2.43235 25.53918 0.00988
C 2.4388 24.15505 0.0276
C 3.71805 23.42531 0.01305
C 3.72133 22.02544 -0.00077
C 2.44256 21.31164 0.03368
C 2.40597 19.8777 -0.02929
C 3.62627 19.2467 -0.00966
C 3.69168 17.71163 -0.03337
C 2.43335 17.00357 0.01227
C 2.51971 15.63666 0.00873
C 3.71882 14.9615 -0.00049
C 3.74028 13.53998 0.00848
C 2.45311 12.78016 -0.01303
C 2.36617 11.39753 -0.01378
C 4.94335 21.31231 0.03693
C 14.90079 12.7105 0.0106
C 4.88412 19.91201 0.01745
C 6.15183 17.74158 -0.01004
C 8.57918 26.34757 0.03592
C 7.40498 25.61577 0.00406
C 7.40516 24.17156 0.00943
C 8.6101 23.41377 0.02841
C 8.65517 21.93577 -0.01111
C 7.37785 21.3166 -0.01275
C 7.38619 19.84402 0.00985
C 8.63486 19.17339 -0.02245
C 8.58662 27.74215 0.00572
C 8.61469 17.73727 -0.00428
C 7.39155 15.68145 -0.01536
C 8.59328 14.90078 -0.02689
C 8.57217 13.4939 -0.01046
C 7.3775 12.83126 -0.00891
C 7.35867 11.32759 0.02819
C 8.5838 10.60662 0.00165
C 8.63172 9.23022 -0.02971
C 7.36323 8.52266 0.02894
C 7.40856 17.06205 0.03101
C 7.34854 28.47828 0.0402
C 7.35695 29.91461 -0.02759
C 8.59146 30.62325 0.03589
C 4.97659 17.03077 -0.02896
C 4.96473 15.62793 -0.00131
C 6.23494 14.92952 -0.01118
C 6.13562 13.55959 -0.014
C 4.94349 12.80496 0.02147
C 4.84772 11.40403 0.00373
C 6.10728 10.6472 -0.00191
C 6.10952 9.20539 0.00438
C 4.80582 8.60915 0.01291
C 4.79753 7.20205 0.00093
C 6.01305 6.47916 0.00057
C 6.10722 5.07429 -0.01634
C 4.90572 4.33569 -0.00334
C 4.88886 2.94659 0.02339
C 6.1385 2.19978 0.01641
C 6.15634 0.73747 -0.00719
C 4.92104 0.0401 0.01364
C 7.37415 32.77044 -0.01062
C 8.6017 31.99482 -0.00033
C 6.14036 19.17184 0.00488
C 14.78744 11.33127 -0.01154
C 14.42327 8.39494 -0.01721
C 15.19501 7.4314 -0.02422
C 31.88828 32.65706 0.01713
C 33.17815 31.98564 -0.01694
C 33.20292 30.55607 0.01428
C 31.9424 29.84412 -0.02142
C 31.94345 28.43546 0.0544
C 33.17853 27.75812 0.00026
C 33.18847 26.28309 0.00682
C 31.98202 25.62609 -0.01779
C 29.51693 0.07811 0.00346
C 31.87196 24.22664 0.03794
C 33.01824 22.00327 0.01574
C 31.86413 21.21077 -0.02383
C 32.00438 19.80962 -0.01429
C 33.18135 19.13467 -0.0136
C 33.20858 17.77441 0.00594
C 31.91179 17.01446 -0.02474
C 31.97575 15.61945 0.00369
C 33.2132 14.88749 0.00455
C 33.04387 23.41256 0.01927
C 30.74 0.73099 0.00307
C 30.71901 2.09655 0.00716
C 29.54042 2.90532 0.02108
C 30.65409 30.58175 -0.01854
C 29.42167 29.82284 -0.01415
C 29.53774 28.37221 -0.03039
C 30.69954 27.76769 0.01836
C 30.77355 26.39594 0.03531
C 29.69188 25.47854 -0.00669
C 30.66488 17.72412 0.0101
C 29.6823 15.79038 0.01705
C 30.76576 14.90812 -0.0405
C 30.78254 13.48831 -0.01303
C 29.4845 12.82672 -0.01461
C 29.50633 11.35336 -0.02155
C 30.68038 10.63369 -0.00944
C 30.77491 9.31629 -0.03735
C 29.54243 8.5786 -0.00971
C 29.57616 7.1212 0.01518
C 30.78304 6.36016 0.01908
C 30.72509 5.00963 0.07705
C 29.49757 4.27648 0.0103
C 33.21055 13.47555 -0.00644
C 30.6685 31.95338 -0.02049
C 31.979 12.76711 -0.01839
C 33.21701 10.64672 0.00199
C 1.22829 19.18048 -0.01678
C 1.23564 17.74132 0.01223
C 34.42637 17.09359 0.00648
C 34.42179 15.6358 0.02114
C 1.237 14.89653 -0.02957
C 1.14468 13.50779 0.00343
C 34.3796 12.76493 -0.02656
C 0.04557 11.33657 -0.02442
C 34.35164 19.9314 0.01951
C 1.2196 10.60396 -0.00027
C 34.4062 8.48031 -0.02302
C 34.3922 7.08714 -0.02849
C 1.18351 6.41631 0.02931
C 1.18647 5.01403 0.00628
C 34.40872 4.29626 -0.0345
C 34.41475 2.85624 -0.00931
C 1.23917 2.12309 -0.00939
C 1.22609 0.69973 -0.00468
C 1.20551 9.19872 -0.00583
C 34.2551 21.37657 -0.02213
C 1.1409 22.07082 0.02712
C 1.22947 23.51456 0.00723
C 33.23129 9.21032 0.04381
C 32.0179 8.46786 0.02806
C 31.95204 7.06373 0.01504
C 33.20617 6.39762 -0.00069
C 33.17159 4.9816 0.04926
C 31.92058 4.22199 -0.03838
C 31.94253 2.84266 0.00349
C 33.24705 2.15109 -0.00323
C 33.19503 0.66512 -0.00841
C 31.94483 34.07992 0.0001
C 34.3911 32.72108 -0.02927
C 1.1919 32.03639 -0.01404
C 1.15926 30.53605 0.01027
C 34.3623 29.79497 0.01831
C 34.4172 28.4593 -0.01037
C 1.20273 27.64922 -0.00439
C 1.21646 26.27067 -0.00598
C 34.40288 25.5238 -0.05239
C 34.34139 24.10095 0.03076
C 31.93532 11.35631 0.00137
C 3.69906 31.94303 -0.00094
C 29.48863 32.72656 0.03265
C 28.31918 0.74643 0.02326
C 20.82625 31.9033 0.00071
C 20.85186 30.48701 -0.01107
C 19.60495 29.88424 -0.01586
C 19.65374 28.37915 -0.01971
C 20.8763 27.59214 -0.02118
C 20.87518 25.99971 0.00733
C 19.60416 25.54413 -0.00178
C 19.55059 2.87046 0.00768
C 19.61552 32.59128 -0.00225
C 20.83353 2.30616 -0.0276
C 19.65471 34.06012 -0.04078
C 22.0333 32.62699 0.02117
C 23.33409 31.92941 0.02737
C 23.34327 30.49384 -0.00498
C 22.03339 29.81734 0.00135
C 22.16307 28.41043 0.03102
C 23.36876 27.71843 0.02555
C 23.33657 26.19099 0.01423
C 20.87637 0.77338 0.03005
C 17.23872 0.01282 0.01515
C 18.45813 0.70651 -0.0055
C 18.36014 2.06535 0.02734
C 15.7687 6.20032 0.01277
C 16.19131 5.02736 0.00096
C 14.67788 4.32759 -0.01527
C 14.69252 2.83148 0.01087
C 15.92176 2.12747 0.00199
C 15.96456 0.70404 0.01511
C 14.7206 0.01892 -0.00478
C 17.15268 32.6743 -0.01662
C 18.37645 31.95041 -0.01185
C 18.37011 30.55842 0.01126
C 17.07677 29.82983 0.01852
C 17.18404 28.36375 -0.00381
C 18.36329 27.64958 0.03046
C 18.42001 26.23101 0.0296
C 17.23111 25.56897 0.03374
C 17.09451 24.27324 -0.02845
C 17.1926 15.61301 -0.03213
C 17.17067 4.13426 0.02239
C 17.1665 2.72918 0.01153
C 22.1362 25.5483 -0.00285
C 27.03823 0.09372 0.00261
C 22.09047 2.82518 -0.009
C 23.27386 0.67069 -0.00229
C 27.06561 28.34057 0.02316
C 28.35241 27.58006 0.04185
C 28.40257 26.10172 0.00194
C 27.17671 25.51874 -0.00621
C 27.23221 15.64893 0.02611
C 28.48621 15.04242 0.02198
C 28.23994 13.47707 0.01094
C 26.86447 12.81816 0.00235
C 27.05522 29.83368 0.01257
C 26.97798 11.33533 0.01495
C 28.38611 9.30383 0.01799
C 27.25593 8.54141 0.01699
C 26.94868 7.20082 -0.00416
C 28.25619 6.41165 0.01177
C 28.25756 4.96057 0.04266
C 26.96292 4.29557 0.01324
C 26.98782 2.8106 0.0014
C 28.25229 2.13938 0.00924
C 28.24554 10.71299 0.01259
C 28.23203 30.54984 0.00152
C 28.23411 32.01641 -0.00294
C 27.01296 32.71333 0.00826
C 22.09633 34.04832 -0.00938
C 24.51711 32.61882 -0.0264
C 25.86441 31.94981 -0.01154
C 25.84614 30.57649 0.00684
C 24.58026 29.81591 -0.01052
C 24.60464 28.3976 -0.01679
C 25.79438 27.61482 0.00367
C 26.01598 26.03786 0.04306
C 24.61244 25.65945 0.00996
C 24.55532 15.21174 0.00195
C 25.94583 15.12539 -0.00802
C 25.81825 13.71451 -0.00218
C 26.03346 6.26196 -0.01654
C 25.62274 4.93963 -0.00037
C 24.3978 4.2121 -0.0032
C 24.44919 2.80282 0.00622
C 25.73464 2.15905 -0.02815
C 25.84849 0.78697 -0.00942
C 24.57925 34.05698 0.00487
C 23.29069 2.04297 -0.01199
C 2.47617 32.64768 -0.02566
