420
Graphene
C 34.42622 34.0197 0.01295
C 13.50826 27.75088 0.00406
C 13.51142 26.25671 0.00943
C 12.26566 25.63764 0.02841
C 12.29853 24.20013 -0.01111
C 13.50509 23.41703 -0.01275
C 13.43868 21.94444 0.00985
C 12.27585 21.29411 -0.02245
C 12.26597 19.86591 -0.00428
C 13.49046 19.15917 0.03101
C 13.51062 17.7093 -0.01536
C 12.29765 28.49252 0.03592
C 12.28499 16.98628 -0.02689
C 13.51602 14.94638 -0.00891
C 13.50798 13.5195 0.02819
C 12.31101 12.75695 0.00165
C 12.33797 11.35911 -0.02971
C 13.55361 10.60418 0.02894
C 13.52436 9.12384 -0.01789
C 12.23321 8.37834 0.00444
C 12.25769 6.98023 -0.00925
C 13.53302 6.30861 0.01877
C 13.46235 4.97279 0.01363
C 12.31068 15.6011 -0.01046
C 12.28827 4.2533 -0.02162
C 12.27582 29.89551 0.00572
C 13.54072 32.03946 -0.02759
C 9.75408 21.38149 0.00488
C 9.79765 19.93216 -0.01004
C 11.06931 19.17556 -0.02896
C 11.06583 17.7912 -0.00131
C 9.80482 17.13196 -0.01118
C 9.78236 15.76406 -0.014
C 11.02633 14.96747 0.02147
C 11.06149 13.50816 0.00373
C 9.86935 12.82429 -0.00191
C 9.94593 11.30165 0.00438
C 13.50807 30.63156 0.0402
C 11.0824 10.57017 0.01291
C 9.84806 8.52576 0.00057
C 9.77987 7.13865 -0.01634
C 11.00289 6.35031 -0.00334
C 11.00593 4.94287 0.02339
C 9.73742 4.27442 0.01641
C 9.82116 2.8213 -0.00719
C 11.10163 2.1554 0.01364
C 11.05315 0.75552 -0.01062
C 9.80853 0.02177 -0.00033
C 12.32456 32.74904 0.03589
C 11.08217 9.18872 0.00093
C 12.34013 2.88108 0.00415
C 13.57369 2.13258 -0.0014
C 13.51036 0.76504 0.02162
C 16.00476 4.98409 0.02098
C 14.71768 4.26656 0.01848
C 14.77058 2.85959 -0.00619
C 15.99941 2.17243 -0.02162
C 15.98111 0.75232 0.00889
C 14.71539 0.08082 -0.00481
C 17.14658 32.62865 0.00979
C 18.37148 31.94775 0.01443
C 18.34856 30.46935 0.03505
C 17.12578 29.77549 -0.02815
C 15.98742 6.40203 -0.03113
C 17.13896 28.40505 -0.04147
C 18.38846 26.24101 0.00213
C 17.1342 25.59737 -0.00066
C 17.13917 24.17675 -0.00289
C 18.37042 23.43163 0.00028
C 18.40782 22.03393 -0.02213
C 17.208 21.27854 0.03698
C 17.21324 19.86488 -0.00109
C 18.46379 19.16513 -0.00491
C 18.44439 17.79796 0.03338
C 17.26689 17.07335 -0.0258
C 18.34249 27.68637 -0.05302
C 14.76278 7.00199 0.0351
C 14.73968 8.46436 0.00422
C 16.00474 9.19066 0.00798
C 12.27078 0.04735 0.0076
C 14.77107 32.73252 0.01241
C 15.98402 31.92502 -0.01454
C 15.94231 30.54026 0.01945
C 14.71453 29.87003 0.01416
C 14.72751 28.443 0.03542
C 15.98453 27.69478 0.02299
C 15.91214 26.29325 0.00244
C 14.6872 25.58667 -0.01717
C 14.7393 24.12279 0.05265
C 15.92789 23.40192 -0.01952
C 15.93046 21.91628 -0.02813
C 14.68261 21.19985 0.00374
C 14.69816 19.80305 0.00052
C 15.97832 19.20074 -0.03682
C 15.99249 17.76058 0.01965
C 14.82108 16.97613 0.02058
C 14.73296 15.6496 -0.01957
C 16.02356 14.90141 -0.0108
C 16.06249 13.41767 -0.00368
C 14.74408 12.69714 -0.02696
C 14.77155 11.33962 -0.00114
C 16.0078 10.58574 0.00228
C 11.07115 22.03702 0.01745
C 17.25478 15.64454 -0.0331
C 11.09989 23.5223 0.03693
C 9.82255 25.61784 -0.00482
C 2.38326 2.88853 -0.00561
C 3.64957 2.17516 0.00208
C 3.64332 0.70111 0.01707
C 2.44045 0.00816 0.02769
C 4.88309 32.64287 -0.03291
C 6.05652 31.9983 -0.04999
C 6.11774 30.60788 0.04505
C 4.91342 29.84494 0.03284
C 4.99889 28.40883 -0.04307
C 6.12509 27.67238 0.03189
C 2.40786 4.32323 -0.01977
C 6.09607 26.25491 0.00031
C 4.86176 24.08658 0.01402
C 6.17151 23.41258 0.02379
C 6.15177 22.02142 0.00907
C 4.90278 21.27013 0.00643
C 4.91256 19.90991 -0.01509
C 6.13283 19.21232 0.03267
C 6.08652 17.79755 0.02374
C 4.87448 17.04684 0.00402
C 4.93562 15.63795 0.0073
C 6.19191 14.97497 0.0174
C 4.89123 25.53776 -0.003
C 6.1228 13.49203 0.03828
C 3.66793 5.06453 0.02784
C 2.33886 7.15913 -0.00449
C 3.6694 30.53092 0.00748
C 2.48206 29.82317 0.00662
C 2.50042 28.39908 -0.0154
C 3.727 27.60288 -0.01299
C 3.64023 26.17987 -0.00407
C 2.38174 25.49417 0.01138
C 2.43398 24.14158 0.03278
C 3.61919 23.42921 -0.00177
C 3.62999 22.05177 0.04421
C 2.40155 21.35189 0.00088
C 3.61816 6.48524 -0.01979
C 2.47806 19.88546 0.00828
C 3.73027 17.7857 0.00558
C 2.45388 17.07615 -0.0059
C 2.48038 15.59116 -0.01386
C 3.67898 14.82074 -0.02805
C 3.66515 13.5 0.00081
C 2.3534 12.71387 0.00245
C 2.36328 11.26377 0.02728
C 3.66296 10.63436 -0.00039
C 3.66603 9.21492 0.0064
C 2.43137 8.54547 0.00211
C 3.72128 19.21549 -0.02375
C 4.91257 12.736 0.01226
C 4.88496 11.32661 -0.00279
C 6.21053 10.65455 0.01996
C 8.67292 14.95904 -0.01303
C 8.66236 13.56449 -0.01378
C 7.42769 12.83606 0.02635
C 7.36264 11.44881 0.0127
C 8.63581 10.68389 0.01396
C 8.63639 9.27297 0.01849
C 7.35585 8.59036 -0.01142
C 7.33039 7.14987 -0.00562
C 8.55646 6.39993 -0.00494
C 8.53491 5.01051 0.00054
C 7.42896 15.66528 0.00848
C 7.31944 4.29012 0.03007
C 8.53328 2.20469 0.01572
C 8.60011 0.76533 -0.04848
C 7.34666 0.08224 -0.00892
C 9.80431 32.76037 -0.01362
C 11.06059 32.07857 -0.0008
C 11.07033 30.57486 0.0288
C 9.81592 29.90378 0.00393
C 9.84156 28.49542 0.00895
C 11.139 27.83579 0.00685
C 11.07998 26.34464 0.02888
C 7.34398 2.92535 -0.00095
C 7.36297 17.10443 -0.00049
C 8.62348 17.87102 0.00873
C 8.63514 19.24292 0.01227
C 6.13012 9.27472 -0.03996
C 4.95271 8.60067 0.01465
C 4.89976 7.17462 -0.00074
C 6.16239 6.43336 -0.00518
C 6.11906 5.0351 0.0086
C 4.89197 4.31605 -0.00643
C 4.8941 2.90556 0.017
C 6.13789 2.2195 -0.03113
C 6.06742 0.8102 -0.02566
C 4.86771 0.02849 -0.00094
C 7.30543 32.71173 0.02322
C 8.60053 32.0171 -0.00725
C 8.53754 30.63295 -0.05697
C 7.3354 29.86032 0.01087
C 7.38032 28.38084 -0.01343
C 8.59225 27.73267 0.00988
C 8.54654 26.30242 0.0276
C 7.34879 25.59858 0.01305
C 7.39151 24.17628 -0.00077
C 8.65001 23.52355 0.03368
C 8.58424 22.01662 -0.02929
C 7.32351 21.33244 -0.00966
C 7.33533 19.94149 -0.03337
C 9.81489 24.22755 -0.01384
C 18.57003 14.94752 -0.00316
C 18.32916 13.56117 0.02188
C 17.3179 12.65406 -0.01979
C 29.49971 11.34857 -0.02155
C 30.71947 10.59977 -0.00944
C 30.72305 9.24088 -0.03735
C 29.46846 8.44401 -0.00971
C 29.493 7.13323 0.01518
C 30.72501 6.38012 0.01908
C 30.7539 4.91853 0.07705
C 29.50623 4.24686 0.0103
C 29.46256 2.91708 0.02108
C 30.67495 2.09271 0.00716
C 29.48099 12.79075 -0.01461
C 30.67031 0.7163 0.00307
C 31.92185 32.64783 0.01713
C 33.20178 31.95121 -0.01694
C 33.23517 30.46092 0.01428
C 31.9742 29.79239 -0.02142
C 32.00298 28.42272 0.0544
C 33.22298 27.67311 0.00026
C 33.21618 26.21868 0.00682
C 31.94963 25.54239 -0.01779
C 31.93157 24.18502 0.03794
C 33.17102 23.43374 0.01927
C 29.41606 0.01914 0.00346
C 33.20014 21.986 0.01574
C 30.76587 13.44239 -0.01303
C 29.49797 15.53404 0.01705
C 28.3311 4.99909 0.00235
C 27.07931 4.2475 0.01495
C 27.05969 2.89227 0.01259
C 28.24191 2.14866 0.01799
C 28.22352 0.73016 0.01699
C 27.01335 0.04313 -0.00416
C 29.43058 32.66103 0.01177
C 30.72522 31.91195 0.04266
C 30.68905 30.54817 0.01324
C 29.50964 29.90482 0.0014
C 30.77124 14.82112 -0.0405
C 29.49566 28.42179 0.00924
C 30.72358 26.23318 0.00261
C 29.56698 25.60968 0.03265
C 29.50867 24.11777 -0.02049
C 30.71221 23.3865 -0.01854
C 30.5921 21.92304 -0.01415
C 29.45737 21.28297 -0.03039
C 29.50699 19.8166 0.01836
C 30.70015 19.16329 0.03531
C 30.76262 17.73141 -0.00669
C 29.52662 17.00107 0.0101
C 30.7783 27.64394 0.02326
C 31.9532 21.24191 -0.02383
C 31.9282 19.84882 -0.01429
C 33.16878 19.18106 -0.0136
C 1.17267 23.43018 0.00723
C 1.18437 21.99865 0.02712
C 34.40628 21.26285 -0.02213
C 34.36618 19.89101 0.01951
C 1.26708 19.2047 -0.01678
C 1.30751 17.7563 0.01223
C 0.04346 17.09287 0.00648
C 0.02399 15.67964 0.02114
C 1.25026 14.94374 -0.02957
C 1.17269 13.50882 0.00343
C 34.37163 24.10816 0.03076
C 34.37457 12.718 -0.02656
C 1.09141 10.58144 -0.00027
C 1.17076 9.17316 -0.00583
C 34.39844 8.45994 -0.02302
C 34.35959 7.04096 -0.02849
C 1.13883 6.335 0.02931
C 1.18513 5.02066 0.00628
C 34.38965 4.27311 -0.0345
C 34.41044 2.8495 -0.00931
C 1.19916 2.12985 -0.00939
C 1.21197 0.65216 -0.00468
C 34.37452 11.35844 -0.02442
C 0.01442 25.53639 -0.05239
C 1.21546 26.23952 -0.00598
C 1.30926 27.61386 -0.00439
C 33.16324 17.78369 0.00594
C 31.9404 17.05485 -0.02474
C 31.9612 15.58085 0.00369
C 33.22046 14.91895 0.00455
C 33.21086 13.49465 -0.00644
C 31.95912 12.80546 -0.01839
C 31.93469 11.31959 0.00137
C 33.16953 10.59898 0.00199
C 33.15744 9.20189 0.04381
C 31.94316 8.48548 0.02806
C 31.92948 7.06412 0.01504
C 33.18965 6.32797 -0.00069
C 33.14806 4.91905 0.04926
C 31.9273 4.15508 -0.03838
C 31.93938 2.74426 0.00349
C 33.14137 2.08174 -0.00323
C 33.16548 0.65967 -0.00841
C 31.98446 0.04362 0.0001
C 0.02275 32.64212 -0.02927
C 1.19634 31.9003 -0.01404
C 1.24868 30.48971 0.01027
C 34.42164 29.76618 0.01831
C 0.04478 28.39204 -0.01037
C 28.22997 6.40456 0.01094
C 26.9107 6.96974 0.02198
C 27.1404 8.3676 0.02611
C 28.19457 9.23315 -0.00621
C 19.64839 15.77971 0.0106
C 19.80185 6.89982 -0.01154
C 21.02577 6.33675 -0.01721
C 21.07568 4.95694 -0.02422
C 19.76949 4.2589 0.01277
C 19.73244 2.76849 0.00096
C 20.96862 2.13794 -0.01527
C 20.84767 0.65807 0.01087
C 19.60207 34.07967 0.00199
C 22.0943 32.62526 0.01511
C 19.68108 17.13105 -0.01594
C 23.36813 31.94892 -0.00478
C 22.0674 29.80106 -0.01185
C 22.14979 28.39908 0.01126
C 23.3006 27.73162 0.01852
C 23.31119 26.27812 -0.00381
C 22.03197 25.55137 0.03046
C 22.02802 24.13714 0.0296
C 23.24456 23.40786 0.03374
C 23.3099 22.02264 -0.02845
C 22.13693 21.24231 -0.03213
C 22.16131 19.91081 0.02239
C 23.34082 30.49266 -0.01662
C 20.95958 17.73558 0.00742
C 20.94249 19.18668 -0.00311
C 19.72834 19.89545 0.00675
C 17.28592 11.19005 0.02691
C 18.40234 9.16086 -0.01581
C 17.24793 8.53375 0.01452
C 17.27535 7.08721 0.04892
C 18.56294 6.47248 -0.00111
C 18.41285 4.96884 -0.03557
C 17.27649 4.327 0.03754
C 17.2836 2.89114 0.01739
C 18.43636 2.16098 0.00755
C 18.40918 0.69406 -0.0054
C 17.19306 34.04756 0.00667
C 19.63038 32.63844 0.00143
C 20.86643 31.89246 -0.017
C 20.81447 30.53623 0.00364
C 19.64779 29.81375 -0.00831
C 19.64173 28.37377 -0.02957
C 20.9124 27.71793 -0.04422
C 20.85953 26.36346 0.00654
C 19.61511 25.58096 -0.00703
C 19.53475 24.20539 -0.04076
C 20.78838 23.51156 -0.00652
C 20.871 22.04824 0.0058
C 19.59844 21.39712 -0.00865
C 23.35323 19.07375 0.01153
C 3.62495 31.98232 0.03345
C 23.33666 17.59851 0.02734
C 23.94112 6.50181 0.01515
C 25.77184 0.7433 -0.01052
C 24.65052 0.02604 -0.01679
C 27.03257 32.72038 0.00367
C 28.30212 31.93344 0.04306
C 28.25857 30.51796 0.00996
C 27.05468 29.8045 0.00195
C 27.05318 28.35144 -0.00802
C 28.28982 27.65102 -0.00218
C 28.28818 26.24452 -0.01654
C 27.01366 25.55317 -0.00037
C 25.82101 2.16237 0.00684
C 26.99642 24.12674 -0.0032
C 28.21991 21.96108 -0.02815
C 26.99067 21.31327 -0.00942
C 27.03234 19.89875 0.00487
C 28.26728 19.12863 0.00826
C 28.27817 17.73837 -0.00294
C 27.05793 17.06404 0.00152
C 27.08935 15.67766 0.01257
C 28.13675 14.80716 0.02316
C 28.37968 13.45461 0.04185
C 28.31213 10.59894 0.00194
C 28.21833 23.39357 0.00622
C 24.59589 2.82494 -0.01154
C 24.57163 4.28591 -0.0264
C 25.89166 4.92178 -0.00938
C 23.44138 5.1648 -0.00225
C 22.30119 4.33826 0.00071
C 22.18072 2.86747 -0.01107
C 23.33392 2.10416 -0.01586
C 23.33296 0.74973 -0.01971
C 22.07593 0.01258 -0.02118
C 24.6176 32.68935 0.00733
C 25.82286 31.90221 -0.00178
C 25.80038 30.50164 0.00768
C 24.63319 29.77492 -0.0276
C 24.62896 28.38125 0.03005
C 25.84802 27.62967 -0.04078
C 25.75181 26.27013 0.02117
C 24.57086 25.53522 0.02737
C 24.56723 24.11021 -0.00498
C 25.7408 23.37458 0.00135
C 25.77093 21.97117 0.03102
C 24.53356 21.37068 0.02555
C 24.51923 19.89752 0.01423
C 25.81212 19.1533 -0.00285
C 25.87151 17.81071 -0.009
C 24.65797 17.17808 -0.01199
C 25.65055 6.31817 -0.00229
C 22.10512 17.03241 -0.0055
C 2.38523 32.64083 -0.00112
