295
Graphene
C 34.38212 0.06424 0.01295
C 7.28136 0.02791 0.00755
C 9.82374 32.57927 -0.0054
C 11.05776 31.89534 0.00667
C 11.0437 30.51098 0.00143
C 9.75859 29.76875 -0.017
C 9.71407 28.37251 0.00364
C 8.53481 0.7807 0.01739
C 11.03595 27.80864 -0.00831
C 9.82042 25.60897 -0.04422
C 9.92558 24.15498 0.00654
C 11.23253 23.42857 -0.00703
C 11.21485 22.05543 -0.04076
C 10.05337 21.13725 -0.00652
C 9.87529 19.65171 0.0058
C 11.00685 26.28098 -0.02957
C 8.51992 2.14173 0.03754
C 7.3535 2.90031 -0.03557
C 7.36659 4.32557 -0.00111
C 7.39993 19.7891 0.00028
C 8.64373 19.00261 -0.02213
C 8.49848 17.50414 0.03698
C 7.18454 17.05327 -0.00109
C 7.2321 15.61766 -0.00491
C 8.54137 15.16596 0.03338
C 8.64155 13.79608 -0.0258
C 7.3216 12.96618 -0.0331
C 7.4405 11.5055 -0.00316
C 8.67336 10.80083 0.02188
C 8.79281 9.29013 -0.01979
C 7.55758 8.51743 0.02691
C 7.42612 7.11781 -0.01581
C 8.6807 6.39645 0.01452
C 8.67654 5.03637 0.04892
C 9.89451 12.99079 -0.00865
C 7.48603 21.20557 -0.00289
C 9.97791 11.59127 0.00675
C 11.20783 9.27478 0.00742
C 12.55018 7.10455 0.03374
C 13.52408 6.18714 -0.02845
C 13.80468 4.88011 -0.03213
C 12.32635 4.22183 0.02239
C 12.32999 2.8247 0.01153
C 13.52732 2.1103 0.02734
C 12.47253 8.54458 0.0296
C 13.48825 0.65797 -0.0055
C 14.68663 32.63575 -0.00225
C 16.02427 31.91865 0.00071
C 16.02478 30.53021 -0.01107
C 14.72114 29.95161 -0.01586
C 14.67354 28.51888 -0.01971
C 15.87956 27.69298 -0.02118
C 12.20596 34.06419 0.01515
C 12.47659 24.26916 0.03046
C 12.26258 25.63161 -0.00381
C 13.44035 26.47108 0.01852
C 9.9688 8.56397 -0.01594
C 9.93267 7.16376 0.0106
C 11.17757 6.39063 -0.01154
C 11.25539 4.99449 -0.01721
C 9.93481 4.34767 -0.02422
C 9.82932 2.80397 0.01277
C 11.03257 2.11637 0.00096
C 10.96865 0.72162 -0.01527
C 9.72033 0.01589 0.01087
C 12.27782 32.64077 0.00199
C 13.47051 32.01538 0.01511
C 13.51261 30.57988 -0.00478
C 12.3303 29.88649 -0.01662
C 12.23347 28.53641 -0.01185
C 13.44359 27.87771 0.01126
C 11.17544 10.8062 -0.00311
C 15.75202 26.13723 0.00733
C 8.69786 21.98034 -0.00066
C 7.5668 24.0581 -0.05302
C 3.69741 10.70351 0.02819
C 3.70227 9.24475 0.00165
C 2.41872 8.57308 -0.02971
C 2.4258 7.14518 0.02894
C 3.68743 6.41286 -0.01789
C 3.68428 4.97996 0.00444
C 2.4449 11.3344 -0.00891
C 2.52107 4.22831 -0.00925
C 3.65889 2.12157 0.01363
C 3.63411 0.72879 -0.02162
C 2.45234 0.03469 0.00415
C 4.85906 32.56324 -0.0014
C 6.10895 31.91332 0.02162
C 6.1214 30.49832 0.0076
C 2.4338 2.84391 0.01877
C 2.3949 12.77273 -0.01046
C 3.62886 13.52379 -0.02689
C 3.57786 14.95145 -0.01536
C 3.64861 30.51922 -0.00033
C 2.3977 29.79909 0.03589
C 2.43471 28.32841 -0.02759
C 3.62718 27.70707 0.0402
C 3.72569 26.28982 0.00572
C 2.46872 25.68399 0.03592
C 2.55324 24.2582 0.00406
C 3.73877 23.47328 0.00943
C 3.69049 22.00143 0.02841
C 2.48531 21.33403 -0.01111
C 2.38999 19.91739 -0.01275
C 3.54913 19.16762 0.00985
C 3.43156 17.70612 -0.02245
C 2.23418 16.9852 -0.00428
C 2.2844 15.52601 0.03101
C 4.87699 29.84803 0.01241
C 8.757 23.40585 0.00213
C 4.90713 28.36665 -0.01454
C 6.16205 26.1426 0.01416
C 6.09626 5.04545 0.00422
C 4.91446 4.31117 0.0351
C 4.90369 2.82967 -0.03113
C 6.1217 2.20818 0.02098
C 6.05875 0.69872 0.01848
C 4.87893 34.07191 -0.00619
C 6.15734 6.48519 0.00798
C 7.29285 32.68936 -0.02162
C 8.62484 30.54492 -0.00481
C 7.34524 29.75111 0.00979
C 7.37473 28.38372 0.01443
C 8.54014 27.60825 0.03505
C 8.59053 26.19187 -0.02815
C 7.38799 25.45478 -0.04147
C 8.57899 31.98207 0.00889
C 4.88276 7.14533 0.00228
C 4.99384 8.60993 -0.00114
C 6.27209 9.24184 -0.02696
C 4.91207 25.52985 0.03542
C 4.97369 24.15965 0.02299
C 6.27684 23.3719 0.00244
C 6.21995 21.94501 -0.01717
C 4.8338 21.26716 0.05265
C 4.84954 19.87818 -0.01952
C 6.13158 19.19301 -0.02813
C 6.02186 17.80693 0.00374
C 4.71499 17.13352 0.00052
C 4.76756 15.63842 -0.03682
C 5.94036 14.89236 0.01965
C 5.9912 13.53041 0.02058
C 4.81765 12.74801 -0.01957
C 4.93677 11.32029 -0.0108
C 6.22054 10.71226 -0.00368
C 6.10168 27.65303 0.01945
C 3.5665 31.91779 -0.01062
C 14.52435 25.59339 -0.00178
C 14.80336 2.76479 -0.0276
C 31.93079 32.72492 -0.01429
C 33.13515 31.95172 -0.0136
C 33.15948 30.61387 0.00594
C 31.90987 29.83005 -0.02474
C 31.85085 28.43447 0.00369
C 33.08667 27.75265 0.00455
C 29.42055 0.02644 -0.02383
C 33.07518 26.35315 -0.00644
C 32.08278 11.77859 0.00137
C 33.10768 10.77268 0.00199
C 33.10282 9.38555 0.04381
C 31.84719 8.73963 0.02806
C 31.89907 7.2194 0.01504
C 33.18748 6.48194 -0.00069
C 32.88141 13.10785 -0.01839
C 30.6765 0.70645 0.01574
C 30.68568 2.13137 0.01927
C 29.41065 2.87411 0.03794
C 26.96827 34.06634 0.01908
C 29.47884 32.57688 0.07705
C 30.73826 32.00829 0.0103
C 30.68291 30.56439 0.02108
C 29.39617 29.79426 0.00716
C 29.41646 28.42464 0.00307
C 30.62814 27.85441 0.00346
C 29.35648 11.63652 0.01713
C 30.67999 11.10921 -0.01694
C 30.66457 9.53587 0.01428
C 29.44009 8.76334 -0.02142
C 29.47378 7.33716 0.0544
C 30.68257 6.5479 0.00026
C 30.66963 5.12736 0.00682
C 29.48881 4.30358 -0.01779
C 33.12359 5.03863 0.04926
C 28.27779 0.72714 0.01518
C 31.8551 4.2961 -0.03838
C 33.18231 2.18264 -0.00323
C 1.07824 14.80619 -0.02957
C 1.09466 13.45256 0.00343
C 34.22208 12.80616 -0.02656
C 34.37885 11.36539 -0.02442
C 1.19775 10.68551 -0.00027
C 1.18662 9.27596 -0.00583
C 34.37706 15.57949 0.02114
C 34.32444 8.55624 -0.02302
C 1.16233 6.51264 0.02931
C 1.19342 5.01404 0.00628
C 34.35282 4.34184 -0.0345
C 34.42615 2.83851 -0.00931
C 1.17983 2.11464 -0.00939
C 1.1533 0.77593 -0.00468
C 34.34445 7.15177 -0.02849
C 34.25043 16.93754 0.00648
C 0.99874 17.69339 0.01223
C 1.12917 19.18157 -0.01678
C 33.1841 0.72581 -0.00841
C 31.92932 0.01441 0.0001
C 34.39466 32.69227 -0.02927
C 1.1678 31.99272 -0.01404
C 1.17579 30.50484 0.01027
C 34.33665 29.87047 0.01831
C 34.3618 28.43054 -0.01037
C 1.16281 27.67221 -0.00439
C 1.14772 26.28035 -0.00598
C 34.34592 25.62642 -0.05239
C 0.03045 24.18723 0.03076
C 1.23627 23.5694 0.00723
C 1.22191 22.10163 0.02712
C 0.09988 21.28613 -0.02213
C 0.04566 20.04381 0.01951
C 31.93011 2.91263 0.00349
C 15.04126 4.12021 0.00768
C 28.17751 2.16907 -0.00971
C 27.07313 4.44606 -0.00944
C 19.5955 29.75884 0.00367
C 19.6187 28.39969 0.04306
C 20.90958 27.70835 0.00996
C 20.79096 26.32211 0.00195
C 19.61723 25.62534 -0.00802
C 19.58212 2.88044 -0.00218
C 20.79604 30.40074 -0.01679
C 20.80561 2.16848 -0.01654
C 19.68896 0.16304 -0.0032
C 22.05679 32.62818 0.00622
C 23.23419 31.89511 -0.02815
C 23.34742 30.44754 -0.00942
C 22.11339 29.70923 0.00487
C 22.23439 28.24468 0.00826
C 20.95279 0.72122 -0.00037
C 20.80954 31.89104 -0.01052
C 19.6283 32.72264 0.00684
C 17.1919 0.00338 -0.01154
C 15.98436 2.01476 0.03005
C 15.95044 0.62417 -0.04078
C 14.69141 34.06457 0.02117
C 17.14927 32.67363 0.02737
C 18.37457 31.96632 -0.00498
C 18.39707 30.55166 0.00135
C 17.22016 29.7078 0.03102
C 17.15166 28.32154 0.02555
C 18.36101 27.65293 0.01423
C 18.28917 26.20952 -0.00285
C 17.03616 25.70833 -0.009
C 16.23834 4.33751 -0.01199
C 17.02207 3.03166 -0.00229
C 18.33302 2.3334 -0.00938
C 18.4315 0.7807 -0.0264
C 23.54202 27.5094 -0.00294
C 27.05158 2.86864 -0.03735
C 23.30511 26.05758 0.00152
C 22.50049 24.33001 0.02316
C 25.79454 0.71483 0.03265
C 24.55608 0.06216 -0.02049
C 26.98314 32.66993 -0.01854
C 28.22456 31.9423 -0.01415
C 28.12344 30.45367 -0.03039
C 26.83919 29.69129 0.01836
C 25.77984 2.16637 0.00261
C 26.42912 28.28632 0.03531
C 28.18988 10.90164 0.0101
C 28.18764 9.36377 0.01705
C 26.91856 8.49351 -0.0405
C 27.09989 7.11345 -0.01303
C 28.32147 6.52684 -0.01461
C 28.33031 5.06755 -0.02155
C 26.71596 11.25317 -0.00669
C 24.602 2.92522 0.02326
C 24.61419 4.37088 0.00924
C 25.79885 5.14736 0.0014
C 23.4095 4.90346 0.04185
C 22.1963 4.24498 0.00194
C 22.13376 2.88787 -0.00621
C 23.38444 2.19926 0.02611
C 23.4076 0.77827 0.02198
C 22.1596 34.05352 0.01094
C 24.4533 32.65337 0.00235
C 25.79143 31.93796 0.01495
C 25.74771 30.50873 0.01259
C 24.52904 29.7832 0.01799
C 24.87111 28.39185 0.01699
C 25.71969 10.21423 -0.00416
C 25.53129 8.82242 0.01177
C 24.7298 7.60203 0.04266
C 25.77847 6.54436 0.01324
C 21.99184 25.65153 0.01257
C 2.40919 32.70632 0.01364
