394
Graphene
C 34.39077 0.00045 0.01295
C 12.3228 25.61401 -0.00925
C 12.26387 24.16555 0.01877
C 13.51027 23.49182 0.01363
C 13.56328 22.10254 -0.02162
C 12.35993 21.3672 0.00415
C 12.30398 19.94804 -0.0014
C 13.49252 19.1346 0.02162
C 13.42312 17.69808 0.0076
C 12.25548 16.99131 0.01241
C 13.59547 26.27105 0.00444
C 12.36746 15.56667 -0.01454
C 13.42374 6.42459 0.01416
C 13.6083 5.02787 0.03542
C 12.33408 4.32273 0.02299
C 12.30022 2.84465 0.00244
C 13.51396 2.06088 -0.01717
C 13.44024 0.63848 0.05265
C 12.27302 34.02277 -0.01952
C 14.81943 32.62592 -0.02813
C 16.06826 31.88558 0.00374
C 12.42676 7.09053 0.01945
C 13.5095 27.69596 -0.01789
C 12.30502 28.51481 0.02894
C 12.25429 29.8991 -0.02971
C 11.06785 19.25256 -0.00033
C 11.07723 17.79387 0.03589
C 9.85447 17.09155 -0.02759
C 9.82787 15.63409 0.0402
C 11.19332 14.88321 0.00572
C 11.02598 13.5489 0.03592
C 9.90964 12.78615 0.00406
C 9.7435 11.38251 0.00943
C 10.95033 9.30661 0.02841
C 9.81684 8.61813 -0.01111
C 9.8473 7.04339 -0.01275
C 11.12076 6.43774 0.00985
C 11.17318 4.96697 -0.02245
C 9.9169 4.25534 -0.00428
C 9.83096 2.83993 0.03101
C 11.08398 2.13065 -0.01536
C 11.02412 0.69463 -0.02689
C 9.77862 34.05585 -0.01046
C 12.35244 32.62244 -0.00891
C 13.59291 31.93859 0.02819
C 13.50067 30.55695 0.00165
C 16.04756 30.49975 0.00052
C 9.7609 19.8492 -0.01062
C 14.72625 29.84407 -0.03682
C 15.98643 27.77536 0.02058
C 18.40626 23.44265 0.00028
C 18.44706 21.98274 -0.02213
C 17.22644 21.27549 0.03698
C 17.18012 19.8865 -0.00109
C 18.42163 19.1983 -0.00491
C 18.5005 17.75658 0.03338
C 17.18124 17.02343 -0.0258
C 17.34159 15.57742 -0.0331
C 18.4667 15.04404 -0.00316
C 17.20404 24.04718 -0.00289
C 17.13532 6.90607 0.02188
C 18.35203 4.95302 0.02691
C 17.14052 4.20777 -0.01581
C 17.21047 2.76752 0.01452
C 18.45103 2.12668 0.04892
C 18.35694 0.65801 -0.00111
C 17.18235 34.05186 -0.03557
C 19.53713 32.72324 0.03754
C 19.53092 24.27054 0.01739
C 20.87266 23.66019 0.00755
C 18.41914 6.43241 -0.01979
C 17.3126 25.54652 -0.00066
C 18.46737 26.18904 0.00213
C 17.14039 28.3528 -0.05302
C 16.04701 26.24507 -0.01957
C 14.81454 25.56494 -0.0108
C 14.77642 24.1405 -0.00368
C 16.00401 23.40244 -0.02696
C 15.99317 21.94308 -0.00114
C 14.75568 21.2682 0.00228
C 14.70147 19.85558 0.00798
C 15.96188 19.13022 0.00422
C 15.89538 17.72029 0.0351
C 14.67083 17.10224 -0.03113
C 16.08251 6.37923 0.02098
C 15.93087 5.01448 0.01848
C 14.75067 4.21421 -0.00619
C 14.76175 2.79316 -0.02162
C 16.00477 2.03118 0.00889
C 15.9093 0.63153 -0.00481
C 14.7479 33.96269 0.00979
C 17.1702 32.60888 0.01443
C 18.50971 31.88777 0.03505
C 18.52719 30.52812 -0.02815
C 17.35936 29.73847 -0.04147
C 14.69894 28.42239 0.01965
C 9.84465 21.36494 0.01364
C 11.05291 22.08084 -0.00719
C 10.96822 23.5107 0.01641
C 4.9168 32.65457 0.01996
C 6.10521 31.93454 -0.03996
C 6.12085 30.49959 0.01465
C 4.91981 29.79431 -0.00074
C 4.87507 28.39496 -0.00518
C 6.08643 27.74335 0.0086
C 6.21748 26.28767 -0.00643
C 4.99485 25.54454 0.017
C 4.89811 24.12153 -0.03113
C 2.4982 33.98203 -0.00279
C 6.12082 23.43444 -0.02566
C 4.88518 21.39382 0.02322
C 4.88761 20.00506 -0.00725
C 6.06466 19.15874 -0.05697
C 6.06857 17.73156 0.01087
C 4.86702 17.01914 -0.01343
C 4.91421 15.58544 0.00988
C 6.21234 14.92991 0.0276
C 6.16933 13.5173 0.01305
C 4.94099 12.69724 -0.00077
C 6.08887 22.05956 -0.00094
C 3.65252 0.78608 0.01226
C 3.69147 2.19751 0.03828
C 2.48596 2.93698 0.0174
C 3.6693 30.5283 -0.00561
C 2.44888 29.82044 0.00208
C 2.49678 28.4069 0.01707
C 3.7143 27.58825 0.02769
C 3.65333 26.21888 -0.03291
C 2.39035 25.63028 -0.04999
C 2.37018 24.17882 0.04505
C 3.64658 23.52969 0.03284
C 3.62147 22.1174 -0.04307
C 2.41314 21.31338 0.03189
C 2.42949 19.81205 0.00031
C 3.73052 19.20456 -0.003
C 3.7001 17.79939 0.01402
C 2.44829 17.05581 0.02379
C 2.40244 15.60107 0.00907
C 3.65493 14.85075 0.00643
C 3.7386 13.43857 -0.01509
C 2.44806 12.71383 0.03267
C 2.51393 11.364 0.02374
C 3.69595 5.03312 0.00402
C 2.46794 4.37495 0.0073
C 4.91699 11.26857 0.03368
C 6.03871 10.5385 -0.02929
C 6.22536 6.33576 -0.00966
C 6.20067 4.97751 -0.03337
C 7.32876 11.29091 0.02888
C 8.64219 10.6678 -0.00482
C 8.44637 9.22659 -0.01384
C 7.30118 8.5805 0.03693
C 7.28541 7.17099 0.01745
C 8.63749 6.40429 0.00488
C 8.68967 4.97767 -0.01004
C 7.42932 4.2698 -0.02896
C 7.35185 2.83055 -0.00131
C 8.54226 2.17469 -0.01118
C 8.55553 0.73912 -0.014
C 7.32809 0.04896 0.02147
C 9.81508 32.67097 0.00373
C 11.10206 31.96795 -0.00191
C 10.95718 30.64421 0.00438
C 9.84509 29.85224 0.01291
C 9.80897 28.4757 0.00093
C 11.09451 27.77683 0.00057
C 11.16128 26.34372 -0.01634
C 9.86617 25.68995 -0.00334
C 9.76495 24.22267 0.02339
C 7.30622 12.72 0.00685
C 20.88987 22.0948 -0.0054
C 8.50284 13.51942 0.00895
C 7.36947 15.72935 0.0288
C 4.95311 4.31873 0.01227
C 4.87003 2.86877 0.00873
C 6.13362 2.20015 -0.00049
C 6.14202 0.8029 0.00848
C 4.85055 0.05378 -0.01303
C 7.31156 32.64716 -0.01378
C 8.54748 32.00211 0.02635
C 8.563 30.57833 0.0127
C 7.34948 29.87769 0.01396
C 7.34785 28.4199 0.01849
C 8.57017 27.77498 -0.01142
C 8.65299 26.37474 -0.00562
C 7.43548 25.64735 -0.00494
C 7.33769 24.13193 0.00054
C 8.58746 23.47084 0.03007
C 8.58167 22.03993 -0.00095
C 7.35 21.30488 0.01572
C 7.31344 19.91195 -0.04848
C 8.49671 19.22233 -0.00892
C 8.62008 17.79555 -0.01362
C 7.33181 17.07403 -0.0008
C 8.57015 14.93401 0.00393
C 19.70708 21.31849 0.00667
C 19.63315 19.90968 0.00143
C 20.8853 19.19958 -0.017
C 30.81143 6.40651 0.01908
C 30.75047 5.03014 0.07705
C 29.59911 4.31181 0.0103
C 29.58394 2.9024 0.02108
C 30.75604 2.14236 0.00716
C 30.64821 0.72602 0.00307
C 29.44591 0.01529 0.00346
C 31.99335 32.62123 0.01713
C 33.23676 31.95168 -0.01694
C 29.50298 7.04348 0.01518
C 33.20715 30.49832 0.01428
C 31.95993 28.42176 0.0544
C 33.2124 27.69075 0.00026
C 33.16942 26.29764 0.00682
C 31.97909 25.54922 -0.01779
C 31.99041 24.08438 0.03794
C 33.19153 23.4624 0.01927
C 33.23479 22.02845 0.01574
C 31.99692 21.25728 -0.02383
C 31.98042 19.83404 -0.01429
C 31.92689 29.86586 -0.02142
C 29.47996 8.4705 -0.00971
C 30.68071 9.16586 -0.03735
C 30.72743 10.69292 -0.00944
C 29.4858 32.66808 0.01177
C 30.68887 31.95481 0.04266
C 30.68246 30.54963 0.01324
C 29.44924 29.81613 0.0014
C 29.50197 28.40757 0.00924
C 30.74499 27.69022 0.02326
C 30.76886 26.23582 0.00261
C 29.53388 25.55411 0.03265
C 29.56568 24.17141 -0.02049
C 30.79803 23.37173 -0.01854
C 30.83546 21.90661 -0.01415
C 29.5207 21.23902 -0.03039
C 29.45258 19.84728 0.01836
C 30.74598 19.16172 0.03531
C 30.75346 17.74628 -0.00669
C 29.47984 17.09627 0.0101
C 29.45858 15.65985 0.01705
C 30.67961 14.95751 -0.0405
C 30.74419 13.5206 -0.01303
C 29.54529 12.80779 -0.01461
C 29.50938 11.39791 -0.02155
C 33.25081 19.23145 -0.0136
C 33.25404 17.76445 0.00594
C 32.01751 17.01504 -0.02474
C 31.96363 15.64362 0.00369
C 1.24877 22.0996 0.02712
C 0.07163 21.34529 -0.02213
C 0.04057 19.89428 0.01951
C 1.16728 19.09642 -0.01678
C 1.17981 17.6905 0.01223
C 34.41263 17.02569 0.00648
C 34.39821 15.61564 0.02114
C 1.21338 14.87684 -0.02957
C 1.18181 13.40622 0.00343
C 34.38853 12.76829 -0.02656
C 34.40201 11.28581 -0.02442
C 1.33258 10.60584 -0.00027
C 1.15106 9.23818 -0.00583
C 0.01441 8.5531 -0.02302
C 0.02145 7.10542 -0.02849
C 1.1611 6.35003 0.02931
C 1.17406 4.99146 0.00628
C 34.36776 4.25 -0.0345
C 0.02286 2.8054 -0.00931
C 1.24633 2.12716 -0.00939
C 1.20486 0.70647 -0.00468
C 1.18432 23.51039 0.00723
C 27.00502 0.00178 -0.00416
C 34.41718 24.21904 0.03076
C 1.16785 26.30797 -0.00598
C 33.20475 14.92254 0.00455
C 33.17927 13.49192 -0.00644
C 32.00879 12.79587 -0.01839
C 31.98285 11.39079 0.00137
C 33.19406 10.62553 0.00199
C 33.18684 9.22275 0.04381
C 31.89899 8.59583 0.02806
C 32.0037 7.13069 0.01504
C 33.19069 6.37535 -0.00069
C 33.11371 4.93995 0.04926
C 31.94155 4.24257 -0.03838
C 31.97189 2.79581 0.00349
C 33.2177 2.10705 -0.00323
C 33.15755 0.7033 -0.00841
C 31.8852 34.01523 0.0001
C 0.02767 32.67242 -0.02927
C 1.22102 31.93403 -0.01404
C 1.20356 30.50139 0.01027
C 0.00448 29.79602 0.01831
C 0.05972 28.3495 -0.01037
C 1.29791 27.74167 -0.00439
C 34.37558 25.63259 -0.05239
C 3.75153 31.94162 -0.01977
C 28.24948 0.78694 0.01699
C 27.09098 2.82604 0.01259
C 22.10692 15.60851 -0.01662
C 23.35389 14.93495 -0.01185
C 23.31127 13.47291 0.01126
C 22.13046 12.80773 0.01852
C 22.1558 11.39419 -0.00381
C 23.35458 10.66772 0.03046
C 23.37814 9.19524 0.0296
C 22.1767 8.49942 0.03374
C 22.12939 7.0922 -0.02845
C 22.11842 17.01081 -0.00478
C 23.34169 6.31698 -0.03213
C 22.13662 4.20279 0.01153
C 22.22579 2.82021 0.02734
C 23.40968 2.08231 -0.0055
C 23.40337 0.61332 0.01515
C 22.14982 0.02388 -0.00225
C 24.80211 32.61461 0.00071
C 25.69346 31.91994 -0.01107
C 24.6243 24.02824 -0.01586
C 25.85873 23.49122 -0.01971
C 23.35091 4.84039 0.02239
C 23.32131 17.70631 0.01511
C 23.28367 19.10013 0.00199
C 22.09457 19.9025 0.01087
C 20.85585 17.73322 0.00364
C 19.68946 17.02879 -0.00831
C 19.67816 15.59226 -0.02957
C 20.91546 14.9204 -0.04422
C 20.83243 13.45179 0.00654
C 19.79043 12.69094 -0.00703
C 20.90861 10.69547 -0.04076
C 20.84486 9.27708 -0.00652
C 19.74855 8.50246 0.0058
C 19.70116 7.12467 -0.00865
C 20.94751 6.36367 0.00675
C 20.94902 4.9654 -0.00311
C 19.63491 4.31603 0.00742
C 19.64257 2.94523 -0.01594
C 20.88173 2.17716 0.0106
C 20.92578 0.67609 -0.01154
C 19.655 34.05779 -0.01721
C 22.10249 24.14771 -0.02422
C 23.32079 23.61732 0.01277
C 23.45946 22.01121 0.00096
C 22.15537 21.31064 -0.01527
C 25.87766 22.02864 -0.02118
C 24.64431 21.24003 0.00733
C 24.52142 19.84304 -0.00178
C 25.72954 19.13811 0.00768
C 27.05999 25.57908 -0.00218
C 27.13129 24.20894 -0.01654
C 28.40241 23.42408 -0.00037
C 28.31501 21.96018 -0.0032
C 27.08206 21.31689 0.00622
C 26.9582 19.9293 -0.02815
C 28.14274 19.18002 -0.00942
C 28.18553 17.77558 0.00487
C 27.00847 17.00672 0.00826
C 26.99771 15.59401 -0.00294
C 28.25463 14.91073 0.00152
C 28.21579 13.45016 0.01257
C 27.05524 12.75922 0.02316
C 26.96187 11.35162 0.04185
C 28.25728 10.67375 0.00194
C 28.27158 9.20768 -0.00621
C 27.034 8.49478 0.02611
C 27.05294 7.04098 0.02198
C 28.2795 6.35584 0.01094
C 28.28482 4.89534 0.00235
C 27.0641 4.23132 0.01495
C 28.23568 26.27206 -0.00802
C 28.28065 2.17619 0.01799
C 28.23438 27.70109 0.00195
C 27.00394 29.7896 0.04306
C 25.80064 17.73274 -0.0276
C 24.60398 17.01202 0.03005
C 24.60701 15.65108 -0.04078
C 25.80396 14.95248 0.02117
C 25.82425 13.52393 0.02737
C 24.59577 12.78166 -0.00498
C 24.57007 11.33662 0.00135
C 25.75644 10.64578 0.03102
C 25.81873 9.19103 0.02555
C 24.57237 8.46557 0.01423
C 24.51308 7.06525 -0.00285
C 25.78545 6.34836 -0.009
C 25.79905 4.95607 -0.01199
C 24.65193 4.17856 -0.00229
C 24.58614 2.78843 -0.00938
C 25.85037 2.16181 -0.0264
C 25.83878 0.71851 -0.01154
C 24.66622 34.05896 0.00684
C 26.98957 32.62938 -0.01052
C 28.17474 31.9372 -0.01679
C 28.19716 30.50018 0.00367
C 27.14389 28.49415 0.00996
C 2.49921 32.59012 0.02784
