372
Graphene
C 34.31401 0.01423 0.01295
C 11.185 9.23256 0.00244
C 9.98977 8.58621 -0.01717
C 9.9692 7.17692 0.05265
C 11.19551 6.47146 -0.01952
C 11.0489 4.98931 -0.02813
C 9.85721 4.26854 0.00374
C 9.77207 2.84283 0.00052
C 10.94988 2.04511 -0.03682
C 10.99034 0.69287 0.01965
C 9.73204 34.0185 0.02058
C 12.36266 32.65466 -0.01957
C 13.62707 31.9685 -0.0108
C 13.57645 30.55836 -0.00368
C 12.30133 29.89288 -0.02696
C 12.31621 28.41529 -0.00114
C 13.40581 27.67342 0.00228
C 13.43731 26.28199 0.00798
C 12.28274 25.53198 0.00422
C 12.25049 24.10932 0.0351
C 11.09758 10.62506 0.02299
C 13.58524 23.44702 -0.03113
C 9.80314 11.33201 0.03542
C 11.06593 13.44868 0.01945
C 7.30153 0.03052 -0.02689
C 9.81262 32.61881 -0.01046
C 11.13243 31.98195 -0.00891
C 11.11332 30.60154 0.02819
C 9.87248 29.8832 0.00165
C 9.88697 28.46858 -0.02971
C 11.09059 27.74381 0.02894
C 11.08578 26.29699 -0.01789
C 9.8353 25.61784 0.00444
C 9.85397 24.22951 -0.00925
C 11.03646 23.3985 0.01877
C 11.1021 22.08957 0.01363
C 9.91015 21.29929 -0.02162
C 9.93432 19.85792 0.00415
C 11.12411 19.1392 -0.0014
C 11.15576 17.74102 0.02162
C 9.84675 16.98909 0.0076
C 9.74998 15.63967 0.01241
C 11.08744 14.92917 -0.01454
C 9.78539 12.70777 0.01416
C 13.56898 22.07574 0.02098
C 12.38505 21.33371 0.01848
C 12.38167 19.88116 -0.00619
C 14.70011 25.52647 -0.01581
C 14.80913 24.16904 0.01452
C 15.99325 23.46765 0.04892
C 16.0386 22.00015 -0.00111
C 14.75616 21.23904 -0.03557
C 14.78981 19.88638 0.03754
C 16.07077 19.16689 0.01739
C 16.03456 17.75314 0.00755
C 14.81563 17.06302 -0.0054
C 14.79311 15.59307 0.00667
C 16.05529 14.87705 0.00143
C 16.05949 13.43097 -0.017
C 14.81343 12.77137 0.00364
C 14.68103 11.34869 -0.00831
C 15.913 10.5459 -0.02957
C 15.80412 9.1527 -0.04422
C 14.54709 8.44058 0.00654
C 14.552 7.01954 -0.00703
C 15.93779 6.39089 -0.04076
C 15.93602 26.30153 0.02691
C 15.92671 27.68452 -0.01979
C 14.69338 28.34004 0.02188
C 14.74388 29.77817 -0.00316
C 13.5749 19.11704 -0.02162
C 13.54908 17.74278 0.00889
C 12.33049 17.02261 -0.00481
C 12.29798 15.59437 0.00979
C 13.60027 14.92624 0.01443
C 13.57292 13.5186 0.03505
C 12.32409 12.79502 -0.02815
C 12.2432 11.38828 -0.04147
C 13.47921 10.67394 -0.05302
C 8.51454 0.71509 -0.01536
C 13.52096 9.22669 0.00213
C 13.48419 4.91475 -0.00289
C 12.28409 4.17416 0.00028
C 12.18142 2.73503 -0.02213
C 13.47245 2.19132 0.03698
C 13.5356 0.71627 -0.00109
C 12.30301 34.05247 -0.00491
C 14.78753 32.63099 0.03338
C 16.01398 31.87458 -0.0258
C 16.01293 30.45782 -0.0331
C 13.35808 6.32241 -0.00066
C 15.97283 5.01744 -0.00652
C 8.54636 2.15884 0.03101
C 7.39776 4.34556 -0.02245
C 3.63599 6.42086 0.03368
C 3.65195 4.95124 -0.02929
C 2.38362 4.27733 -0.00966
C 2.38059 2.80434 -0.03337
C 3.63216 2.14579 0.01227
C 3.57594 0.73499 0.00873
C 2.39974 34.06587 -0.00049
C 4.80627 32.74057 0.00848
C 6.06497 32.01621 -0.01303
C 6.10301 30.61211 -0.01378
C 4.90753 29.82129 0.02635
C 4.90555 28.40847 0.0127
C 6.11525 27.75989 0.01396
C 6.16446 26.28263 0.01849
C 4.8798 25.66059 -0.01142
C 4.85273 24.24756 -0.00562
C 6.16511 23.51037 -0.00494
C 6.13451 22.1121 0.00054
C 4.93526 21.35021 0.03007
C 2.43654 7.10601 -0.00077
C 4.905 19.85982 -0.00095
C 2.47449 8.56975 0.01305
C 3.6917 10.73493 0.00988
C 3.66509 30.53762 0.03828
C 2.38001 29.88357 0.01226
C 2.39192 28.49776 -0.00279
C 3.74434 27.74221 0.01996
C 3.67631 26.28022 -0.03996
C 2.46292 25.58386 0.01465
C 2.39804 24.15499 -0.00074
C 3.68981 23.43592 -0.00518
C 3.68433 22.0159 0.0086
C 2.49375 21.27579 -0.00643
C 2.36435 19.89097 0.017
C 3.67229 19.21003 -0.03113
C 3.6376 17.73891 -0.02566
C 2.43905 17.05409 -0.00094
C 2.46457 15.691 0.02322
C 3.64652 14.93543 -0.00725
C 3.66751 13.62295 -0.05697
C 2.44768 12.83902 0.01087
C 2.46823 11.37033 -0.01343
C 3.70813 9.26253 0.0276
C 6.1089 19.1475 0.01572
C 6.16403 17.77862 -0.04848
C 4.87974 17.08435 -0.00892
C 7.37454 24.17535 -0.01634
C 8.64051 23.49255 -0.00334
C 8.65226 21.99924 0.02339
C 7.35667 21.30575 0.01641
C 7.39066 19.90998 -0.00719
C 8.62716 19.20206 0.01364
C 8.58175 17.77318 -0.01062
C 7.37608 16.98905 -0.00033
C 7.4035 15.68546 0.03589
C 8.56986 14.84215 -0.02759
C 8.58915 13.3962 0.0402
C 7.3364 12.81057 0.00572
C 7.33674 11.39552 0.03592
C 8.58486 10.66715 0.00406
C 8.62939 9.25669 0.00943
C 7.33235 8.64685 0.02841
C 7.38577 7.08461 -0.01111
C 8.68518 6.44728 -0.01275
C 8.64979 5.0035 0.00985
C 7.41548 25.59072 0.00057
C 8.60071 26.38771 0.00093
C 8.56282 27.7733 0.01291
C 7.37217 28.48596 0.00438
C 4.89771 15.625 -0.01362
C 6.10197 14.9653 -0.0008
C 6.11758 13.49789 0.0288
C 4.90869 12.85919 0.00393
C 4.91437 11.43375 0.00895
C 6.15778 10.6679 0.00685
C 6.14764 9.28238 0.02888
C 4.93977 8.59268 -0.00482
C 4.93078 7.17843 -0.01384
C 7.30775 2.86158 -0.00428
C 6.11656 6.45853 0.03693
C 4.87718 4.36738 0.00488
C 4.85309 2.90863 -0.01004
C 6.08293 2.19891 -0.02896
C 5.99421 0.82176 -0.00131
C 4.83114 0.08485 -0.01118
C 7.32026 32.71064 -0.014
C 8.55697 31.98393 0.02147
C 8.58548 30.57325 0.00373
C 7.36952 29.86419 -0.00191
C 6.17647 5.0012 0.01745
C 14.6771 4.23184 0.0058
C 14.6952 2.90027 -0.00865
C 15.95634 2.12998 0.00675
C 30.80844 17.66476 0.00716
C 29.48066 17.00182 0.00307
C 29.55597 15.64483 0.00346
C 30.6708 14.93768 0.01713
C 29.30804 34.01368 -0.01694
C 31.89046 32.61077 0.01428
C 33.14926 31.97754 -0.02142
C 33.22539 30.60071 0.0544
C 31.92597 29.77377 0.00026
C 31.90077 28.41199 0.00682
C 33.1743 27.7044 -0.01779
C 33.22449 26.30139 0.03794
C 31.91523 25.66433 0.01927
C 31.9385 24.19662 0.01574
C 33.18811 23.45004 -0.02383
C 33.19179 22.0053 -0.01429
C 31.96021 21.29059 -0.0136
C 31.9979 19.81307 0.00594
C 33.17265 19.1773 -0.02474
C 30.75763 19.16112 0.02108
C 33.16636 17.75021 0.00369
C 29.50005 19.83843 0.0103
C 30.71835 22.05264 0.01908
C 27.08107 24.13076 0.00261
C 28.31789 23.47407 0.03265
C 28.24733 22.05332 -0.02049
C 27.06724 21.29523 -0.01854
C 27.04135 19.80216 -0.01415
C 28.30691 19.14685 -0.03039
C 28.26907 17.69328 0.01836
C 27.06586 17.14831 0.03531
C 27.18971 34.03188 -0.00669
C 29.43133 32.6823 0.0101
C 30.68528 31.84761 0.01705
C 30.62918 30.48295 -0.0405
C 29.43268 29.81438 -0.01303
C 29.42188 28.36116 -0.01461
C 30.63879 27.71168 -0.02155
C 30.65692 26.2492 -0.00944
C 29.4961 25.46335 -0.03735
C 29.5071 24.15084 -0.00971
C 30.74764 23.49965 0.01518
C 29.49683 21.30127 0.07705
C 31.92529 16.92826 0.00455
C 31.89417 15.50136 -0.00644
C 33.12607 14.84795 -0.01839
C 34.40386 19.8903 0.01951
C 1.20424 19.15499 -0.01678
C 1.21454 17.74782 0.01223
C 34.42628 17.05257 0.00648
C 34.41679 15.60364 0.02114
C 1.24239 14.95399 -0.02957
C 1.25756 13.5942 0.00343
C 34.38401 12.82037 -0.02656
C 0.03043 11.43457 -0.02442
C 1.26072 10.7084 -0.00027
C 1.28433 9.26509 -0.00583
C 34.38983 8.54157 -0.02302
C 34.32542 7.1183 -0.02849
C 1.20194 6.42381 0.02931
C 1.19981 4.97851 0.00628
C 34.39161 4.292 -0.0345
C 34.4331 2.85719 -0.00931
C 1.22043 2.10957 -0.00939
C 1.20588 0.66343 -0.00468
C 0.03106 21.28558 -0.02213
C 1.21802 21.9927 0.02712
C 1.23794 23.43858 0.00723
C 34.42926 24.11521 0.03076
C 33.12145 13.48232 0.00137
C 32.01202 12.75607 0.00199
C 31.93118 11.39584 0.04381
C 33.1374 10.67235 0.02806
C 33.19484 9.33027 0.01504
C 32.1469 8.55711 -0.00069
C 32.05296 7.188 0.04926
C 33.03892 6.27217 -0.03838
C 33.11474 4.86172 0.00349
C 27.03261 29.83332 0.02326
C 33.33188 2.07691 -0.00323
C 31.8703 33.99688 0.0001
C 34.37876 32.67546 -0.02927
C 1.16874 31.99716 -0.01404
C 1.20092 30.53882 0.01027
C 34.42237 29.88606 0.01831
C 34.40222 28.49776 -0.01037
C 1.19182 27.70533 -0.00439
C 1.21974 26.33176 -0.00598
C 0.00389 25.57212 -0.05239
C 33.00326 0.7584 -0.00841
C 28.23565 30.5566 0.00924
C 28.2153 31.94801 0.0014
C 27.02932 32.65795 0.01324
C 18.27283 6.38039 0.02239
C 18.3766 4.99127 0.01153
C 17.21532 4.26259 0.02734
C 17.19646 2.79896 -0.0055
C 18.35094 2.02675 0.01515
C 18.42233 0.65528 -0.00225
C 17.13354 34.06406 0.00071
C 19.54382 32.5672 -0.01107
C 20.8267 31.92279 -0.01586
C 20.82342 30.4816 -0.01971
C 19.58507 29.73456 -0.02118
C 19.63969 28.32941 0.00733
C 20.87957 27.57952 -0.00178
C 20.91256 26.16661 0.00768
C 19.68507 25.45333 -0.0276
C 19.67502 23.9899 0.03005
C 20.94784 23.34117 -0.04078
C 20.92635 21.96606 0.02117
C 19.68905 21.21166 0.02737
C 17.32149 7.17102 -0.03213
C 17.02941 8.49773 -0.02845
C 16.98602 11.29697 0.03374
C 17.16033 12.67317 0.0296
C 15.94299 0.68187 -0.00311
C 14.69882 34.07248 0.00742
C 17.11359 32.60937 -0.01594
C 18.40318 31.87611 0.0106
C 18.43089 30.494 -0.01154
C 17.18831 29.67978 -0.01721
C 17.19387 28.2817 -0.02422
C 18.47002 27.60887 0.01277
C 18.43892 26.18441 0.00096
C 19.77852 19.77643 -0.00498
C 17.20771 25.53063 -0.01527
C 18.4001 23.35966 0.00199
C 18.48374 21.91463 0.01511
C 17.28369 21.1461 -0.00478
C 17.29241 19.8026 -0.01662
C 18.51554 19.0558 -0.01185
C 18.54086 17.64799 0.01126
C 17.2387 16.98109 0.01852
C 17.24099 15.5417 -0.00381
C 18.40844 14.93249 0.03046
C 17.16976 24.08208 0.01087
C 3.66311 31.95502 0.0174
C 21.03803 19.13473 0.00135
C 19.70281 16.8905 0.02555
C 23.36394 0.73844 0.00826
C 22.13144 34.07087 -0.00294
C 24.5625 32.61744 0.00152
C 25.81656 32.04561 0.01257
C 25.811 30.52161 0.02316
C 24.52055 29.90489 0.04185
C 24.45925 28.48872 0.00194
C 24.5244 25.58474 -0.00621
C 24.57425 24.17239 0.02611
C 25.8662 23.526 0.02198
C 25.83816 22.10783 0.01094
C 24.6011 21.33864 0.00235
C 24.65093 19.88785 0.01495
C 25.83727 19.26758 0.01259
C 25.97526 17.92429 0.01799
C 24.68693 2.72638 0.01699
C 25.8698 2.0611 -0.00416
C 26.07498 0.7835 0.01177
C 24.64797 34.04833 0.04266
C 23.47321 2.28029 0.00487
C 22.0928 2.9046 -0.00942
C 22.14227 17.27542 -0.02815
C 23.34436 17.86795 0.00622
C 19.6472 15.56022 0.01423
C 19.52146 4.16029 -0.00285
C 19.65854 2.80874 -0.009
C 20.98794 2.23649 -0.01199
C 20.92781 0.7509 -0.00229
C 19.60274 34.06216 -0.00938
C 22.1114 32.68881 -0.0264
C 23.29325 31.96291 -0.01154
C 23.29787 30.56382 0.00684
C 20.93249 17.7274 0.03102
C 22.09644 29.79427 -0.01052
C 23.335 27.6809 0.00367
C 23.31184 26.26684 0.04306
C 22.13413 25.47205 0.00996
C 22.14044 24.1387 0.00195
C 23.35278 23.42525 -0.00802
C 23.41326 22.06477 -0.00218
C 22.1951 21.33869 -0.01654
C 22.19452 19.84067 -0.00037
C 23.48652 19.1896 -0.0032
C 22.15292 28.46784 -0.01679
C 2.42482 32.64965 0.0073
