318
Graphene
C 34.3678 34.06595 0.01295
C 9.78762 11.29389 -0.00109
C 11.11702 10.60624 -0.00491
C 11.07027 9.20833 0.03338
C 9.82933 8.55459 -0.0258
C 9.81964 7.12596 -0.0331
C 10.9534 6.36483 -0.00316
C 10.97391 4.9415 0.02188
C 9.77807 4.23727 -0.01979
C 9.79287 2.87387 0.02691
C 11.06704 2.12178 -0.01581
C 11.10001 0.70248 0.01452
C 9.86578 34.07114 0.04892
C 12.4058 32.67385 -0.00111
C 13.64312 32.03825 -0.03557
C 13.36102 30.65318 0.03754
C 9.83038 12.76927 0.03698
C 11.2501 13.27191 -0.02213
C 10.86313 14.6589 0.00028
C 9.82884 15.41229 -0.00289
C 8.57468 10.59467 0.0351
C 8.59725 9.22401 -0.03113
C 7.33778 8.51199 0.02098
C 7.35657 7.10307 0.01848
C 8.63473 6.399 -0.00619
C 8.56292 4.98136 -0.02162
C 7.34187 4.26014 0.00889
C 12.31079 29.99379 0.01739
C 7.35018 2.79007 -0.00481
C 8.60169 0.65539 0.01443
C 7.36532 34.01159 0.03505
C 9.89561 32.6806 -0.02815
C 11.14045 31.91441 -0.04147
C 10.96285 30.53649 -0.05302
C 9.83487 29.76394 0.00213
C 9.78183 28.48232 -0.00066
C 8.57142 2.02599 0.00979
C 13.71217 13.34324 0.00755
C 12.49726 12.71188 -0.0054
C 12.36042 11.35528 0.00667
C 14.72124 4.26762 0.01277
C 14.66416 2.8942 0.00096
C 15.95762 2.17985 -0.01527
C 16.00757 0.65624 0.01087
C 14.75529 0.03347 0.00199
C 17.26872 32.48413 0.01511
C 18.54061 32.0672 -0.00478
C 15.91807 4.99474 -0.02422
C 18.46674 9.36527 -0.01662
C 17.23327 7.22377 0.01126
C 18.41298 6.43829 0.01852
C 18.35223 4.96662 -0.00381
C 17.14178 4.2534 0.03046
C 17.19121 2.88055 0.0296
C 18.36119 2.17691 0.03374
C 18.43952 0.74799 -0.02845
C 17.20582 8.61102 -0.01185
C 7.31984 11.31531 0.00422
C 15.9925 6.40899 -0.01721
C 14.81066 8.56699 0.0106
C 13.58846 10.61215 0.00143
C 13.54547 9.2096 -0.017
C 12.32155 8.51056 0.00364
C 12.2597 7.06459 -0.00831
C 13.49705 6.39915 -0.02957
C 13.4461 4.97755 -0.04422
C 12.22042 4.28543 0.00654
C 14.76093 7.16839 -0.01154
C 12.24024 2.818 -0.00703
C 13.59467 0.7685 -0.00652
C 12.3691 34.06465 0.0058
C 14.89213 32.72893 -0.00865
C 16.06153 31.9179 0.00675
C 14.68643 11.4329 -0.00311
C 15.88148 10.67622 0.00742
C 16.01931 9.27663 -0.01594
C 13.52036 2.18413 -0.04076
C 7.38264 12.63936 0.00798
C 8.61843 13.42995 0.00228
C 8.54575 14.78065 -0.00114
C 3.64118 9.2142 -0.00719
C 2.41977 8.49332 0.01364
C 2.46404 7.12879 -0.01062
C 3.62278 6.39426 -0.00033
C 3.6414 4.99432 0.03589
C 2.44252 4.28525 -0.02759
C 2.40137 2.82112 0.0402
C 3.62576 10.64918 0.01641
C 3.64905 2.11507 0.00572
C 2.36706 34.05125 0.00406
C 4.93678 32.58122 0.00943
C 6.16862 31.95158 0.02841
C 6.11597 30.52743 -0.01111
C 4.92499 29.82987 -0.01275
C 4.8801 28.3689 0.00985
C 6.13527 27.69971 -0.02245
C 3.61116 0.686 0.03592
C 6.12932 26.29732 -0.00428
C 2.42257 11.41304 0.02339
C 3.61064 13.51496 -0.01634
C 3.68711 30.48977 -0.01384
C 2.44546 29.83504 0.03693
C 2.42327 28.38252 0.01745
C 3.61803 27.65023 0.00488
C 3.65626 26.23469 -0.01004
C 2.4932 25.53057 -0.02896
C 2.48408 24.10974 -0.00131
C 2.41575 12.79992 -0.00334
C 3.76539 23.46018 -0.01118
C 2.54183 21.30678 0.02147
C 2.5409 19.88002 0.00373
C 3.71868 19.2061 -0.00191
C 3.75237 17.767 0.00438
C 2.46482 17.0745 0.01291
C 2.51228 15.63869 0.00093
C 3.69268 14.90523 0.00057
C 3.70998 22.08582 -0.014
C 17.23963 34.03267 -0.03213
C 4.92084 25.62407 0.03101
C 6.15334 23.47056 -0.02689
C 6.1459 0.66909 0.03542
C 4.95611 34.00327 0.02299
C 7.35245 32.63725 0.00244
C 8.63952 31.9931 -0.01717
C 8.65088 30.51782 0.05265
C 7.37066 29.8548 -0.01952
C 7.34583 28.44775 -0.02813
C 6.14591 2.16508 0.01416
C 8.67315 27.74902 0.00374
C 7.40638 25.60396 -0.03682
C 7.22589 24.22758 0.01965
C 7.37361 21.24421 0.02058
C 7.41602 19.9622 -0.01957
C 8.77583 17.48499 -0.0108
C 7.44543 17.02761 -0.00368
C 7.39383 15.58415 -0.02696
C 8.53247 26.33595 0.00052
C 4.92152 24.18339 -0.01536
C 4.91148 2.83633 0.01945
C 6.08566 4.96534 0.01241
C 6.18957 22.11313 -0.01046
C 5.00468 21.34534 -0.00891
C 4.98279 19.89876 0.02819
C 6.24202 19.2016 0.00165
C 6.238 17.78976 -0.02971
C 4.94752 17.08563 0.02894
C 4.94517 15.68121 -0.01789
C 4.88185 4.20114 -0.01454
C 6.23493 14.86173 0.00444
C 4.89839 12.7396 0.01877
C 4.87705 11.32504 0.01363
C 6.09372 10.60923 -0.02162
C 6.04463 9.24201 0.00415
C 4.86353 8.46414 -0.0014
C 4.83999 7.08007 0.02162
C 6.0639 6.38256 0.0076
C 6.19004 13.42467 -0.00925
C 19.68873 32.78151 0.02239
C 20.90381 32.00978 0.01153
C 20.94069 30.62559 0.02734
C 31.95756 25.58939 -0.01779
C 31.9492 24.15933 0.03794
C 33.23015 23.41984 0.01927
C 33.23325 21.98456 0.01574
C 31.99903 21.32439 -0.02383
C 31.92408 19.92271 -0.01429
C 33.17413 19.21237 -0.0136
C 33.19016 26.30825 0.00682
C 33.16415 17.80922 0.00594
C 31.89007 15.76103 0.00369
C 33.14918 15.09514 0.00455
C 33.16145 13.60831 -0.00644
C 31.87655 12.89639 -0.01839
C 31.99985 11.41004 0.00137
C 33.23216 10.7037 0.00199
C 33.21472 9.29799 0.04381
C 31.91007 17.20799 -0.02474
C 32.01984 8.53537 0.02806
C 33.15837 27.75674 0.00026
C 31.90248 29.83759 -0.02142
C 29.52071 12.82612 -0.01461
C 29.50101 11.43329 -0.02155
C 30.7808 10.67925 -0.00944
C 30.76309 9.31097 -0.03735
C 29.49426 8.50875 -0.00971
C 29.47946 7.10595 0.01518
C 30.72633 6.41769 0.01908
C 31.93384 28.44059 0.0544
C 30.73368 4.95319 0.07705
C 29.45288 2.8124 0.02108
C 30.65181 2.09311 0.00716
C 30.63507 0.70912 0.00307
C 29.40553 34.01087 0.00346
C 31.85278 32.674 0.01713
C 33.1713 31.98612 -0.01694
C 33.13047 30.53416 0.01428
C 29.45628 4.22227 0.0103
C 30.68252 13.61417 -0.01303
C 31.94683 7.13382 0.01504
C 33.12622 4.96622 0.04926
C 34.40948 17.1151 0.00648
C 34.39422 15.76971 0.02114
C 1.19346 14.97235 -0.02957
C 1.16385 13.56575 0.00343
C 34.38133 12.82895 -0.02656
C 34.4242 11.45333 -0.02442
C 1.22086 10.71888 -0.00027
C 1.22923 17.77356 0.01223
C 1.24809 9.26789 -0.00583
C 34.38698 7.13685 -0.02849
C 1.17621 6.40859 0.02931
C 1.18468 5.00341 0.00628
C 34.39397 4.27021 -0.0345
C 34.3902 2.82816 -0.00931
C 1.17581 2.06275 -0.00939
C 1.17892 0.67704 -0.00468
C 0.01279 8.5455 -0.02302
C 33.18158 6.41323 -0.00069
C 1.26137 19.22542 -0.01678
C 0.02189 21.33486 -0.02213
C 31.92134 4.2119 -0.03838
C 31.88988 2.87017 0.00349
C 33.12897 2.15378 -0.00323
C 33.12006 0.71296 -0.00841
C 31.85173 0.02177 0.0001
C 34.4086 32.6751 -0.02927
C 1.15573 31.97313 -0.01404
C 34.40674 19.94596 0.01951
C 1.15814 30.5406 0.01027
C 34.35277 28.4642 -0.01037
C 1.14631 27.69737 -0.00439
C 1.26856 26.29244 -0.00598
C 0.02333 25.59061 -0.05239
C 0.03356 24.12305 0.03076
C 1.2454 23.40142 0.00723
C 1.28582 22.0108 0.02712
C 34.32722 29.83375 0.01831
C 3.69403 31.93278 -0.00482
C 30.69618 15.00917 -0.0405
C 30.59164 17.83949 0.0101
C 22.08294 2.91257 0.01423
C 23.29312 2.21772 -0.00285
C 23.28679 0.81215 -0.009
C 22.09055 0.00149 -0.01199
C 24.50019 32.65995 -0.00229
C 25.78174 31.88982 -0.00938
C 25.72733 30.43551 -0.0264
C 22.05373 4.29404 0.02555
C 24.53889 29.748 -0.01154
C 25.5966 27.44599 -0.01052
C 25.83986 26.17172 -0.01679
C 25.88685 10.53461 0.00367
C 25.80916 9.17548 0.04306
C 24.60677 8.434 0.00996
C 24.54562 7.04463 0.00195
C 25.77586 6.326 -0.00802
C 24.5404 28.38671 0.00684
C 25.76438 4.91302 -0.00218
C 23.29743 5.04119 0.03102
C 22.07304 7.14606 -0.00498
C 20.94 9.21151 -0.0055
C 19.69065 8.64485 0.01515
C 19.63431 7.203 -0.00225
C 20.82613 6.49607 0.00071
C 20.85664 5.00177 -0.01107
C 19.60856 4.2508 -0.01586
C 19.61521 2.86519 -0.01971
C 23.26001 6.48822 0.00135
C 20.85367 2.20151 -0.02118
C 19.67337 0.04095 -0.00178
C 22.09704 32.6481 0.00768
C 23.35745 31.93158 -0.0276
C 23.40484 30.52599 0.03005
C 22.05991 30.10278 -0.04078
C 23.41403 9.20645 0.02117
C 22.18536 8.80428 0.02737
C 20.84669 0.80218 0.00733
C 29.49089 15.81248 0.01705
C 24.49008 4.29924 -0.01654
C 25.76375 2.12618 -0.0032
C 28.19454 2.06285 -0.00416
C 28.1191 0.652 0.01177
C 26.95799 34.04438 0.04266
C 29.46546 32.62692 0.01324
C 30.68326 31.91021 0.0014
C 30.68245 30.51539 0.00924
C 29.47106 29.787 0.02326
C 26.93944 2.79422 0.01699
C 29.33976 28.36051 0.00261
C 30.7262 26.25121 -0.02049
C 29.54222 25.51539 -0.01854
C 29.53729 24.07543 -0.01415
C 30.80241 23.39111 -0.03039
C 30.7654 21.97682 0.01836
C 29.67944 21.10265 0.03531
C 30.69945 19.26158 -0.00669
C 30.65368 27.70301 0.03265
C 24.53625 2.84769 -0.00037
C 26.99964 4.22969 0.01799
C 28.22461 6.39775 0.01495
C 25.73684 0.71577 0.00622
C 24.52278 0.01098 -0.02815
C 26.96278 32.63906 -0.00942
C 28.23792 31.8929 0.00487
C 28.18964 30.46716 0.00826
C 26.96182 29.77084 -0.00294
C 26.97124 28.28212 0.00152
C 28.26079 4.99517 0.01259
C 28.18525 27.60335 0.01257
C 27.02967 25.59019 0.04185
C 28.46015 23.17347 0.00194
C 27.04869 11.07115 -0.00621
C 28.37467 10.61139 0.02611
C 28.28526 9.18825 0.02198
C 27.05311 8.53009 0.01094
C 26.99571 7.08409 0.00235
C 28.2633 26.14572 0.02316
C 2.44122 32.55722 0.02888
