268
Graphene
C 0.02096 0.05027 0.01295
C 15.97746 26.19611 -0.00478
C 15.94351 27.73189 0.01511
C 14.74664 28.41897 0.00199
C 14.786 29.79942 0.01087
C 16.03013 30.5603 -0.01527
C 16.00365 31.96929 0.00096
C 14.69766 32.61682 0.01277
C 12.2464 34.06573 -0.02422
C 13.48523 0.58067 -0.01721
C 13.53007 2.07252 -0.01154
C 12.36119 2.84692 0.0106
C 12.33886 4.2236 -0.01594
C 13.56794 4.94243 0.00742
C 13.67366 6.37997 -0.00311
C 13.45921 23.57891 0.00675
C 12.34879 24.07458 -0.00865
C 12.2756 25.45705 0.0058
C 13.48163 26.20536 -0.00652
C 13.59331 27.60665 -0.04076
C 12.25631 28.37508 -0.00703
C 12.26585 29.85852 0.00654
C 13.5404 30.48804 -0.04422
C 13.47661 32.00002 -0.02957
C 12.21103 32.73386 -0.00831
C 9.86159 0.0532 0.00364
C 11.08713 0.74618 -0.017
C 11.1012 2.15488 0.00143
C 9.87075 2.83411 0.00667
C 9.8454 4.28365 -0.0054
C 14.83758 25.60079 -0.01662
C 14.72644 7.05653 -0.01185
C 15.99704 6.47907 0.01126
C 15.95276 4.97033 0.01852
C 19.6452 8.58234 0.01423
C 20.91637 9.16845 0.02555
C 20.93527 10.59522 0.03102
C 19.64263 28.4247 0.00135
C 19.78621 29.81036 -0.00498
C 20.90789 30.50197 0.02737
C 20.88421 31.9657 0.02117
C 19.69145 32.63594 -0.04078
C 17.15617 34.05251 0.03005
C 18.46479 0.69753 -0.0276
C 18.53579 2.13709 0.00768
C 17.2126 2.86005 -0.00178
C 17.22361 4.27088 0.00733
C 18.39031 5.05962 -0.02118
C 11.05597 4.97015 0.00755
C 18.43802 6.33657 -0.01971
C 17.22496 8.45666 -0.01107
C 18.41129 9.31002 0.00071
C 18.45319 10.63619 -0.00225
C 18.47624 27.78031 0.01515
C 17.18219 28.40845 -0.0055
C 17.24769 29.80431 0.02734
C 18.52156 30.5988 0.01153
C 18.44263 31.91581 0.02239
C 17.21874 32.66548 -0.03213
C 14.75411 34.04694 -0.02845
C 16.00304 0.657 0.03374
C 15.93198 2.11296 0.0296
C 14.73205 2.79519 0.03046
C 14.78182 4.1967 -0.00381
C 17.25375 7.07239 -0.01586
C 19.65738 7.15224 -0.00285
C 9.72249 24.09783 0.01739
C 11.04222 26.27541 -0.03557
C 6.0693 26.32554 0.00798
C 6.13139 27.72859 0.00228
C 4.90223 28.40778 -0.00114
C 4.96445 29.77674 -0.02696
C 6.1555 30.5307 -0.00368
C 6.15422 31.97907 -0.0108
C 4.92142 32.71248 -0.01957
C 2.5102 0.01961 0.02058
C 3.70152 0.72791 0.01965
C 3.69849 2.0899 -0.03682
C 2.44921 2.81281 0.00052
C 2.44031 4.24458 0.00374
C 3.71498 4.98489 -0.02813
C 3.65318 6.39328 -0.01952
C 2.41027 7.09156 0.05265
C 2.43227 8.54839 -0.01717
C 3.67655 9.18758 0.00244
C 2.40301 11.35315 0.02299
C 2.4206 19.93199 0.03542
C 2.52223 21.27133 0.01416
C 3.64134 22.01353 0.01945
C 3.6864 23.34483 -0.01454
C 2.41337 24.10201 0.01241
C 2.46641 25.52111 0.0076
C 3.62234 26.25804 0.02162
C 3.70834 27.67221 -0.0014
C 2.51373 28.41381 0.00415
C 2.43513 29.87459 -0.02162
C 3.73267 30.47233 0.01363
C 4.88041 25.57408 0.00422
C 4.89946 24.13375 0.0351
C 6.15093 23.502 -0.03113
C 4.95023 6.97851 0.02098
C 11.0293 27.69501 -0.00111
C 9.80552 28.43041 0.04892
C 9.79728 29.83117 0.01452
C 11.05459 30.55982 -0.01581
C 11.07109 32.01415 0.02691
C 9.85973 32.63635 -0.01979
C 7.38985 0.02522 0.02188
C 8.62256 0.741 -0.00316
C 8.60589 2.16083 -0.0331
C 7.29106 2.91332 -0.0258
C 7.36805 4.28517 0.03338
C 8.58819 4.94174 -0.00491
C 8.54832 6.31345 -0.00109
C 8.6498 23.52834 0.03698
C 9.89581 25.46976 0.03754
C 7.42581 24.1321 -0.02213
C 8.59971 26.24573 -0.00289
C 8.68491 27.65564 -0.00066
C 7.39357 28.3938 0.00213
C 7.32468 29.80527 -0.05302
C 8.57361 30.62767 -0.04147
C 8.62286 31.97501 -0.02815
C 7.41245 32.6443 0.03505
C 4.90059 0.03076 0.01443
C 6.20184 0.7028 0.00979
C 6.11581 2.09415 -0.00481
C 4.95952 2.82837 0.00889
C 4.82902 4.2197 -0.02162
C 6.11805 5.06448 -0.00619
C 6.0671 6.46308 0.01848
C 7.35732 25.58524 0.00028
C 20.94265 6.42202 -0.009
C 20.90653 4.87963 -0.01199
C 19.70359 4.27023 -0.00229
C 32.02056 2.89733 0.00349
C 31.96021 4.31461 -0.03838
C 33.18151 4.96027 0.04926
C 33.15921 6.3422 -0.00069
C 31.94542 7.08977 0.01504
C 32.08562 8.53599 0.02806
C 33.1563 9.16947 0.04381
C 33.19282 14.94875 0.00199
C 31.94456 17.11143 0.00137
C 33.14458 17.73807 -0.01839
C 33.2717 19.14251 -0.00644
C 32.03699 19.8607 0.00455
C 31.98044 21.33021 0.00369
C 33.15907 21.90885 -0.02474
C 33.16276 23.4034 0.00594
C 31.93665 24.17499 -0.0136
C 31.91119 25.51846 -0.01429
C 33.19445 26.26932 -0.02383
C 33.19184 27.71781 0.01574
C 31.96689 28.41539 0.01927
C 32.01355 29.75182 0.03794
C 33.18019 30.56944 -0.01779
C 33.19294 31.98588 0.00682
C 32.00664 32.69727 0.00026
C 29.51533 34.06598 0.0544
C 30.76326 0.71785 -0.02142
C 30.79275 2.1791 0.01428
C 29.50543 2.83949 -0.01694
C 29.47605 4.29889 0.01713
C 33.25591 2.12081 -0.00323
C 33.21906 0.75759 -0.00841
C 31.97755 0.03643 0.0001
C 0.03552 32.71383 -0.02927
C 1.20471 0.79846 -0.00468
C 1.20554 2.17089 -0.00939
C 0.01611 2.84372 -0.00931
C 34.35667 4.24849 -0.0345
C 1.23091 4.97938 0.00628
C 1.2437 6.36885 0.02931
C 0.00017 7.07347 -0.02849
C 34.39376 8.58243 -0.02302
C 1.189 9.29541 -0.00583
C 1.24022 10.69934 -0.00027
C 34.32925 11.39673 -0.02442
C 34.40076 12.78826 -0.02656
C 1.194 13.4951 0.00343
C 1.24052 14.82148 -0.02957
C 30.6782 5.01167 0.00346
C 34.38148 15.6238 0.02114
C 1.24856 17.79455 0.01223
C 1.2974 19.1151 -0.01678
C 34.4318 19.906 0.01951
C 34.37945 21.29227 -0.02213
C 1.21339 22.03264 0.02712
C 1.17601 23.48119 0.00723
C 34.31058 24.1531 0.03076
C 34.38154 25.56556 -0.05239
C 1.2067 26.19949 -0.00598
C 1.23891 27.73733 -0.00439
C 34.37844 28.4045 -0.01037
C 0.00194 29.87143 0.01831
C 1.22478 30.50373 0.01027
C 1.22033 31.94541 -0.01404
C 0.01287 17.07511 0.00648
C 30.76202 6.39138 0.00307
C 29.53878 7.13712 0.00716
C 30.78105 17.79601 0.02108
C 25.79366 6.38191 0.01094
C 24.58444 7.10838 0.02198
C 24.56844 8.60286 0.02611
C 25.95779 9.16986 -0.00621
C 25.79665 27.67187 0.00194
C 24.73155 28.33667 0.04185
C 24.56519 29.82849 0.02316
C 25.81322 30.54616 0.01257
C 25.81563 31.95707 0.00152
C 24.5805 32.65896 -0.00294
C 22.12367 34.04274 0.00826
C 23.3307 0.73357 0.00487
C 23.40692 2.15408 -0.00942
C 22.15852 2.76049 -0.02815
C 25.86717 4.91455 0.00235
C 22.17008 4.24895 0.00622
C 23.36306 6.43365 -0.00037
C 22.14289 7.06603 -0.01654
C 22.09138 8.52474 -0.00218
C 23.40098 9.21321 -0.00802
C 23.28891 10.58038 0.00195
C 22.06835 28.45071 0.00996
C 22.10638 29.77576 0.04306
C 23.33446 30.56869 0.00367
C 23.35399 31.95546 -0.01679
C 22.14127 32.59019 -0.01052
C 19.71324 34.07198 0.00684
C 20.90649 0.74202 -0.01154
C 20.97609 2.11587 -0.0264
C 19.68071 2.78371 -0.00938
C 23.37586 4.98454 -0.0032
C 3.7403 31.91491 0.01877
C 24.56698 4.237 0.01495
C 25.84049 2.10279 0.01799
C 30.74936 19.11053 0.0103
C 30.7621 22.03518 0.07705
C 30.73304 23.49883 0.01908
C 29.52225 24.16683 0.01518
C 29.51035 25.60394 -0.00971
C 30.7064 26.30097 -0.03735
C 30.75599 27.71613 -0.00944
C 29.52493 28.38894 -0.02155
C 29.5676 29.87016 -0.01461
C 30.79707 30.52688 -0.01303
C 30.73234 31.91279 -0.0405
C 29.52253 32.6778 0.01705
C 27.05343 0.00798 0.0101
C 28.32502 0.75319 -0.00669
C 24.56658 2.759 0.01259
C 28.2645 2.0923 0.03531
C 27.06391 4.24777 -0.03039
C 28.34539 4.98697 -0.01415
C 28.239 6.37044 -0.01854
C 27.00862 7.09844 -0.02049
C 26.93515 8.47422 0.03265
C 28.23459 26.26463 0.00261
C 28.27836 27.61436 0.02326
C 27.06439 28.44799 0.00924
C 27.05267 29.86707 0.0014
C 28.29839 30.52879 0.01324
C 28.28357 31.9355 0.04266
C 27.00712 32.6281 0.01177
C 24.51819 0.01772 -0.00416
C 25.81912 0.72355 0.01699
C 27.09291 2.7853 0.01836
C 2.47421 32.64109 -0.00925
