293
Graphene
C 34.33447 0.12267 0.01295
C 7.37965 0.0667 -0.0054
C 9.81747 32.7378 0.00667
C 11.05043 32.02588 0.00143
C 11.16518 30.57185 -0.017
C 9.94447 29.79043 0.00364
C 9.98935 28.2259 -0.00831
C 8.64443 0.80305 0.00755
C 11.33982 27.45154 -0.02957
C 9.83082 25.4914 0.00654
C 9.80015 24.17534 -0.00703
C 11.23104 23.63701 -0.04076
C 10.95904 22.32208 -0.00652
C 9.90299 21.51815 0.0058
C 9.97503 20.05176 -0.00865
C 11.2011 26.07368 -0.04422
C 10.97139 19.3023 0.00675
C 8.61025 2.23956 0.01739
C 7.37897 4.33322 -0.03557
C 8.74262 19.21577 0.03698
C 8.70164 17.81835 -0.00109
C 7.43615 17.15238 -0.00491
C 7.43788 15.66566 0.03338
C 8.65754 14.98002 -0.0258
C 8.59025 13.4922 -0.0331
C 7.37363 2.94264 0.03754
C 7.37307 12.83428 -0.00316
C 8.58612 10.67888 -0.01979
C 8.55317 9.34467 0.02691
C 7.32564 8.55467 -0.01581
C 7.32065 7.14038 0.01452
C 8.59932 6.4492 0.04892
C 8.61455 5.03061 -0.00111
C 7.37454 11.38321 0.02188
C 11.16297 17.98583 -0.00311
C 10.03111 17.05604 0.00742
C 10.02644 15.67007 -0.01594
C 12.60759 28.50894 -0.02845
C 14.19772 28.47903 -0.03213
C 12.01455 24.88384 0.02239
C 12.30025 17.01373 0.01153
C 12.37533 15.72725 0.02734
C 13.61193 14.89911 -0.0055
C 12.38642 29.97234 0.03374
C 13.65461 13.64346 0.01515
C 12.39071 11.30926 0.00071
C 12.24637 8.65317 -0.01107
C 12.32561 7.32353 -0.01586
C 13.51912 6.63996 -0.01971
C 13.60392 5.23269 -0.02118
C 12.25027 4.4396 0.00733
C 12.4427 12.70479 -0.00225
C 13.61568 30.66643 0.0296
C 13.49034 31.98641 0.03046
C 12.32102 32.74081 -0.00381
C 11.19809 14.87453 0.0106
C 11.14167 13.51841 -0.01154
C 9.87956 12.73218 -0.01721
C 9.88028 11.33695 -0.02422
C 11.1108 10.67202 0.01277
C 11.03608 9.28156 0.00096
C 9.69536 8.56323 -0.01527
C 9.7631 7.23901 0.01087
C 11.03175 6.55381 0.00199
C 11.04374 5.11876 0.01511
C 9.82733 4.39236 -0.00478
C 9.82195 2.90506 -0.01662
C 11.05759 2.25019 -0.01185
C 11.08316 0.82507 0.01126
C 9.87602 0.09419 0.01852
C 7.40763 19.99261 -0.02213
C 7.40697 21.44977 0.00028
C 8.64984 22.18269 -0.00289
C 8.51666 23.55952 -0.00066
C 3.59221 10.70394 -0.02971
C 3.62293 9.33272 0.02894
C 2.38653 8.57791 -0.01789
C 2.35385 7.15737 0.00444
C 3.58573 6.51725 -0.00925
C 3.57106 5.04809 0.01877
C 2.41034 11.36159 0.00165
C 2.31493 4.35014 0.01363
C 3.60592 2.19533 0.00415
C 3.61811 0.79141 -0.0014
C 2.36601 0.04165 0.02162
C 4.81316 32.77472 0.0076
C 6.11447 32.02184 0.01241
C 6.1085 30.57837 -0.01454
C 2.36585 2.95462 -0.02162
C 2.33299 12.83344 0.02819
C 3.61596 13.56692 -0.00891
C 3.68653 14.93569 -0.01046
C 3.64379 30.55892 -0.02759
C 2.35276 29.84184 0.0402
C 2.41205 28.41127 0.00572
C 3.73135 27.71511 0.03592
C 3.70098 26.27823 0.00406
C 2.45837 25.59643 0.00943
C 2.4578 24.20638 0.02841
C 3.70055 23.49259 -0.01111
C 3.6507 21.9728 -0.01275
C 2.44702 21.37215 0.00985
C 2.37721 19.90268 -0.02245
C 3.6335 19.2431 -0.00428
C 3.68037 17.79184 0.03101
C 2.41079 17.0441 -0.01536
C 2.3673 15.61968 -0.02689
C 4.94221 29.81896 0.01945
C 12.38448 3.05758 -0.00178
C 4.92375 28.41516 0.01416
C 6.26214 26.33191 0.02299
C 6.16671 4.98096 -0.03113
C 4.8804 4.3686 0.02098
C 4.84889 2.93633 0.01848
C 6.09055 2.25787 -0.00619
C 6.10812 0.77018 -0.02162
C 4.87305 0.09472 0.00889
C 6.08391 6.41587 0.0351
C 7.43714 32.7301 -0.00481
C 8.68333 30.50895 0.01443
C 7.37966 29.81893 0.03505
C 7.36436 28.47829 -0.02815
C 8.61118 27.58926 -0.04147
C 8.56128 26.12775 -0.05302
C 7.39918 24.25036 0.00213
C 8.6183 31.96105 0.00979
C 4.89783 7.11354 0.00422
C 4.87287 8.55723 0.00798
C 6.09052 9.24147 0.00228
C 4.98943 25.6169 0.00244
C 4.8352 24.18242 -0.01717
C 6.09561 23.57041 0.05265
C 6.11595 22.11915 -0.01952
C 4.83368 21.29787 -0.02813
C 4.87683 19.89281 0.00374
C 6.17308 19.30479 0.00052
C 6.17811 17.82705 -0.03682
C 4.99506 17.05428 0.01965
C 4.97593 15.63041 0.02058
C 6.19551 14.90475 -0.01957
C 6.18201 13.56608 -0.0108
C 4.9118 12.80791 -0.00368
C 4.89294 11.40139 -0.02696
C 6.10645 10.7274 -0.00114
C 6.18414 27.73027 0.03542
C 3.63786 31.96607 0.03589
C 13.66211 2.29285 0.00768
C 12.32366 0.10258 0.03005
C 31.86944 19.88507 -0.01429
C 33.11639 19.21817 -0.0136
C 33.07488 17.77908 0.00594
C 31.74333 17.02044 -0.02474
C 31.66184 15.60561 0.00369
C 32.96411 14.90458 0.00455
C 31.91956 21.354 -0.02383
C 32.94145 13.42405 -0.00644
C 31.86891 11.34931 0.00137
C 33.11745 10.59185 0.00199
C 33.17476 9.14578 0.04381
C 31.83817 8.50387 0.02806
C 31.81501 7.05526 0.01504
C 32.98809 6.46461 -0.00069
C 31.63295 12.6369 -0.01839
C 32.97462 4.9772 0.04926
C 33.20597 22.01133 0.01574
C 31.93613 24.14118 0.03794
C 30.24551 5.21887 0.07705
C 29.11388 4.33382 0.0103
C 29.37429 2.88483 0.02108
C 30.62143 2.20613 0.00716
C 30.63233 0.78138 0.00307
C 29.4188 0.05515 0.00346
C 33.20437 23.41836 0.01927
C 31.87066 32.71753 0.01713
C 33.02839 30.57623 0.01428
C 31.79734 29.8629 -0.02142
C 31.86492 28.42345 0.0544
C 33.10928 27.7638 0.00026
C 33.13745 26.31675 0.00682
C 31.87664 25.62064 -0.01779
C 33.03112 31.99457 -0.01694
C 31.67642 4.40495 -0.03838
C 31.77448 2.96595 0.00349
C 33.09133 2.28758 -0.00323
C 1.09835 15.01169 -0.02957
C 1.09792 13.55874 0.00343
C 34.27459 12.82473 -0.02656
C 34.29079 11.30077 -0.02442
C 1.17276 10.63863 -0.00027
C 1.13678 9.29034 -0.00583
C 34.17936 15.68689 0.02114
C 34.39781 8.50863 -0.02302
C 1.17492 6.37323 0.02931
C 1.10244 4.96355 0.00628
C 34.22918 4.30736 -0.0345
C 34.33553 2.90067 -0.00931
C 1.14643 2.25091 -0.00939
C 1.14075 0.84895 -0.00468
C 34.30975 7.08367 -0.02849
C 34.28467 17.04945 0.00648
C 1.16802 17.71961 0.01223
C 1.16484 19.17737 -0.01678
C 33.09259 0.84246 -0.00841
C 31.87872 0.05275 0.0001
C 34.20231 32.81053 -0.02927
C 0.98149 32.09105 -0.01404
C 1.07871 30.63812 0.01027
C 34.2875 29.93998 0.01831
C 34.30708 28.4605 -0.01037
C 1.10866 27.73891 -0.00439
C 1.21035 26.35348 -0.00598
C 34.41551 25.62183 -0.05239
C 34.3825 24.21648 0.03076
C 1.2513 23.47075 0.00723
C 1.20392 22.0263 0.02712
C 34.38118 21.2662 -0.02213
C 34.41796 19.92981 0.01951
C 30.4801 6.64746 0.01908
C 29.6811 7.86124 0.01518
C 30.65089 9.17086 -0.00971
C 30.71854 10.51668 -0.03735
C 21.52477 30.48963 0.04306
C 20.82056 0.41702 0.00996
C 19.63531 33.69338 0.00195
C 22.04759 32.67458 -0.00802
C 23.29769 32.08706 -0.00218
C 23.1281 30.60479 -0.01654
C 20.94976 31.68817 0.00367
C 23.31888 0.79107 -0.00037
C 24.53283 32.79324 0.00622
C 25.68131 32.00868 -0.02815
C 25.52261 30.55187 -0.00942
C 24.29222 29.97668 0.00487
C 25.94021 2.4248 0.00826
C 25.79933 0.99796 -0.00294
C 22.08999 0.13534 -0.0032
C 19.60197 32.20415 -0.01679
C 17.21095 33.95565 -0.01052
C 18.51091 0.4174 0.00684
C 14.71115 32.7665 -0.04078
C 15.90319 32.04026 0.02117
C 15.83907 30.55493 0.02737
C 14.67614 29.62702 -0.00498
C 14.97855 14.44228 0.00135
C 14.56061 4.39412 0.03102
C 14.90394 3.04372 0.02555
C 16.12596 2.27025 0.01423
C 15.97987 0.81372 -0.00285
C 14.74825 0.10439 -0.009
C 17.13897 32.63333 -0.01199
C 18.16623 31.63512 -0.00229
C 17.50308 30.45778 -0.00938
C 17.4665 2.76998 -0.0264
C 18.26596 1.67159 -0.01154
C 24.50542 0.09659 0.00152
C 13.49142 0.83622 -0.0276
C 26.88341 32.66382 0.01257
C 28.00653 30.57071 0.04185
C 30.63211 27.6838 -0.02049
C 30.61451 26.23812 -0.01854
C 29.35992 25.63474 -0.01415
C 29.3978 24.19008 -0.03039
C 30.58619 23.50167 0.01836
C 30.64051 22.04439 0.03531
C 29.33936 28.39405 0.03265
C 29.34004 21.32655 -0.00669
C 30.67462 19.2537 0.01705
C 30.61483 17.85664 -0.0405
C 29.4286 17.13298 -0.01303
C 29.163 15.72011 -0.01461
C 30.29203 14.86327 -0.02155
C 30.46771 13.48226 -0.00944
C 29.38402 19.91727 0.0101
C 29.2947 29.80313 0.00261
C 30.53277 30.48016 0.02326
C 30.6023 31.9279 0.00924
C 26.74547 29.87164 0.00194
C 27.0403 28.5609 -0.00621
C 28.0785 27.61132 0.02611
C 28.19235 26.2364 0.02198
C 28.16684 23.52462 0.01094
C 28.20433 22.19908 0.00235
C 28.31504 18.98558 0.01495
C 28.07926 17.6955 0.01259
C 27.8684 16.19421 0.01799
C 27.63295 4.17868 0.01699
C 26.98057 3.11914 -0.00416
C 28.26628 2.1426 0.01177
C 28.22739 0.76342 0.04266
C 26.97178 0.10457 0.01324
C 29.34353 32.71728 0.0014
C 28.12631 31.94984 0.02316
C 2.33422 32.68915 -0.00033
