375
Graphene
C 34.40172 0.0484 0.01295
C 12.30167 29.8061 0.02299
C 12.24791 28.45273 0.00244
C 13.49297 27.70276 -0.01717
C 13.5535 26.25804 0.05265
C 12.36889 25.61078 -0.01952
C 12.32689 24.17396 -0.02813
C 13.44042 23.38078 0.00374
C 13.46914 21.96576 0.00052
C 12.21636 21.16658 -0.03682
C 12.32064 19.81483 0.01965
C 13.5941 19.19892 0.02058
C 13.58115 17.7023 -0.01957
C 12.35971 17.01811 -0.0108
C 12.33303 15.61827 -0.00368
C 13.55272 14.94498 -0.02696
C 13.50697 13.4545 -0.00114
C 12.36097 12.65545 0.00228
C 12.18493 11.33925 0.00798
C 12.36326 8.30179 0.00422
C 13.51916 30.53066 0.03542
C 13.50417 31.99002 0.01416
C 12.2852 32.6356 0.01945
C 9.79939 0.06142 -0.01454
C 9.73707 21.37978 0.03101
C 9.88506 19.95676 -0.01536
C 11.10302 19.2085 -0.02689
C 11.11 17.76425 -0.01046
C 9.86451 17.08858 -0.00891
C 9.85467 15.66605 0.02819
C 11.11103 14.9129 0.00165
C 11.10587 13.53834 -0.02971
C 9.82808 12.93271 0.02894
C 12.26946 7.18053 0.0351
C 9.76175 11.46091 -0.01789
C 11.14155 9.1532 -0.00925
C 9.87609 8.48804 0.01877
C 9.93803 7.11562 0.01363
C 11.18099 6.35523 -0.02162
C 11.07257 4.89877 0.00415
C 9.80752 4.24964 -0.0014
C 9.80913 2.77224 0.02162
C 10.99889 2.11993 0.0076
C 11.07626 0.68599 0.01241
C 11.1473 10.61094 0.00444
C 11.05622 22.01288 -0.00428
C 13.62369 4.93086 -0.03113
C 12.2553 2.93003 0.01848
C 14.73558 0.03931 0.02691
C 17.21251 32.56847 -0.01581
C 18.44997 31.90237 0.01452
C 18.473 30.55638 0.04892
C 17.21061 29.80028 -0.00111
C 17.20166 28.42844 -0.03557
C 18.42551 27.69514 0.03754
C 18.48385 26.27241 0.01739
C 17.27425 25.62618 0.00755
C 17.19749 24.12376 -0.0054
C 18.4629 23.40529 0.00667
C 18.4809 21.98813 0.00143
C 17.26841 21.2648 -0.017
C 17.17955 19.82729 0.00364
C 18.43752 19.14226 -0.00831
C 18.49413 17.67079 -0.02957
C 17.22552 16.98802 -0.04422
C 17.14767 15.68993 0.00654
C 17.24693 2.70322 -0.00703
C 15.95191 0.74001 -0.01979
C 15.88813 2.21729 0.02188
C 14.74192 2.90886 -0.00316
C 14.60764 4.34796 -0.0331
C 13.51661 2.13479 -0.00619
C 13.53995 0.7186 -0.02162
C 12.31287 0.0128 0.00889
C 14.75649 32.73167 -0.00481
C 16.00499 31.97896 0.00979
C 15.98097 30.51364 0.01443
C 14.7627 29.78837 0.03505
C 14.72717 28.37109 -0.02815
C 15.94066 27.66892 -0.04147
C 12.32963 4.32446 0.02098
C 15.97043 26.26475 -0.05302
C 14.69568 24.12102 -0.00066
C 15.93919 23.43352 -0.00289
C 15.96306 21.99573 0.00028
C 14.69481 21.31402 -0.02213
C 14.78094 19.88555 0.03698
C 16.01597 19.13967 -0.00109
C 15.94242 17.72071 -0.00491
C 14.74622 16.9245 0.03338
C 14.73206 15.60042 -0.0258
C 14.77718 25.52534 0.00213
C 18.22101 2.13326 -0.04076
C 11.09332 23.42125 -0.02245
C 9.85778 25.56196 -0.01275
C 3.64045 2.22515 0.01305
C 3.68606 0.70616 -0.00077
C 2.43049 34.06024 0.03368
C 4.89756 32.70659 -0.02929
C 6.17782 31.98797 -0.00966
C 6.1891 30.47564 -0.03337
C 4.95213 29.83297 0.01227
C 4.85154 28.42101 0.00873
C 6.09263 27.72016 -0.00049
C 6.11514 26.32232 0.00848
C 4.88834 25.61448 -0.01303
C 4.95917 24.09447 -0.01378
C 6.16887 23.48016 0.02635
C 6.14749 22.04808 0.0127
C 4.92066 21.36704 0.01396
C 4.88453 19.96209 0.01849
C 6.15959 19.20428 -0.01142
C 6.1403 17.73971 -0.00562
C 4.86702 17.02603 -0.00494
C 2.44433 2.87197 0.0276
C 2.49559 4.24379 0.00988
C 3.73748 5.01724 -0.01343
C 3.65756 6.38917 0.01087
C 3.73845 30.53535 0.00402
C 2.48564 29.82081 0.0073
C 2.36522 28.38089 0.0174
C 3.65552 27.80669 0.03828
C 3.67618 26.32557 0.01226
C 2.52886 25.52613 -0.00279
C 2.4339 24.16305 0.01996
C 3.74541 23.40921 -0.03996
C 3.61556 21.95845 0.01465
C 4.96793 15.56941 0.00054
C 2.33756 21.22894 -0.00074
C 3.65279 19.26325 0.0086
C 3.64797 17.82944 -0.00643
C 2.44274 17.07543 0.017
C 2.49337 15.66783 -0.03113
C 3.71939 14.81409 -0.02566
C 3.69706 13.42661 -0.00094
C 2.53929 12.87067 0.02322
C 2.44373 8.53988 -0.00725
C 2.44246 7.11192 -0.05697
C 2.40031 19.82702 -0.00518
C 9.8429 24.14956 0.00985
C 6.23589 14.85433 0.03007
C 4.88744 7.02833 0.01572
C 8.61087 14.9549 0.00093
C 8.62335 13.63539 0.00057
C 8.58274 10.56957 -0.01634
C 8.71562 9.30754 -0.00334
C 7.49929 7.11048 0.02339
C 8.64429 6.44796 0.01641
C 8.54873 4.86961 -0.00719
C 7.35987 4.26334 0.01364
C 7.30143 2.84031 -0.01062
C 8.53701 2.08097 -0.00033
C 8.59211 0.70081 0.03589
C 7.35834 0.0555 -0.02759
C 9.81988 32.67446 0.0402
C 11.08486 31.92104 0.00572
C 11.05963 30.52051 0.03592
C 9.80706 29.8642 0.00406
C 9.85555 28.44192 0.00943
C 11.05504 27.68596 0.02841
C 11.10575 26.305 -0.01111
C 7.45883 15.67227 0.01291
C 7.35927 17.06176 0.00438
C 8.60861 17.7909 -0.00191
C 8.66752 19.19437 0.00373
C 6.18005 6.54836 -0.04848
C 6.14352 5.04517 -0.00892
C 4.98011 4.36798 -0.01362
C 4.85097 2.94193 -0.0008
C 6.08676 2.22674 0.0288
C 6.13541 0.75083 0.00393
C 4.86752 0.00735 0.00895
C 7.39754 32.70117 0.00685
C 8.61423 31.98008 0.02888
C 6.19999 13.47543 -0.00095
C 8.55911 30.55316 -0.00482
C 7.33644 28.40261 0.03693
C 8.61424 27.71972 0.01745
C 8.53409 26.27307 0.00488
C 7.3241 25.59568 -0.01004
C 7.38771 24.13404 -0.02896
C 8.6188 23.43276 -0.00131
C 8.5076 22.10552 -0.01118
C 7.34908 21.35325 -0.014
C 7.4528 19.96235 0.02147
C 7.389 29.7957 -0.01384
C 3.70239 31.94552 0.02374
C 18.39479 0.69376 -0.00652
C 19.66753 32.65494 -0.00865
C 30.70357 2.18825 0.00716
C 30.62651 0.72497 0.00307
C 29.44146 0.00244 0.00346
C 31.93651 32.62115 0.01713
C 33.17563 32.00021 -0.01694
C 33.16752 30.5505 0.01428
C 31.98474 29.8492 -0.02142
C 31.97179 28.3697 0.0544
C 33.21093 27.70187 0.00026
C 33.20232 26.31709 0.00682
C 32.00566 25.59324 -0.01779
C 32.01794 24.18348 0.03794
C 33.17131 23.41905 0.01927
C 33.16585 22.0245 0.01574
C 31.93444 21.31209 -0.02383
C 31.89922 19.93527 -0.01429
C 33.22754 19.17419 -0.0136
C 33.23741 17.70789 0.00594
C 32.03225 16.95566 -0.02474
C 29.50312 2.86387 0.02108
C 29.51189 4.30605 0.0103
C 30.76679 4.96646 0.07705
C 30.70786 6.33341 0.01908
C 30.74564 27.67356 0.02326
C 30.74489 26.2729 0.00261
C 29.53976 25.57026 0.03265
C 29.5317 24.05273 -0.02049
C 30.80868 23.40294 -0.01854
C 30.79419 22.02616 -0.01415
C 29.51277 21.32579 -0.03039
C 29.50857 19.86704 0.01836
C 30.69943 19.15291 0.03531
C 32.02476 15.56886 0.00369
C 30.70958 17.69041 -0.00669
C 29.47054 15.64795 0.01705
C 30.69525 14.89407 -0.0405
C 30.69022 13.52107 -0.01303
C 29.49865 12.76192 -0.01461
C 29.53416 11.29775 -0.02155
C 30.77916 10.67607 -0.00944
C 30.77264 9.22533 -0.03735
C 29.58098 8.50545 -0.00971
C 29.49141 7.03039 0.01518
C 29.49906 17.05234 0.0101
C 29.55861 28.3582 0.00924
C 33.21227 14.89284 0.00455
C 31.97033 12.78609 -0.01839
C 34.42403 19.90465 0.01951
C 1.19055 19.18193 -0.01678
C 1.22546 17.83899 0.01223
C 34.42421 17.07653 0.00648
C 0.03412 15.66925 0.02114
C 1.22207 14.96216 -0.02957
C 1.23904 13.48034 0.00343
C 34.41844 12.83325 -0.02656
C 0.09087 11.37648 -0.02442
C 1.26151 10.67865 -0.00027
C 1.26098 9.23032 -0.00583
C 34.40369 8.55758 -0.02302
C 34.41452 7.13336 -0.02849
C 1.22928 6.4454 0.02931
C 1.18416 4.87112 0.00628
C 34.3685 4.22761 -0.0345
C 0.00197 2.8022 -0.00931
C 1.25468 2.1104 -0.00939
C 1.17734 0.69567 -0.00468
C 34.3648 21.3164 -0.02213
C 1.177 21.96996 0.02712
C 1.19835 23.41919 0.00723
C 34.40794 24.09606 0.03076
C 31.98694 11.44436 0.00137
C 33.21002 10.71933 0.00199
C 33.20481 9.24815 0.04381
C 31.95196 8.52545 0.02806
C 31.91622 7.07747 0.01504
C 33.12048 6.41772 -0.00069
C 33.19959 4.99615 0.04926
C 32.01865 4.2339 -0.03838
C 31.97769 2.80197 0.00349
C 33.1631 13.50112 -0.00644
C 33.21172 2.17609 -0.00323
C 31.91853 0.05888 0.0001
C 34.4057 32.71419 -0.02927
C 1.1895 31.95057 -0.01404
C 1.23939 30.58265 0.01027
C 0.0265 29.84514 0.01831
C 0.01635 28.39041 -0.01037
C 1.17956 27.66897 -0.00439
C 1.17862 26.24504 -0.00598
C 34.3896 25.55712 -0.05239
C 33.17993 0.81204 -0.00841
C 17.2097 34.01981 0.0058
C 29.55514 29.78213 0.0014
C 30.6313 31.94597 0.04266
C 22.1632 25.57667 -0.03213
C 22.16888 24.09378 0.02239
C 23.28528 23.37724 0.01153
C 23.31674 21.99038 0.02734
C 22.10247 21.28023 -0.0055
C 22.13544 19.82912 0.01515
C 23.34035 19.19246 -0.00225
C 23.36149 17.71559 0.00071
C 22.11805 17.01045 -0.01107
C 22.30312 15.61522 -0.01586
C 23.28064 14.93846 -0.01971
C 23.41069 0.57412 -0.02118
C 22.12146 0.0282 0.00733
C 24.53005 32.6372 -0.00178
C 25.84319 31.96176 0.00768
C 25.87969 30.49614 -0.0276
C 24.5908 29.84995 0.03005
C 24.48184 28.42585 -0.04078
C 25.70936 27.68344 0.02117
C 23.37713 26.20871 -0.02845
C 23.31619 27.65203 0.03374
C 22.15712 28.37545 0.0296
C 22.1602 29.80425 0.03046
C 20.81273 31.94012 0.00675
C 20.86005 30.46572 -0.00311
C 19.67231 29.76159 0.00742
C 19.69867 28.36823 -0.01594
C 20.96979 27.62594 0.0106
C 20.96072 26.19706 -0.01154
C 19.73381 25.5311 -0.01721
C 19.69459 24.13305 -0.02422
C 20.92401 23.39309 0.01277
C 25.78786 26.28445 0.02737
C 20.90662 22.02782 0.00096
C 19.75542 19.79808 0.01087
C 20.98437 19.07848 0.00199
C 20.88324 17.64832 0.01511
C 19.65126 17.02533 -0.00478
C 20.8765 0.68473 -0.01662
C 19.69599 34.07544 -0.01185
C 22.12895 32.66639 0.01126
C 23.3401 31.93044 0.01852
C 23.34882 30.54134 -0.00381
C 19.71824 21.23455 -0.01527
C 30.7995 30.5198 0.01324
C 24.59709 25.56039 -0.00498
C 25.78061 23.45028 0.03102
C 27.0655 21.21179 0.00487
C 27.01346 19.84381 0.00826
C 28.29131 19.18735 -0.00294
C 28.24915 17.84001 0.00152
C 27.01701 17.03774 0.01257
C 27.03767 15.66386 0.02316
C 28.24133 14.9441 0.04185
C 28.29751 13.50181 0.00194
C 27.09543 12.79923 -0.00621
C 27.06639 11.50079 0.02611
C 28.20791 10.58754 0.02198
C 28.41332 9.27948 0.01094
C 28.35186 6.24465 0.00235
C 28.3581 5.04756 0.01495
C 26.88528 2.70753 0.01259
C 28.28611 2.1951 0.01799
C 28.32587 0.74279 0.01699
C 27.18659 0.0038 -0.00416
C 29.47445 32.68703 0.01177
C 28.28589 21.96289 -0.00942
C 28.25716 23.38961 -0.02815
C 26.97415 24.16799 0.00622
C 26.96128 25.56792 -0.0032
C 25.77791 21.99565 0.02555
C 24.53076 21.26543 0.01423
C 24.5713 19.85169 -0.00285
C 25.74091 19.08746 -0.009
C 25.77747 17.74287 -0.01199
C 24.56208 17.04627 -0.00229
C 24.49728 15.59267 -0.00938
C 25.79178 14.96772 -0.0264
C 25.7513 13.49789 -0.01154
C 24.58366 24.11858 0.00135
C 24.60036 12.85957 0.00684
C 25.85394 0.60436 -0.01679
C 24.62046 34.0397 0.00367
C 27.03032 32.63064 0.04306
C 28.27944 31.96631 0.00996
C 28.39706 30.5923 0.00195
C 27.09957 29.83568 -0.00802
C 26.97075 28.33674 -0.00218
C 28.26753 27.65827 -0.01654
C 28.27863 26.29561 -0.00037
C 25.83606 2.1599 -0.01052
C 2.45151 32.65622 0.03267
