377
Graphene
C 0.01312 0.02854 0.01295
C 16.03084 23.39762 0.03542
C 16.00482 22.05488 0.02299
C 16.03656 10.64447 0.00244
C 16.03534 9.27146 -0.01717
C 16.05589 2.1331 0.05265
C 15.99039 0.72159 -0.01952
C 14.69074 34.03566 -0.02813
C 17.17135 32.63263 0.00374
C 18.4056 31.84555 0.00052
C 18.45038 30.50617 -0.03682
C 17.28153 29.84163 0.01965
C 17.24907 28.35268 0.02058
C 18.48459 27.66439 -0.01957
C 18.49874 26.24725 -0.0108
C 17.20203 25.62771 -0.00368
C 17.23271 24.09571 -0.02696
C 18.43757 23.34924 -0.00114
C 18.38043 21.96593 0.00228
C 17.25465 21.22086 0.00798
C 14.7008 24.15138 0.01416
C 14.72837 25.59879 0.01945
C 15.99237 26.2172 -0.01454
C 15.96587 27.71897 0.01241
C 9.75358 0.10568 -0.00428
C 12.3252 32.68837 0.03101
C 13.53706 31.95501 -0.01536
C 13.54785 30.54762 -0.02689
C 12.32397 29.84225 -0.01046
C 12.30892 28.4174 -0.00891
C 13.55303 27.68009 0.02819
C 13.55234 26.30662 0.00165
C 12.30948 25.66482 -0.02971
C 18.38216 19.22436 0.00422
C 12.28044 24.22237 0.02894
C 13.50959 21.92808 0.00444
C 12.35061 21.31351 -0.00925
C 13.57245 0.73278 0.01877
C 12.38606 0.0214 0.01363
C 14.71474 32.58676 -0.02162
C 15.96691 31.97581 0.00415
C 16.01457 30.49298 -0.0014
C 14.70427 29.80074 0.02162
C 14.77691 28.38414 0.0076
C 13.59895 23.43591 -0.01789
C 11.07407 0.73036 -0.02245
C 17.22166 11.32872 0.0351
C 18.41445 9.31118 0.02098
C 19.68933 17.00287 -0.01979
C 19.67406 15.6388 0.02691
C 20.8959 14.87826 -0.01581
C 20.90427 13.52643 0.01452
C 19.69566 12.73771 0.04892
C 19.65148 11.3814 -0.00111
C 20.89155 10.66632 -0.03557
C 20.93381 9.20713 0.03754
C 19.7352 8.57475 0.01739
C 19.68517 7.07079 0.00755
C 20.93692 6.38732 -0.0054
C 20.9195 4.95652 0.00667
C 19.71591 4.21039 0.00143
C 19.63098 2.83837 -0.017
C 20.89883 2.1274 0.00364
C 20.93177 0.68002 -0.00831
C 19.69818 34.05754 -0.02957
C 22.11136 32.69455 -0.04422
C 23.32077 31.96781 0.00654
C 20.85749 17.77224 0.02188
C 20.82978 19.22796 -0.00316
C 19.61243 19.91089 -0.0331
C 19.65303 21.32078 -0.0258
C 17.23525 8.4496 0.01848
C 17.25671 7.09712 -0.00619
C 18.44223 6.42619 -0.02162
C 18.43753 5.00784 0.00889
C 17.26878 4.29836 -0.00481
C 17.18714 2.86754 0.00979
C 18.45624 2.08303 0.01443
C 18.41168 0.67435 0.03505
C 17.20086 34.0617 -0.02815
C 18.48626 10.67354 -0.03113
C 19.64842 32.66599 -0.04147
C 20.86694 30.53538 0.00213
C 19.63665 29.82841 -0.00066
C 19.67378 28.3856 -0.00289
C 20.8745 27.6964 0.00028
C 20.92169 26.28932 -0.02213
C 19.7247 25.53393 0.03698
C 19.65359 24.09508 -0.00109
C 20.8895 23.3531 -0.00491
C 20.86086 21.97007 0.03338
C 20.90845 31.93919 -0.05302
C 9.74776 19.84917 0.00985
C 9.86981 21.30164 -0.01275
C 11.12249 22.02532 -0.01111
C 3.65578 5.02654 0.00988
C 2.46442 4.23404 0.0276
C 2.42845 2.86341 0.01305
C 3.65703 2.16344 -0.00077
C 3.69578 0.76834 0.03368
C 2.49175 34.02415 -0.02929
C 4.87919 32.67698 -0.00966
C 6.1026 31.98029 -0.03337
C 6.10866 30.55484 0.01227
C 4.93858 29.83361 0.00873
C 4.92605 28.45678 -0.00049
C 6.16673 27.64974 0.00848
C 6.17211 26.30869 -0.01303
C 4.94378 25.60135 -0.01378
C 4.92077 24.16671 0.02635
C 6.09416 23.5006 0.0127
C 6.17346 22.04194 0.01396
C 4.92361 21.29094 0.01849
C 4.913 19.8765 -0.01142
C 3.66387 6.43334 -0.01343
C 2.48245 7.05519 0.01087
C 2.50904 8.54165 -0.05697
C 3.67096 9.20656 -0.00725
C 3.77439 30.50634 0.03267
C 2.48845 29.81332 0.02374
C 2.41145 28.3819 0.00402
C 3.6723 27.78784 0.0073
C 3.68805 26.28636 0.0174
C 2.48772 25.53234 0.03828
C 2.43387 24.15465 0.01226
C 3.72826 23.43051 -0.00279
C 3.65032 21.97974 0.01996
C 6.18775 19.14115 -0.00562
C 2.36336 21.25476 -0.03996
C 3.67883 19.24788 -0.00074
C 3.67035 17.80474 -0.00518
C 2.45976 17.05957 0.0086
C 2.49204 15.65986 -0.00643
C 3.68592 14.84146 0.017
C 3.71844 13.50974 -0.03113
C 2.49457 12.83026 -0.02566
C 2.44454 11.40249 -0.00094
C 3.66595 10.63242 0.02322
C 2.4268 19.83637 0.01465
C 6.15943 17.70706 -0.00494
C 4.96126 17.02809 0.00054
C 4.9249 15.57537 0.03007
C 7.39202 21.33272 0.00438
C 7.38088 19.93399 0.01291
C 8.60499 19.20456 0.00093
C 7.44498 16.98984 0.00057
C 7.45204 15.6541 -0.01634
C 8.64309 13.55973 -0.00334
C 7.35229 12.68793 0.02339
C 7.36483 11.36502 0.01641
C 8.55203 0.73553 -0.00719
C 8.56874 21.97254 -0.00191
C 7.38622 0.01305 0.01364
C 11.04612 31.99202 -0.00033
C 11.04109 30.56014 0.03589
C 9.86264 29.76926 -0.02759
C 9.82696 28.43297 0.0402
C 11.05719 27.72516 0.00572
C 11.07912 26.3153 0.03592
C 9.82554 25.54532 0.00406
C 9.84233 24.13975 0.00943
C 11.10249 23.47775 0.02841
C 9.83104 32.68386 -0.01062
C 23.31915 30.56955 -0.00703
C 8.6425 23.42649 0.00373
C 7.39155 25.60659 -0.014
C 6.16057 14.93479 -0.00095
C 6.1508 13.54308 0.01572
C 4.87692 12.85243 -0.04848
C 4.87804 11.39875 -0.00892
C 6.17102 10.65505 -0.01362
C 6.05142 9.27456 -0.0008
C 4.96232 8.54211 0.0288
C 4.92524 7.09802 0.00393
C 4.91701 4.26649 0.00895
C 7.34849 24.19268 0.02147
C 4.9122 2.9184 0.00685
C 6.15774 0.72978 -0.00482
C 4.84335 34.07592 -0.01384
C 7.33537 32.69736 0.03693
C 8.60314 31.92154 0.01745
C 8.61392 30.50524 0.00488
C 7.30726 29.88447 -0.01004
C 7.33894 28.44417 -0.02896
C 8.65376 27.76925 -0.00131
C 8.63053 26.22308 -0.01118
C 6.13268 2.12118 0.02888
C 3.63451 31.93506 -0.01509
C 22.14104 29.81931 -0.04076
C 23.3468 27.71998 0.0058
C 30.66026 2.12343 0.00716
C 30.68909 0.70178 0.00307
C 29.47691 34.00754 0.00346
C 31.96987 32.70779 0.01713
C 33.14586 31.95162 -0.01694
C 33.21345 30.56656 0.01428
C 31.97878 29.78323 -0.02142
C 31.97946 28.39359 0.0544
C 33.20356 27.72415 0.00026
C 33.22927 26.2851 0.00682
C 31.99238 25.60609 -0.01779
C 31.96962 24.13702 0.03794
C 33.20317 23.43378 0.01927
C 33.19533 22.00283 0.01574
C 31.92652 21.36579 -0.02383
C 32.02072 19.88487 -0.01429
C 33.21838 19.13016 -0.0136
C 33.25091 17.72337 0.00594
C 31.97119 17.0594 -0.02474
C 29.5214 2.87313 0.02108
C 29.51848 4.2687 0.0103
C 30.72906 4.97007 0.07705
C 30.7377 6.38089 0.01908
C 30.73215 27.70658 0.02326
C 30.77381 26.29993 0.00261
C 29.51289 25.46202 0.03265
C 29.54017 24.06883 -0.02049
C 30.77062 23.45294 -0.01854
C 30.74452 22.06663 -0.01415
C 29.54465 21.2565 -0.03039
C 29.47667 19.88168 0.01836
C 30.79165 19.11907 0.03531
C 31.95564 15.56493 0.00369
C 30.71783 17.75837 -0.00669
C 29.48798 15.5904 0.01705
C 30.71978 14.94253 -0.0405
C 30.72759 13.50642 -0.01303
C 29.52152 12.73476 -0.01461
C 29.55738 11.35139 -0.02155
C 30.75462 10.67839 -0.00944
C 30.80047 9.22157 -0.03735
C 29.50475 8.45918 -0.00971
C 29.53347 7.10113 0.01518
C 29.54333 17.00515 0.0101
C 29.48361 28.37603 0.00924
C 33.22415 14.8708 0.00455
C 31.96497 12.79638 -0.01839
C 34.41978 19.89046 0.01951
C 1.24771 19.23839 -0.01678
C 1.22172 17.75518 0.01223
C 0.03737 17.07477 0.00648
C 34.3921 15.63863 0.02114
C 1.22765 14.92077 -0.02957
C 1.23605 13.48705 0.00343
C 0.05144 12.80971 -0.02656
C 0.01589 11.3574 -0.02442
C 1.19049 10.62835 -0.00027
C 1.22473 9.26573 -0.00583
C 34.4317 8.54718 -0.02302
C 0.0247 7.1593 -0.02849
C 1.17311 6.29904 0.02931
C 1.17523 4.92656 0.00628
C 34.41999 4.23136 -0.0345
C 0.06299 2.82423 -0.00931
C 1.19124 2.09551 -0.00939
C 1.20311 0.71535 -0.00468
C 34.40768 21.25849 -0.02213
C 1.17877 22.01392 0.02712
C 1.20946 23.39112 0.00723
C 34.42601 24.21987 0.03076
C 31.97492 11.39549 0.00137
C 33.19036 10.64712 0.00199
C 33.19091 9.21711 0.04381
C 31.92793 8.49706 0.02806
C 31.90694 7.11967 0.01504
C 33.20036 6.42005 -0.00069
C 33.24497 4.92675 0.04926
C 31.98027 4.26749 -0.03838
C 31.93292 2.88702 0.00349
C 33.22732 13.49602 -0.00644
C 33.18969 2.18142 -0.00323
C 31.94279 0.01458 0.0001
C 34.39891 32.65613 -0.02927
C 1.22601 31.99669 -0.01404
C 1.25482 30.53772 0.01027
C 0.01803 29.82712 0.01831
C 34.41597 28.37905 -0.01037
C 1.21677 27.67239 -0.00439
C 1.22281 26.28134 -0.00598
C 34.41489 25.65625 -0.05239
C 33.20565 0.6511 -0.00841
C 29.51013 29.78256 0.0014
C 30.69194 30.50927 0.01324
C 30.74477 31.96074 0.04266
C 23.39992 0.70508 -0.02845
C 22.07536 34.02392 -0.03213
C 24.5687 32.68678 0.02239
C 25.8394 31.94163 0.01153
C 25.7962 30.46795 0.02734
C 24.54065 29.82951 -0.0055
C 24.61239 28.36706 0.01515
C 25.82356 27.69559 -0.00225
C 25.83695 26.30197 0.00071
C 24.56708 25.53543 -0.01107
C 24.61543 24.07858 -0.01586
C 25.81586 23.40901 -0.01971
C 25.77719 21.99634 -0.02118
C 24.60454 21.27766 0.00733
C 24.619 19.83668 -0.00178
C 25.8047 19.20043 0.00768
C 25.7277 17.76391 -0.0276
C 24.51269 17.02439 0.03005
C 24.57535 15.55467 -0.04078
C 23.3358 2.12593 0.03374
C 22.17809 2.82688 0.0296
C 22.15916 4.24335 0.03046
C 23.26916 4.97374 -0.00381
C 23.31067 26.20996 -0.00865
C 22.14778 25.53943 0.00675
C 22.13686 24.10849 -0.00311
C 23.40656 23.37073 0.00742
C 23.40775 21.94376 -0.01594
C 22.17793 21.27845 0.0106
C 22.1086 19.89059 -0.01154
C 23.37196 19.09978 -0.01721
C 23.30679 17.71562 -0.02422
C 25.79648 14.95312 0.02117
C 22.16359 16.96752 0.01277
C 23.42258 14.8539 -0.01527
C 23.35303 13.43482 0.01087
C 22.1301 12.75228 0.00199
C 22.1356 11.35432 0.01511
C 23.36889 10.63063 -0.00478
C 23.39395 9.24303 -0.01662
C 22.11099 8.50021 -0.01185
C 22.15629 7.1033 0.01126
C 23.40481 6.36144 0.01852
C 22.18062 15.61505 0.00096
C 25.86928 13.54602 0.02737
C 24.62656 12.83232 -0.00498
C 24.64447 11.29796 0.00135
C 28.27013 19.16488 -0.00942
C 28.30271 17.75416 0.00487
C 27.0118 17.10863 0.00826
C 27.00907 15.63743 -0.00294
C 28.2779 14.93216 0.00152
C 28.25072 13.51492 0.01257
C 27.04601 12.75958 0.02316
C 27.09032 11.36811 0.04185
C 28.28788 10.7226 0.00194
C 27.04269 19.82527 -0.02815
C 28.30487 9.29549 -0.00621
C 27.09909 7.10142 0.02198
C 28.34723 6.35497 0.01094
C 28.22098 4.93135 0.00235
C 27.06956 4.27494 0.01495
C 27.04512 2.81649 0.01259
C 28.41939 2.16724 0.01799
C 28.25883 0.732 0.01699
C 27.06001 34.05547 -0.00416
C 29.52375 32.63093 0.01177
C 26.9725 8.53558 0.02611
C 22.09136 28.42105 -0.00652
C 27.00649 21.28005 0.00622
C 28.25147 23.40444 -0.00037
C 25.85851 10.59792 0.03102
C 25.73038 9.17588 0.02555
C 24.56892 8.51337 0.01423
C 24.55919 7.10341 -0.00285
C 25.7951 6.35889 -0.009
C 25.7883 4.98537 -0.01199
C 24.57599 4.27608 -0.00229
C 24.59163 2.8414 -0.00938
C 25.81616 2.15217 -0.0264
C 28.30441 21.9213 -0.0032
C 25.86956 0.72077 -0.01154
C 27.05457 32.61163 -0.01052
C 28.29629 31.94325 -0.01679
C 28.37054 30.60475 0.00367
C 27.06656 29.83725 0.04306
C 27.01258 28.3504 0.00996
C 28.26769 27.66625 0.00195
C 28.28586 26.30126 -0.00802
C 27.01108 25.60734 -0.00218
C 27.04972 24.13069 -0.01654
C 24.65285 0.05409 0.00684
C 2.48544 32.66978 0.00643
