377
Graphene
C 34.38679 0.04426 0.01295
C 14.75016 29.85402 0.03542
C 14.73 28.42118 0.02299
C 15.99167 27.74454 0.00244
C 16.01845 26.30971 -0.01717
C 14.78096 25.57384 0.05265
C 14.89556 24.21963 -0.01952
C 15.87322 23.4693 -0.02813
C 14.80404 11.27647 0.00374
C 15.99174 10.66406 0.00052
C 15.98384 9.15538 -0.03682
C 14.78066 8.43348 0.01965
C 14.85076 7.07449 0.02058
C 16.05787 6.32854 -0.01957
C 16.00965 4.93225 -0.0108
C 14.76561 4.22597 -0.00368
C 14.74928 2.84222 -0.02696
C 15.96996 2.07352 -0.00114
C 15.94708 0.60658 0.00228
C 14.71951 33.98271 0.00798
C 15.98102 30.55368 0.01416
C 15.96898 31.90786 0.01945
C 14.7171 32.63256 -0.01454
C 12.24396 0.06438 0.01241
C 12.22353 32.72309 -0.00428
C 13.4433 31.98444 0.03101
C 13.59032 30.59891 -0.01536
C 12.38931 29.84048 -0.02689
C 12.27392 28.35022 -0.01046
C 13.51434 27.72533 -0.00891
C 13.59752 26.33542 0.02819
C 12.38707 25.62846 0.00165
C 12.19612 24.26061 -0.02971
C 17.20772 32.60708 0.00422
C 12.2572 11.42895 0.02894
C 13.5922 9.17838 0.00444
C 12.32979 8.50563 -0.00925
C 12.37335 7.06705 0.01877
C 13.5753 6.35058 0.01363
C 13.5163 4.97692 -0.02162
C 12.29962 4.22567 0.00415
C 12.27847 2.82399 -0.0014
C 13.54131 2.05645 0.02162
C 13.53323 0.66436 0.0076
C 13.5194 10.70824 -0.01789
C 9.79237 0.04673 -0.02245
C 18.41994 32.00853 0.0351
C 17.2027 29.89886 0.02098
C 19.65366 28.41173 -0.01979
C 20.86228 27.58968 0.02691
C 20.96274 26.18095 -0.01581
C 19.68617 25.54966 0.01452
C 19.63676 24.19008 0.04892
C 20.83223 23.41191 -0.00111
C 20.93843 22.04566 -0.03557
C 19.5987 21.2754 0.03754
C 19.90197 19.95093 0.01739
C 20.85959 19.06987 0.00755
C 21.14153 17.64885 -0.0054
C 19.91912 15.54864 0.00667
C 20.87945 14.81115 0.00143
C 20.73983 13.52006 -0.017
C 19.56583 12.66745 0.00364
C 19.63379 11.28753 -0.00831
C 20.88276 10.62154 -0.02957
C 20.86156 9.1724 -0.04422
C 19.6276 8.5194 0.00654
C 19.63293 29.84629 0.02188
C 20.87259 30.52642 -0.00316
C 20.91293 31.98208 -0.0331
C 19.66683 32.65355 -0.0258
C 17.21909 28.48098 0.01848
C 18.47074 27.71434 -0.00619
C 18.49669 26.2925 -0.02162
C 17.2703 25.56082 0.00889
C 17.20946 24.11205 -0.00481
C 18.46032 23.37883 0.00979
C 18.45239 22.00527 0.01443
C 18.35559 13.31678 0.03505
C 17.21836 11.34619 -0.02815
C 18.40311 30.62541 -0.03113
C 18.39287 10.62396 -0.04147
C 17.22546 8.51721 0.00213
C 17.22554 7.11492 -0.00066
C 18.39225 6.41658 -0.00289
C 18.37689 4.98976 0.00028
C 17.20937 4.19057 -0.02213
C 17.20731 2.76118 0.03698
C 18.41198 2.02788 -0.00109
C 18.41468 0.60844 -0.00491
C 17.17358 34.02819 0.03338
C 18.38484 9.20353 -0.05302
C 11.01305 0.76431 0.00985
C 11.09044 2.09399 -0.01275
C 9.92508 2.87233 -0.01111
C 6.10119 31.99339 0.00988
C 6.11926 30.56262 0.0276
C 4.93029 29.78515 0.01305
C 4.93934 28.40742 -0.00077
C 6.03201 27.8801 0.03368
C 6.1316 17.50632 -0.02929
C 4.8771 17.16317 -0.00966
C 4.86642 15.64221 -0.03337
C 6.13491 15.0004 0.01227
C 6.04919 13.51388 0.00873
C 4.85173 12.80371 -0.00049
C 4.90295 11.41207 0.00848
C 6.11047 10.69984 -0.01303
C 6.11616 9.2998 -0.01378
C 4.89395 8.6457 0.02635
C 4.92185 7.19389 0.0127
C 6.10499 6.46223 0.01396
C 6.12217 4.9923 0.01849
C 4.90477 4.22106 -0.01142
C 4.83419 32.66604 -0.01343
C 2.51847 34.06675 0.01087
C 3.75082 0.6834 -0.05697
C 3.68141 2.16504 -0.00725
C 3.69618 30.56196 0.03267
C 2.49069 29.75802 0.02374
C 2.41765 28.47096 0.00402
C 2.30416 21.40437 0.0073
C 2.44334 20.12741 0.0174
C 3.6263 17.78303 0.03828
C 2.47091 17.10625 0.01226
C 2.47822 15.59679 -0.00279
C 3.62751 14.84089 0.01996
C 4.92612 2.82588 -0.00562
C 3.60283 13.43113 -0.03996
C 2.38863 11.33008 -0.00074
C 3.6309 10.71292 -0.00518
C 3.6449 9.30285 0.0086
C 2.46202 8.50851 -0.00643
C 2.43717 6.98479 0.017
C 3.68786 6.43393 -0.03113
C 3.71305 4.99335 -0.02566
C 2.47475 4.27179 -0.00094
C 2.46416 2.86942 0.02322
C 2.35463 12.78558 0.01465
C 6.18414 2.13926 -0.00494
C 6.15212 0.68982 0.00054
C 4.97076 0.0296 0.03007
C 7.33483 0.0068 0.00438
C 9.84756 32.73471 0.01291
C 10.99689 31.99653 0.00093
C 11.12385 30.58309 0.00057
C 9.88111 29.87934 -0.01634
C 9.82821 28.41672 -0.00334
C 11.05643 27.6597 0.02339
C 11.06198 26.20493 0.01641
C 9.73642 25.59003 -0.00719
C 8.60484 0.72148 -0.00191
C 9.82249 24.05755 0.01364
C 9.69814 12.84734 -0.00033
C 9.84452 11.39477 0.03589
C 11.08866 10.71084 -0.02759
C 11.07275 9.20518 0.0402
C 9.85017 8.57397 0.00572
C 9.90799 7.14661 0.03592
C 11.12334 6.4255 0.00406
C 11.09386 5.03446 0.00943
C 9.89192 4.25816 0.02841
C 11.19449 23.651 -0.01062
C 19.65377 7.13958 -0.00703
C 8.62824 2.14906 0.00373
C 7.40074 4.30485 -0.014
C 7.32847 32.73051 -0.00095
C 8.62045 32.06495 0.01572
C 8.65037 30.6562 -0.04848
C 7.36591 29.90713 -0.00892
C 7.3475 28.45941 -0.01362
C 8.57249 27.72235 -0.0008
C 8.64646 26.3866 0.0288
C 8.73795 23.28119 0.00393
C 8.60204 22.06295 0.00895
C 7.40193 2.86937 0.02147
C 7.3426 16.97443 0.00685
C 8.60033 13.46043 -0.00482
C 7.36388 12.88437 -0.01384
C 7.35858 11.41488 0.03693
C 8.58812 10.70695 0.01745
C 8.58002 9.23649 0.00488
C 7.38396 8.5744 -0.01004
C 7.37526 7.15848 -0.02896
C 8.6203 6.43942 -0.00131
C 8.63506 5.06191 -0.01118
C 7.35627 15.70829 0.02888
C 3.6901 31.91418 -0.01509
C 20.84918 6.43852 -0.04076
C 19.59032 4.23763 0.0058
C 29.47277 2.87876 0.00716
C 30.66257 2.15731 0.00307
C 30.71631 0.75058 0.00346
C 29.49578 0.03614 0.01713
C 31.90158 32.62264 -0.01694
C 33.18901 31.98571 0.01428
C 33.19753 30.57111 -0.02142
C 31.948 29.84298 0.0544
C 31.99665 28.40415 0.00026
C 33.21685 27.72152 0.00682
C 33.1964 26.3127 -0.01779
C 31.99513 25.53799 0.03794
C 31.94874 24.17556 0.01927
C 33.18652 23.50407 0.01574
C 33.14901 22.02144 -0.02383
C 31.97561 21.24817 -0.01429
C 32.02585 19.82893 -0.0136
C 33.24489 19.12885 0.00594
C 33.18937 17.70955 -0.02474
C 29.48109 4.25835 0.02108
C 30.7261 5.02638 0.0103
C 30.72323 6.41128 0.07705
C 29.45242 7.07335 0.01908
C 29.49323 28.43033 0.02326
C 30.77975 27.68494 0.00261
C 30.76353 26.25718 0.03265
C 29.48004 25.60381 -0.02049
C 29.48719 24.06324 -0.01854
C 30.76752 23.38836 -0.01415
C 30.69148 21.96663 -0.03039
C 29.49862 21.2848 0.01836
C 29.54168 19.88878 0.03531
C 31.96467 17.00861 0.00369
C 30.79841 19.12777 -0.00669
C 29.45803 17.09662 0.01705
C 29.43397 15.63367 -0.0405
C 30.71663 14.89159 -0.01303
C 30.7688 13.48633 -0.01461
C 29.5159 12.78295 -0.02155
C 29.5636 11.38511 -0.00944
C 30.77729 10.57954 -0.03735
C 30.69481 9.22313 -0.00971
C 29.40989 8.5216 0.01518
C 30.74118 17.70128 0.0101
C 29.47712 29.84456 0.00924
C 31.93608 15.58304 0.00455
C 33.25749 13.51848 -0.01839
C 0.03411 19.90336 0.01951
C 1.28763 19.25642 -0.01678
C 1.25547 17.85977 0.01223
C 34.42979 17.13523 0.00648
C 0.02796 15.68548 0.02114
C 1.21877 14.94818 -0.02957
C 1.20857 13.52969 0.00343
C 34.4258 12.83614 -0.02656
C 0.00565 11.34916 -0.02442
C 1.21887 10.64644 -0.00027
C 1.23201 9.24051 -0.00583
C 34.42477 8.56552 -0.02302
C 0.03037 7.11188 -0.02849
C 1.20527 6.34594 0.02931
C 1.17897 4.90469 0.00628
C 34.39081 4.21101 -0.0345
C 34.39212 2.79548 -0.00931
C 1.21626 2.08729 -0.00939
C 1.22163 0.68673 -0.00468
C 34.37873 21.35453 -0.02213
C 1.16789 21.96864 0.02712
C 0.00874 24.03809 0.00723
C 0.09739 25.56709 0.03076
C 32.01577 12.81981 0.00137
C 32.02514 11.3803 0.00199
C 33.23057 10.62465 0.04381
C 33.12685 9.23454 0.02806
C 31.9477 8.45644 0.01504
C 31.98368 7.07194 -0.00069
C 33.24925 6.40771 0.04926
C 33.19624 4.95859 -0.03838
C 31.94796 4.28083 0.00349
C 33.19286 14.92284 -0.00644
C 31.9212 2.88444 -0.00323
C 33.13292 0.68263 0.0001
C 31.9124 34.04241 -0.02927
C 0.01321 32.70157 -0.01404
C 1.22297 31.98147 0.01027
C 1.25897 30.53302 0.01831
C 0.00424 29.78637 -0.01037
C 34.42628 28.43692 -0.00439
C 1.28107 27.73009 -0.00598
C 1.10409 26.37876 -0.05239
C 33.17907 2.171 -0.00841
C 30.69926 30.50677 0.0014
C 30.70547 31.90131 0.01324
C 29.53509 32.76632 0.04266
C 22.08689 7.13002 -0.02845
C 23.32121 6.36097 -0.03213
C 23.31436 4.85646 0.02239
C 22.04616 4.22135 0.01153
C 22.13488 2.84972 0.02734
C 23.37324 2.10543 -0.0055
C 23.37628 0.67204 0.01515
C 22.1907 34.00054 -0.00225
C 24.67045 32.60324 0.00071
C 25.86886 31.88849 -0.01107
C 25.77925 30.45695 -0.01586
C 24.54791 29.74544 -0.01971
C 24.58323 28.35699 -0.02118
C 25.819 27.62652 0.00733
C 25.8424 26.27336 -0.00178
C 24.6635 25.54623 0.00768
C 24.50348 24.12403 -0.0276
C 25.72387 23.36823 0.03005
C 25.81405 21.99206 -0.04078
C 22.11301 8.56293 0.03374
C 23.31204 9.23537 0.0296
C 23.32808 10.76842 0.03046
C 22.0504 11.43122 -0.00381
C 19.62345 2.78701 -0.00865
C 20.81463 2.05912 0.00675
C 20.94687 0.64766 -0.00311
C 19.66937 34.04529 0.00742
C 22.16323 32.65631 -0.01594
C 23.41858 31.92881 0.0106
C 23.34542 30.45513 -0.01154
C 22.07864 29.77573 -0.01721
C 22.1354 28.30131 -0.02422
C 24.58047 21.28562 0.02117
C 23.33168 27.6753 0.01277
C 22.21829 25.46851 -0.01527
C 22.0986 24.1144 0.01087
C 23.27657 23.40632 0.00199
C 23.33751 22.01259 0.01511
C 22.11597 21.30397 -0.00478
C 22.17553 19.84895 -0.01662
C 23.42172 19.14174 -0.01185
C 23.35934 17.74919 0.01126
C 22.25969 17.12915 0.01852
C 23.43704 26.25609 0.00096
C 24.57078 19.90688 0.02737
C 25.78966 19.11185 -0.00498
C 25.74281 17.78633 0.00135
C 27.07795 19.86279 -0.00942
C 28.31868 19.20908 0.00487
C 28.25646 17.79287 0.00826
C 26.94804 16.97729 -0.00294
C 27.07561 15.63493 0.00152
C 28.22537 14.91499 0.01257
C 28.32514 13.541 0.02316
C 27.08935 12.83882 0.04185
C 26.97253 11.43272 0.00194
C 27.00403 21.27778 -0.02815
C 28.26145 10.74728 -0.00621
C 27.04505 8.49703 0.02198
C 27.00671 7.11378 0.01094
C 28.27763 6.36788 0.00235
C 28.27873 4.9681 0.01495
C 27.07519 4.30786 0.01259
C 27.08599 2.90759 0.01799
C 28.3009 2.09698 0.01699
C 28.2575 0.71789 -0.00416
C 27.09385 34.05778 0.01177
C 28.25182 9.31311 0.02611
C 20.83059 4.95916 -0.00652
C 28.24032 21.92856 0.00622
C 27.00124 24.06614 -0.00037
C 24.56843 11.29617 0.03102
C 25.8267 10.62729 0.02555
C 25.7974 9.13398 0.01423
C 24.56346 8.47874 -0.00285
C 24.50498 7.0551 -0.009
C 25.77746 6.44027 -0.01199
C 25.83315 4.9599 -0.00229
C 24.54453 4.24641 -0.00938
C 24.61272 2.83125 -0.0264
C 28.22256 23.35233 -0.0032
C 25.86858 2.18248 -0.01154
C 24.66983 0.05766 -0.01052
C 27.03456 32.64835 -0.01679
C 28.31714 31.97227 0.00367
C 28.24567 30.5501 0.04306
C 27.06209 29.77789 0.00996
C 27.02091 28.35443 0.00195
C 28.25798 27.68226 -0.00802
C 28.27392 26.25658 -0.00218
C 27.07469 25.5005 -0.01654
C 25.87915 0.74981 0.00684
C 2.45378 32.6432 0.00643
