436
Graphene
C 0.03314 0.00963 0.01295
C 13.58606 9.22406 0.02339
C 12.27161 8.60892 0.01641
C 12.27994 7.17706 -0.00719
C 13.54607 6.38935 0.01364
C 13.57617 5.00178 -0.01062
C 12.35303 4.30106 -0.00033
C 12.24638 2.82596 0.03589
C 13.4737 2.09212 -0.02759
C 13.48178 0.57769 0.0402
C 12.28958 34.0177 0.00572
C 14.84624 32.68202 0.03592
C 16.02353 31.90206 0.00406
C 16.04556 30.50365 0.00943
C 14.80303 29.79338 0.02841
C 14.71235 28.48647 -0.01111
C 15.97309 27.64414 -0.01275
C 15.9665 26.19711 0.00985
C 14.70964 25.51061 -0.02245
C 14.80851 24.07554 -0.00428
C 15.9304 23.39674 0.03101
C 15.96813 22.03512 -0.01536
C 14.68125 21.2468 -0.02689
C 14.776 19.89739 -0.01046
C 13.43795 10.70898 -0.00334
C 15.97519 19.20042 -0.00891
C 12.29857 11.40594 -0.01634
C 13.54792 13.50313 0.00093
C 9.85364 8.52808 -0.00892
C 9.84231 7.1322 -0.01362
C 11.09514 6.40962 -0.0008
C 11.11483 5.03014 0.0288
C 9.83725 4.38618 0.00393
C 9.79159 2.89884 0.00895
C 11.01408 2.18831 0.00685
C 11.08036 0.65533 0.02888
C 9.86054 34.07532 -0.00482
C 12.35323 32.66363 -0.01384
C 13.62029 31.92429 0.03693
C 13.50972 30.47262 0.01745
C 12.2554 29.85398 0.00488
C 12.2797 28.38068 -0.01004
C 13.44323 27.68279 -0.02896
C 13.55423 26.27619 -0.00131
C 12.38314 25.58994 -0.01118
C 12.29816 24.15571 -0.014
C 13.54624 23.45136 0.02147
C 13.47839 22.16224 0.00373
C 13.52514 17.81848 -0.00191
C 12.29591 15.4997 0.00438
C 13.5407 14.88998 0.01291
C 12.3263 12.85947 0.00057
C 16.01847 17.71254 0.02819
C 14.67492 17.10355 0.00165
C 14.72952 15.65853 -0.02971
C 18.44584 19.14226 -0.0108
C 18.52121 17.8022 -0.00368
C 17.23991 17.01032 -0.02696
C 17.23857 15.59339 -0.00114
C 18.46893 14.89004 0.00228
C 18.46627 13.43982 0.00798
C 17.15157 12.78088 0.00422
C 17.18311 11.34336 0.0351
C 18.48477 10.59187 -0.03113
C 18.47762 9.16495 0.02098
C 17.20925 8.55522 0.01848
C 17.13855 7.10098 -0.00619
C 18.37773 6.40415 -0.02162
C 18.36093 5.02519 0.00889
C 17.19298 4.29599 -0.00481
C 17.21773 2.85588 0.00979
C 18.48412 2.09447 0.01443
C 18.46162 0.70852 0.03505
C 17.2044 0.03177 -0.02815
C 19.69088 32.69311 -0.04147
C 20.94302 31.96637 -0.05302
C 20.8839 30.55726 0.00213
C 19.68702 29.78497 -0.00066
C 17.21569 19.85495 -0.01957
C 17.19749 21.30689 0.02058
C 18.48126 22.04555 0.01965
C 18.39064 23.43134 -0.03682
C 15.92552 14.9569 0.02894
C 15.9047 13.51612 -0.01789
C 14.74245 12.76798 0.00444
C 14.68884 11.36794 -0.00925
C 15.9677 10.66003 0.01877
C 16.01981 9.21196 0.01363
C 14.74918 8.49391 -0.02162
C 14.75478 7.03245 0.00415
C 15.92823 6.35965 -0.0014
C 15.96628 4.94732 0.02162
C 14.72352 4.24593 0.0076
C 11.09468 9.24392 -0.04848
C 14.79831 2.82425 0.01241
C 15.95302 0.73796 0.01945
C 14.77619 34.04738 0.01416
C 17.198 32.66923 0.03542
C 18.42953 31.98083 0.02299
C 18.46279 30.57905 0.00244
C 17.24679 29.76134 -0.01717
C 17.18604 28.41126 0.05265
C 18.4171 27.71102 -0.01952
C 18.41242 26.2715 -0.02813
C 17.19029 25.55502 0.00374
C 17.20447 24.18983 0.00052
C 16.00779 2.10728 -0.01454
C 19.69936 28.39257 -0.00289
C 11.09087 10.67014 0.01572
C 9.82501 12.79122 0.03007
C 3.65068 2.1961 -0.02375
C 3.71201 0.7606 0.00558
C 2.48334 34.03002 -0.0059
C 4.87852 32.66227 -0.01386
C 6.1322 31.96635 -0.02805
C 6.19907 30.47908 0.00081
C 4.98668 29.83905 0.00245
C 4.91795 28.40026 0.02728
C 6.20915 27.63101 -0.00039
C 6.16855 26.23982 0.0064
C 4.85092 25.54412 0.00211
C 4.88556 24.20633 -0.00449
C 6.15619 23.43657 -0.01979
C 6.17139 21.97968 0.02784
C 4.91607 21.30666 -0.01977
C 4.95063 19.85286 -0.00561
C 6.1421 19.12976 0.00208
C 6.22691 17.71806 0.01707
C 4.82637 16.98737 0.02769
C 4.88723 15.70876 -0.03291
C 6.10751 14.96349 -0.04999
C 6.12206 13.51578 0.04505
C 4.96848 12.81258 0.03284
C 2.42953 2.78678 0.00828
C 4.96025 11.37397 -0.04307
C 2.49153 4.30074 0.00088
C 3.68469 6.43189 -0.00177
C 3.68281 30.51172 0.01984
C 2.41286 29.74593 0.00535
C 2.45486 28.35338 -0.00198
C 3.73813 27.67283 -0.00012
C 3.68622 26.24722 -0.04306
C 2.47197 25.61099 -0.03672
C 2.46254 24.20362 0.01913
C 3.64961 23.47137 0.00267
C 3.73074 22.01227 0.00787
C 2.5387 21.33593 0.02426
C 2.49698 19.92065 0.01218
C 3.64826 19.06244 -0.01471
C 3.64214 17.6892 -0.02827
C 2.37635 17.03607 0.01078
C 2.39131 15.53994 -0.00112
C 3.69216 14.89246 0.03345
C 3.67558 13.50482 0.00748
C 2.43675 12.80457 0.00662
C 2.46503 11.29834 -0.0154
C 3.67651 10.68518 -0.01299
C 3.66742 9.28424 -0.00407
C 2.499 8.53602 0.01138
C 2.42626 7.08032 0.03278
C 3.68793 4.97364 0.04421
C 6.18618 10.69024 0.03189
C 6.13415 9.2536 0.00031
C 4.88472 8.56502 -0.003
C 8.65788 9.23233 -0.01343
C 7.39272 8.58763 0.00988
C 7.35571 7.15885 0.0276
C 8.60189 6.48854 0.01305
C 8.56053 5.10246 -0.00077
C 7.35212 4.32582 0.03368
C 7.37016 2.88457 -0.02929
C 8.55045 2.13472 -0.00966
C 8.62356 0.753 -0.03337
C 7.41099 34.07214 0.01227
C 9.85122 32.65133 0.00873
C 11.05396 32.00257 -0.00049
C 11.03517 30.6094 0.00848
C 9.83065 29.84737 -0.01303
C 9.76302 28.4099 -0.01378
C 10.98344 27.73138 0.02635
C 11.09683 26.23405 0.0127
C 9.88372 25.57718 0.01396
C 9.80301 24.18106 0.01849
C 11.01724 23.4942 -0.01142
C 9.89769 15.67309 -0.00562
C 11.09215 14.90999 -0.00494
C 11.05755 13.47279 0.00054
C 8.5518 10.62888 0.01087
C 7.378 11.35461 -0.05697
C 7.32157 12.81668 -0.00725
C 8.53464 13.50015 0.02322
C 4.85098 7.13064 0.01402
C 6.09089 6.3834 0.02379
C 6.13888 5.02033 0.00907
C 4.87026 4.28286 0.00643
C 4.92696 2.90152 -0.01509
C 6.15203 2.12191 0.03267
C 6.15955 0.69402 0.02374
C 4.91574 0.02929 0.00402
C 7.41487 32.66397 0.0073
C 8.65069 31.99989 0.0174
C 8.60543 30.52658 0.03828
C 9.80717 11.3741 -0.00095
C 7.36201 29.80416 0.01226
C 8.5281 27.75502 0.01996
C 8.66107 26.28768 -0.03996
C 7.39723 25.50942 0.01465
C 7.43492 24.09402 -0.00074
C 8.62073 23.44693 -0.00518
C 8.61153 22.08401 0.0086
C 7.45957 21.28908 -0.00643
C 7.31354 19.8779 0.017
C 7.36708 17.02073 -0.03113
C 7.37146 15.67044 -0.02566
C 8.67741 14.97779 -0.00094
C 7.37582 28.31448 -0.00279
C 20.97261 27.66978 0.00028
C 20.92742 26.29477 -0.02213
C 19.6728 25.59517 0.03698
C 30.76222 14.85943 -0.0405
C 30.6821 13.49168 -0.01303
C 29.56494 12.71628 -0.01461
C 29.4735 11.30166 -0.02155
C 30.70057 10.67148 -0.00944
C 30.70314 9.18491 -0.03735
C 29.47044 8.55458 -0.00971
C 29.5149 7.12167 0.01518
C 30.74674 6.32516 0.01908
C 30.76545 4.95962 0.07705
C 29.52722 4.3005 0.0103
C 29.59959 2.80461 0.02108
C 30.76113 2.05936 0.00716
C 30.75837 0.68191 0.00307
C 29.54117 34.02911 0.00346
C 31.93303 32.63267 0.01713
C 33.20242 31.92575 -0.01694
C 33.20194 30.5446 0.01428
C 31.96264 29.8443 -0.02142
C 31.99889 28.46915 0.0544
C 33.20776 27.72518 0.00026
C 33.22806 26.34833 0.00682
C 31.92869 25.60185 -0.01779
C 29.53378 15.62816 0.01705
C 31.96726 24.14463 0.03794
C 29.57877 17.07579 0.0101
C 30.75377 19.16645 0.03531
C 28.24621 9.18571 -0.00621
C 27.02526 8.54589 0.02611
C 27.07488 7.13312 0.02198
C 28.31131 6.44723 0.01094
C 28.21867 4.88209 0.00235
C 26.99931 4.22413 0.01495
C 27.05483 2.81695 0.01259
C 28.36627 2.12351 0.01799
C 28.23374 0.65809 0.01699
C 26.9931 34.06675 -0.00416
C 29.51623 32.59532 0.01177
C 30.68008 31.91944 0.04266
C 30.74019 30.46261 0.01324
C 29.50442 29.87751 0.0014
C 29.53677 28.44636 0.00924
C 30.75348 27.69863 0.02326
C 30.72227 26.23642 0.00261
C 29.44812 25.50092 0.03265
C 29.45239 24.15405 -0.02049
C 30.7458 23.44752 -0.01854
C 30.81123 21.97964 -0.01415
C 29.52735 21.29186 -0.03039
C 29.4641 19.92082 0.01836
C 30.74998 17.78715 -0.00669
C 33.19235 23.50481 0.01927
C 33.17679 22.04139 0.01574
C 31.93918 21.29401 -0.02383
C 0.00267 24.20467 0.03076
C 1.24247 23.45597 0.00723
C 1.24954 22.01802 0.02712
C 34.40135 21.27315 -0.02213
C 34.3905 19.8597 0.01951
C 1.20908 19.21991 -0.01678
C 1.20085 17.8393 0.01223
C 34.4264 16.97871 0.00648
C 0.00403 15.56756 0.02114
C 1.1613 14.88676 -0.02957
C 1.22461 13.49201 0.00343
C 0.02162 12.77906 -0.02656
C 34.34418 11.28828 -0.02442
C 1.16957 10.62363 -0.00027
C 1.25593 9.23368 -0.00583
C 0.00168 8.46819 -0.02302
C 34.39383 7.09705 -0.02849
C 1.25951 6.34688 0.02931
C 1.2574 4.94877 0.00628
C 0.03409 4.25442 -0.0345
C 34.42937 2.79047 -0.00931
C 1.24467 2.0474 -0.00939
C 1.22568 0.68337 -0.00468
C 34.39212 25.57258 -0.05239
C 1.22606 26.25867 -0.00598
C 1.28197 27.66928 -0.00439
C 0.00664 28.42811 -0.01037
C 31.88411 19.88338 -0.01429
C 33.10693 19.13537 -0.0136
C 33.20476 17.66373 0.00594
C 31.93592 17.02133 -0.02474
C 32.03718 15.60102 0.00369
C 33.23433 14.87435 0.00455
C 33.08439 13.46618 -0.00644
C 31.88702 12.70088 -0.01839
C 31.96803 11.33557 0.00137
C 33.17495 10.60347 0.00199
C 33.2498 9.16327 0.04381
C 28.32324 10.59079 0.00194
C 31.98901 8.51635 0.02806
C 33.16796 6.38437 -0.00069
C 33.23534 4.89012 0.04926
C 31.93992 4.23455 -0.03838
C 31.95308 2.82404 0.00349
C 33.25519 2.06 -0.00323
C 33.28508 0.65244 -0.00841
C 31.95333 34.0103 0.0001
C 1e-05 32.65488 -0.02927
C 1.23973 31.93489 -0.01404
C 1.24068 30.51244 0.01027
C 0.05248 29.85257 0.01831
C 31.94223 7.08048 0.01504
C 27.069 11.36193 0.04185
C 27.11818 12.78054 0.02316
C 28.3522 13.48564 0.01257
C 22.18153 28.43778 -0.00652
C 23.38913 27.71871 0.0058
C 23.41591 26.18171 -0.00865
C 22.1263 25.5505 0.00675
C 22.14329 24.15063 -0.00311
C 23.33483 23.4894 0.00742
C 23.32167 22.02521 -0.01594
C 22.12501 21.33672 0.0106
C 22.07811 19.91592 -0.01154
C 23.32737 19.16301 -0.01721
C 23.37843 17.78318 -0.02422
C 22.09638 17.10439 0.01277
C 22.12617 15.58204 0.00096
C 23.3578 14.94117 -0.01527
C 23.4144 13.50668 0.01087
C 22.20583 12.74128 0.00199
C 22.11897 11.33162 0.01511
C 23.39896 10.69847 -0.00478
C 23.40265 9.23837 -0.01662
C 22.26648 8.54984 -0.01185
C 22.11179 7.14205 0.01126
C 23.35567 6.34063 0.01852
C 23.34655 4.93001 -0.00381
C 22.01599 29.84272 -0.04076
C 23.2698 30.58157 -0.00703
C 23.3138 31.96633 0.00654
C 22.1053 32.67749 -0.04422
C 19.69406 24.126 -0.00109
C 20.81897 23.36292 -0.00491
C 20.89901 21.98616 0.03338
C 19.62625 21.30571 -0.0258
C 19.61147 19.87438 -0.0331
C 20.85171 19.20539 -0.00316
C 20.90425 17.78291 0.02188
C 19.68507 17.04587 -0.01979
C 19.67042 15.61269 0.02691
C 20.89974 14.806 -0.01581
C 20.95803 13.44768 0.01452
C 22.11288 4.23784 0.03046
C 19.68638 12.77782 0.04892
C 20.95393 10.71341 -0.03557
C 20.92804 9.22958 0.03754
C 19.64951 8.44178 0.01739
C 19.66258 7.05645 0.00755
C 20.89122 6.43994 -0.0054
C 20.86258 4.99304 0.00667
C 19.64763 4.26889 0.00143
C 19.74786 2.88247 -0.017
C 20.94376 2.13709 0.00364
C 20.88293 0.74657 -0.00831
C 19.65905 34.0493 -0.02957
C 19.66767 11.37756 -0.00111
C 3.69791 31.93516 0.01073
C 22.12315 2.81974 0.0296
C 23.31708 0.69353 -0.02845
C 24.60347 4.21951 -0.00229
C 24.54555 2.81482 -0.00938
C 25.85495 2.13194 -0.0264
C 25.82515 0.70724 -0.01154
C 24.60271 0.09808 0.00684
C 27.09955 32.67432 -0.01052
C 28.21986 31.93537 -0.01679
C 28.3063 30.50526 0.00367
C 27.05476 29.84218 0.04306
C 27.07596 28.47232 0.00996
C 28.30301 27.67036 0.00195
C 28.29378 26.23194 -0.00802
C 27.11316 25.57672 -0.00218
C 27.01914 24.21193 -0.01654
C 28.26204 23.44773 -0.00037
C 28.29271 22.03386 -0.0032
C 27.07178 21.26707 0.00622
C 27.04936 19.80785 -0.02815
C 28.23548 19.10528 -0.00942
C 28.33929 17.72144 0.00487
C 27.02814 17.02787 0.00826
C 26.96406 15.63152 -0.00294
C 28.27144 14.92327 0.00152
C 25.7584 4.98315 -0.01199
C 25.85192 6.36333 -0.009
C 24.53097 7.00592 -0.00285
C 24.55226 8.47782 0.01423
C 22.10799 0.0467 -0.03213
C 24.61569 32.71992 0.02239
C 25.79403 31.8604 0.01153
C 25.85757 30.51711 0.02734
C 24.54835 29.88935 -0.0055
C 24.57038 28.42719 0.01515
C 25.8121 27.76914 -0.00225
C 25.85203 26.25515 0.00071
C 24.63014 25.51662 -0.01107
C 24.60073 24.11772 -0.01586
C 25.82963 23.4321 -0.01971
C 23.37349 2.09065 0.03374
C 25.86164 22.02997 -0.02118
C 24.56003 19.87383 -0.00178
C 25.83345 19.19457 0.00768
C 25.77001 17.73842 -0.0276
C 24.53955 17.08924 0.03005
C 24.55176 15.62631 -0.04078
C 25.72804 14.90257 0.02117
C 25.78632 13.5083 0.02737
C 24.59653 12.80584 -0.00498
C 24.64332 11.44575 0.00135
C 25.79742 10.64948 0.03102
C 25.82515 9.26697 0.02555
C 24.58233 21.2464 0.00733
C 2.49374 32.59656 -0.00018
