386
Graphene
C 34.30733 34.04818 0.01295
C 15.87831 22.13415 -0.0014
C 14.69699 21.37412 0.02162
C 14.68018 19.95544 0.0076
C 15.90629 19.14376 0.01241
C 15.88765 17.7413 -0.01454
C 14.65979 17.08015 0.01945
C 14.72195 15.68194 0.01416
C 15.9348 14.87836 0.03542
C 16.01699 13.4792 0.02299
C 15.94586 23.51936 0.00415
C 14.70685 12.77133 0.00244
C 15.95635 10.55318 0.05265
C 15.98682 9.12264 -0.01952
C 14.70744 8.44244 -0.02813
C 14.68207 7.02831 0.00374
C 15.95904 6.36046 0.00052
C 15.99074 4.93775 -0.03682
C 14.74366 4.22237 0.01965
C 14.66632 2.82966 0.02058
C 16.00198 2.13486 -0.01957
C 14.78437 11.37158 -0.01717
C 15.9636 0.73278 -0.0108
C 14.64491 24.245 -0.02162
C 15.97814 26.32795 0.01877
C 13.57419 13.5278 0.00406
C 12.29731 12.87429 0.00943
C 12.25351 11.41689 0.02841
C 13.49532 10.73152 -0.01111
C 13.53797 9.14786 -0.01275
C 12.2982 8.49891 0.00985
C 12.29859 7.11532 -0.02245
C 13.48011 6.3046 -0.00428
C 13.50811 4.94648 0.03101
C 14.67614 25.6438 0.01363
C 12.25913 4.29373 -0.01536
C 13.44333 2.13874 -0.01046
C 13.45675 0.72044 -0.00891
C 12.22141 34.06106 0.02819
C 14.78366 32.70433 0.00165
C 16.06787 31.93928 -0.02971
C 16.06948 30.58711 0.02894
C 14.804 29.86554 -0.01789
C 14.68533 28.46755 0.00444
C 15.88269 27.73306 -0.00925
C 12.26203 2.80559 -0.02689
C 13.52842 14.92536 0.03592
C 14.76122 34.03507 -0.00368
C 18.48537 31.93822 -0.00114
C 18.43922 4.91857 -0.00491
C 17.22148 4.22312 0.03338
C 17.15732 2.81761 -0.0258
C 18.38367 2.14976 -0.0331
C 18.49606 0.65753 -0.00316
C 17.24038 0.00894 0.02188
C 19.72472 32.67058 -0.01979
C 21.00926 31.86299 0.02691
C 21.04671 30.50265 -0.01581
C 18.38359 6.30895 -0.00109
C 19.75415 29.83384 0.01452
C 20.85658 27.68389 -0.00111
C 20.90702 26.23385 -0.03557
C 19.67166 25.55951 0.03754
C 19.60458 24.18197 0.01739
C 20.80339 23.46332 0.00755
C 20.80559 22.01279 -0.0054
C 19.59758 21.22364 0.00667
C 19.56456 19.79831 0.00143
C 20.8265 19.07326 -0.017
C 19.65819 28.44044 0.04892
C 17.28867 32.74704 -0.02696
C 17.1942 7.11804 0.03698
C 18.40938 9.10311 0.00028
C 18.48456 30.51149 0.00228
C 17.28743 29.84257 0.00798
C 17.12809 28.43011 0.00422
C 18.37707 27.84244 0.0351
C 18.50003 26.36809 -0.03113
C 17.22909 25.66462 0.02098
C 17.15504 24.2239 0.01848
C 18.35444 23.45922 -0.00619
C 18.37311 21.9985 -0.02162
C 17.2281 8.4945 -0.02213
C 17.12388 21.34024 0.00889
C 18.3074 19.17284 0.00979
C 18.36559 17.71864 0.01443
C 17.15622 17.03618 0.03505
C 17.1688 15.61782 -0.02815
C 18.42895 14.8213 -0.04147
C 18.44815 13.47067 -0.05302
C 17.29761 12.71065 0.00213
C 17.20001 11.30017 -0.00066
C 18.41602 10.51049 -0.00289
C 17.08009 19.92287 -0.00481
C 12.32798 15.74062 0.00572
C 12.159 17.12834 0.0402
C 13.43071 17.78714 -0.02759
C 4.9995 15.65312 0.017
C 6.21782 15.01928 -0.03113
C 6.15949 13.49318 -0.02566
C 4.8918 12.87251 -0.00094
C 4.87877 11.43698 0.02322
C 6.12257 10.76327 -0.00725
C 6.15773 9.30641 -0.05697
C 4.89488 8.54564 0.01087
C 4.82021 7.18 -0.01343
C 4.88863 17.00335 -0.00643
C 6.07949 6.50331 0.00988
C 4.8804 4.32306 0.01305
C 4.81648 2.94379 -0.00077
C 6.1509 2.14389 0.03368
C 6.0321 0.70502 -0.02929
C 4.79407 0.03054 -0.00966
C 7.30073 32.69285 -0.03337
C 8.53286 31.98994 0.01227
C 8.53876 30.65015 0.00873
C 8.08839 17.25751 -0.00049
C 6.15442 5.0344 0.0276
C 7.59217 15.90273 0.00848
C 5.94702 30.44052 0.0086
C 4.81198 32.64352 -0.00074
C 3.54805 30.43611 -0.04307
C 2.44682 29.81232 0.03189
C 3.70481 17.63105 0.00031
C 2.54304 17.03224 -0.003
C 2.42145 15.67395 0.01402
C 3.70576 14.99273 0.02379
C 3.59565 13.54819 0.00907
C 2.44538 12.82597 0.00643
C 2.4063 11.30354 -0.01509
C 6.08237 31.83559 -0.00518
C 3.66277 10.69653 0.03267
C 2.37371 8.61954 0.00402
C 2.41807 7.17069 0.0073
C 3.6308 6.41962 0.0174
C 3.61537 5.01957 0.03828
C 2.38643 4.28906 0.01226
C 2.39289 2.82889 -0.00279
C 3.60996 2.20651 0.01996
C 3.58731 0.78354 -0.03996
C 2.36509 0.04764 0.01465
C 3.66437 9.29643 0.02374
C 8.64575 14.95906 -0.01303
C 8.62563 13.56513 -0.01378
C 7.46592 12.86554 0.02635
C 9.86364 8.66283 -0.02896
C 9.79557 7.25804 -0.00131
C 11.01734 6.53816 -0.01118
C 11.05868 5.044 -0.014
C 9.81167 4.33076 0.02147
C 9.74486 2.92234 0.00373
C 10.9282 2.23563 -0.00191
C 10.87508 0.73225 0.00438
C 9.65626 0.0382 0.01291
C 11.14781 9.28594 -0.01004
C 12.22446 32.68966 0.00093
C 13.59482 30.64936 -0.01634
C 12.28426 29.91278 -0.00334
C 12.2244 28.50448 0.02339
C 13.41564 27.68189 0.01641
C 13.5018 26.31504 -0.00719
C 13.55751 23.4269 0.01364
C 13.53132 22.11986 -0.01062
C 12.10812 19.7871 -0.00033
C 13.34869 19.19849 0.03589
C 13.50217 32.0051 0.00057
C 11.07122 10.68574 0.00488
C 9.86601 11.47787 0.01745
C 9.82273 12.85103 0.03693
C 7.40829 11.42231 0.0127
C 8.66462 10.77221 0.01396
C 8.68174 9.38964 0.01849
C 7.37002 8.63788 -0.01142
C 7.39451 7.22327 -0.00562
C 8.58855 6.44533 -0.00494
C 8.56189 5.00205 0.00054
C 7.36985 4.23354 0.03007
C 7.35554 2.83627 -0.00095
C 8.6134 2.14856 0.01572
C 8.47453 0.7106 -0.04848
C 7.249 0.03665 -0.00892
C 9.73329 32.73233 -0.01362
C 11.01112 31.91491 -0.0008
C 10.97726 30.56074 0.0288
C 9.72417 30.00808 0.00393
C 10.92517 17.92647 0.00895
C 9.70129 17.2031 0.00685
C 9.85129 15.7686 0.02888
C 11.0961 15.01499 -0.00482
C 11.04168 13.54996 -0.01384
C 20.86115 17.64454 0.00364
C 19.57925 16.95713 -0.00831
C 19.63001 15.58372 -0.02957
C 20.74685 14.7414 -0.04422
C 29.4645 8.55211 0.07705
C 29.40338 7.05941 0.0103
C 30.65973 6.36224 0.02108
C 30.67843 4.94769 0.00716
C 29.44674 4.28737 0.00307
C 29.4329 2.93054 0.00346
C 30.63825 2.0969 0.01713
C 30.72604 0.712 -0.01694
C 29.52306 34.07439 0.01428
C 30.64563 9.26222 0.01908
C 31.9587 32.68898 -0.02142
C 33.03279 30.41905 0.00026
C 31.69882 29.73838 0.00682
C 31.80319 28.36621 -0.01779
C 33.12797 27.73181 0.03794
C 33.2153 26.32641 0.01927
C 31.87107 25.5512 0.01574
C 32.03399 24.07391 -0.02383
C 33.22784 23.46763 -0.01429
C 33.20464 22.01499 -0.0136
C 33.05779 31.86567 0.0544
C 31.95605 21.29104 0.00594
C 30.64603 10.70089 0.01518
C 29.42177 12.75637 -0.03735
C 27.00565 4.24616 0.01324
C 27.02001 2.91477 0.0014
C 28.28253 2.16446 0.00924
C 28.2661 0.76358 0.02326
C 27.15796 34.04723 0.00261
C 29.52973 32.67656 0.03265
C 30.72389 32.09518 -0.02049
C 30.6 30.55465 -0.01854
C 30.7156 26.1836 -0.01415
C 29.42977 11.38057 -0.00971
C 29.66026 24.34914 -0.03039
C 30.73213 22.04017 0.03531
C 29.43017 21.39086 -0.00669
C 29.52374 19.98723 0.0101
C 30.75445 19.24724 0.01705
C 30.70467 17.80886 -0.0405
C 29.4981 17.02597 -0.01303
C 29.47353 15.53122 -0.01461
C 30.72197 14.87698 -0.02155
C 30.67147 13.50642 -0.00944
C 30.75268 23.4746 0.01836
C 32.05939 19.84538 -0.02474
C 33.31971 19.25161 0.00369
C 33.26948 17.81003 0.00455
C 34.41022 21.39814 -0.02213
C 0.136 19.95441 0.01951
C 1.37622 19.16236 -0.01678
C 1.29425 17.80983 0.01223
C 0.01641 17.07631 0.00648
C 34.42822 15.60993 0.02114
C 1.25489 14.93628 -0.02957
C 1.16957 13.48901 0.00343
C 34.37943 12.87649 -0.02656
C 34.41491 24.20365 0.02712
C 34.33404 11.32958 -0.02442
C 1.06713 9.33072 -0.00583
C 34.31745 8.53657 -0.02302
C 34.391 7.05683 -0.02849
C 1.24069 6.43403 0.02931
C 1.17631 4.99011 0.00628
C 34.3861 4.37847 -0.0345
C 34.38211 2.89389 -0.00931
C 1.12923 2.08008 -0.00939
C 1.08444 0.69856 -0.00468
C 1.152 10.6973 -0.00027
C 34.41125 25.57115 0.00723
C 1.27703 27.84152 0.03076
C 0.07719 28.43179 -0.05239
C 31.95781 17.10042 -0.00644
C 31.94178 15.64897 -0.01839
C 33.17103 15.01026 0.00137
C 33.14486 13.53215 0.00199
C 31.94424 12.71155 0.04381
C 31.93843 11.32323 0.02806
C 33.16685 10.62394 0.01504
C 33.10311 9.23452 -0.00069
C 31.87283 8.63212 0.04926
C 31.90411 7.13501 -0.03838
C 33.14913 6.38251 0.00349
C 33.16068 4.96568 -0.00323
C 31.89404 4.31371 -0.00841
C 31.86589 2.8351 0.0001
C 33.16823 2.22492 -0.02927
C 33.16548 0.7583 -0.01404
C 31.97207 0.0647 0.01027
C 34.2798 32.66591 0.01831
C 1.08559 31.99871 -0.01037
C 1.10985 30.6091 -0.00439
C 34.29142 29.80519 -0.00598
C 28.18174 4.9946 0.04266
C 3.60816 31.90714 0.03284
C 28.16901 6.36815 0.01177
C 27.00265 8.5029 0.01699
C 23.27221 21.95333 0.01852
C 22.02969 21.29584 -0.00381
C 22.0409 19.87084 0.03046
C 23.32127 19.19984 0.0296
C 23.31559 17.78827 0.03374
C 22.08088 17.00328 -0.02845
C 21.93066 15.56298 -0.03213
C 23.20066 14.85311 0.02239
C 23.26821 13.42614 0.01153
C 23.30957 23.38885 0.01126
C 22.13309 12.70258 0.02734
C 23.28078 10.59659 0.01515
C 23.27391 9.17526 -0.00225
C 22.05921 8.44385 0.00071
C 22.05743 7.03014 -0.01107
C 23.40426 6.26028 -0.01586
C 23.39592 4.88912 -0.01971
C 22.10302 4.23494 -0.02118
C 22.15084 2.85239 0.00733
C 23.33351 2.10542 -0.00178
C 22.11706 11.29505 -0.0055
C 23.38725 0.66623 0.00768
C 22.04646 24.04046 -0.01185
C 23.27207 26.18051 -0.00478
C 20.86911 13.38149 0.00654
C 19.65542 12.69708 -0.00703
C 19.56342 11.27942 -0.04076
C 20.80137 10.56121 -0.00652
C 20.91607 9.16226 0.0058
C 19.70733 8.4371 -0.00865
C 19.64198 6.96689 0.00675
C 20.86774 6.29331 -0.00311
C 20.84309 4.89718 0.00742
C 22.06441 25.46329 -0.01662
C 19.61743 4.18125 -0.01594
C 20.94913 2.078 -0.01154
C 20.99281 0.66875 -0.01721
C 19.74285 34.06615 -0.02422
C 22.23758 32.65816 0.01277
C 23.47143 31.85808 0.00096
C 23.46483 30.40105 -0.01527
C 22.20436 29.80845 0.01087
C 22.16794 28.39707 0.00199
C 23.40048 27.6421 0.01511
C 19.6771 2.75214 0.0106
C 22.22141 33.99036 -0.0276
C 24.61729 32.60611 0.03005
C 25.88704 31.85823 -0.04078
C 25.87223 2.04497 -0.0032
C 25.91645 0.72169 0.00622
C 24.62594 0.00554 -0.02815
C 27.11631 32.62521 -0.00942
C 28.35547 31.95497 0.00487
C 27.11472 24.19031 0.00826
C 28.31613 23.70351 -0.00294
C 28.29462 22.14014 0.00152
C 26.99771 21.29285 0.01257
C 24.64068 2.75721 -0.00037
C 27.04316 19.91119 0.02316
C 28.19668 17.83156 0.00194
C 27.03465 16.99888 -0.00621
C 26.96757 15.56666 0.02611
C 28.21759 14.84874 0.02198
C 28.17174 13.42674 0.01094
C 26.94864 12.73811 0.00235
C 27.01821 11.33342 0.01495
C 28.15761 10.59637 0.01259
C 28.23322 9.20252 0.01799
C 28.27133 19.24303 0.04185
C 24.6306 4.1563 -0.01654
C 25.78547 4.93765 -0.00218
C 25.79991 6.35268 -0.00802
C 25.90625 30.42353 0.02117
C 24.73391 29.61732 0.02737
C 24.56608 28.1899 -0.00498
C 24.56906 25.48501 0.00135
C 24.63804 24.1742 0.03102
C 25.83435 23.49015 0.02555
C 25.8358 22.00048 0.01423
C 24.5631 21.29635 -0.00285
C 24.57249 19.85617 -0.009
C 25.79263 19.15247 -0.01199
C 25.7693 17.64595 -0.00229
C 24.46057 17.04079 -0.00938
C 24.42121 15.64127 -0.0264
C 25.63292 14.93498 -0.01154
C 25.77699 13.42802 0.00684
C 24.55379 12.7434 -0.01052
C 24.46662 11.23613 -0.01679
C 25.71162 10.62827 0.00367
C 25.81768 9.21886 0.04306
C 24.53187 8.53792 0.00996
C 24.57214 7.0525 0.00195
C 26.97975 7.09409 -0.00416
C 2.41001 32.70238 0.04505
