302
Graphene
C 34.4162 0.03311 0.01295
C 13.58179 4.93014 0.04892
C 12.33872 4.24491 -0.00111
C 12.32132 2.88173 -0.03557
C 13.51662 2.1537 0.03754
C 13.52055 0.76173 0.01739
C 12.33052 0.07821 0.00755
C 13.53938 6.29183 0.01452
C 14.68615 32.68883 -0.0054
C 15.97752 30.46797 0.00143
C 14.75605 29.7898 -0.017
C 14.83185 28.31347 0.00364
C 16.07684 27.68765 -0.00831
C 16.03827 26.23943 -0.02957
C 14.80179 25.55597 -0.04422
C 15.91801 31.94374 0.00667
C 12.27524 7.01464 -0.01581
C 12.31709 8.40408 0.02691
C 13.4692 9.22679 -0.01979
C 11.02598 4.96248 -0.04147
C 9.87591 4.22497 -0.05302
C 9.85541 2.8507 0.00213
C 11.08219 2.18882 -0.00066
C 11.03781 0.72757 -0.00289
C 9.73667 0.06491 0.00028
C 12.29995 32.70925 -0.02213
C 13.51454 31.92328 0.03698
C 13.55071 30.57899 -0.00109
C 12.33897 29.831 -0.00491
C 12.31681 28.3655 0.03338
C 13.55427 27.70739 -0.0258
C 13.59395 26.29024 -0.0331
C 12.34473 25.81582 -0.00316
C 13.61109 10.72359 0.02188
C 15.00033 24.12142 0.00654
C 16.00515 23.51656 -0.00703
C 16.10894 13.47358 -0.04076
C 14.67922 11.34015 -0.00652
C 17.17878 23.99434 0.01126
C 17.11308 15.19742 0.01852
C 18.49189 13.54318 -0.00381
C 17.20102 12.72477 0.03046
C 17.18827 11.25665 0.0296
C 18.42421 10.63528 0.03374
C 18.4883 9.24899 -0.02845
C 17.27512 8.5875 -0.03213
C 17.15529 7.11765 0.02239
C 18.3689 6.45427 0.01153
C 18.41589 5.02286 0.02734
C 17.20079 4.21457 -0.0055
C 17.20705 2.76718 0.01515
C 18.47736 2.13384 -0.00225
C 18.46267 0.68762 0.00071
C 17.32891 25.50639 -0.01185
C 11.05195 6.37365 -0.02815
C 18.43647 26.25368 -0.01662
C 17.32715 28.38154 0.01511
C 15.93336 10.63549 0.0058
C 15.9973 9.21249 -0.00865
C 14.74346 8.47248 0.00675
C 14.73485 7.04646 -0.00311
C 15.98836 6.3403 0.00742
C 15.9536 4.95395 -0.01594
C 14.78367 4.19684 0.0106
C 14.77129 2.77857 -0.01154
C 15.98212 2.0857 -0.01721
C 15.95332 0.72392 -0.02422
C 14.71903 0.00771 0.01277
C 17.1497 32.76443 0.00096
C 18.342 31.97599 -0.01527
C 18.38582 30.62102 0.01087
C 17.23093 29.83401 0.00199
C 18.49994 27.62742 -0.00478
C 9.83184 7.17114 0.03505
C 9.81476 8.51527 0.01443
C 11.15928 9.27453 0.00979
C 2.47819 4.24777 -0.02245
C 2.46457 2.81372 -0.00428
C 3.67173 2.1141 0.03101
C 3.68789 0.71432 -0.01536
C 2.41743 0.03687 -0.02689
C 4.8558 32.63904 -0.01046
C 6.10099 31.98817 -0.00891
C 6.10632 30.58023 0.02819
C 4.86661 29.85814 0.00165
C 4.85611 28.42279 -0.02971
C 6.1117 27.71582 0.02894
C 6.19383 26.16779 -0.01789
C 4.96263 25.49348 0.00444
C 4.76624 24.02805 -0.00925
C 4.95856 11.26945 0.01877
C 3.71258 4.98237 0.00985
C 5.9284 10.61865 0.01363
C 3.65115 6.36271 -0.01275
C 2.46466 8.56664 0.02841
C 3.67482 30.58011 -0.01634
C 2.46213 29.84539 -0.00334
C 2.45048 28.40834 0.02339
C 3.63412 27.71678 0.01641
C 3.67079 26.28234 -0.00719
C 2.4899 25.58258 0.01364
C 2.3887 24.07167 -0.01062
C 3.66381 23.54524 -0.00033
C 2.29664 21.24592 0.03589
C 2.34897 15.58684 -0.02759
C 3.61029 13.60631 0.0402
C 2.55137 12.83396 0.00572
C 2.47909 11.33222 0.03592
C 3.67427 10.70368 0.00406
C 3.69343 9.32196 0.00943
C 2.44564 7.17053 -0.01111
C 17.1596 0.08441 -0.01107
C 6.10272 9.27026 -0.02162
C 4.88425 7.07741 -0.0014
C 8.56439 6.43268 -0.0108
C 8.62352 4.99534 -0.00368
C 7.44732 4.24239 -0.02696
C 7.39723 2.80594 -0.00114
C 8.62661 2.09386 0.00228
C 8.5087 0.73871 0.00798
C 7.34464 34.03673 0.00422
C 9.82655 32.75625 0.0351
C 11.09992 32.02118 -0.03113
C 11.09433 30.53707 0.02098
C 9.85947 29.83895 0.01848
C 9.846 28.40186 -0.00619
C 11.05096 27.61375 -0.02162
C 11.1767 26.26336 0.00889
C 10.80254 10.54143 -0.00481
C 7.32122 7.10489 -0.01957
C 4.90771 8.53355 0.00415
C 7.28989 8.55775 0.02058
C 8.73023 10.61663 -0.03682
C 6.12362 6.36454 0.02162
C 6.24291 4.95337 0.0076
C 4.97956 4.29259 0.01241
C 4.87822 2.90465 -0.01454
C 6.10803 2.10728 0.01945
C 6.06346 0.64543 0.01416
C 4.85699 34.04761 0.03542
C 7.35525 32.65089 0.02299
C 8.65412 31.99555 0.00244
C 8.62162 30.53797 -0.01717
C 7.34781 29.88752 0.05265
C 7.39457 28.44276 -0.01952
C 8.70948 27.65347 -0.02813
C 8.63124 26.23937 0.00374
C 7.55856 25.79642 0.00052
C 8.57432 9.22924 0.01965
C 19.59227 32.6372 -0.01586
C 20.86478 31.89297 -0.01971
C 20.89905 30.51071 -0.02118
C 33.20618 27.70664 0.01574
C 33.16282 26.22127 -0.02383
C 31.92069 25.75365 -0.01429
C 33.37632 19.10987 -0.0136
C 33.11224 17.7897 0.00594
C 31.98312 17.02572 -0.02474
C 31.87617 15.69524 0.00369
C 33.13707 14.90122 0.00455
C 33.16862 13.51323 -0.00644
C 31.99096 12.80524 -0.01839
C 31.93721 11.44639 0.00137
C 33.17117 10.68236 0.00199
C 33.23124 9.259 0.04381
C 31.94392 8.61611 0.02806
C 31.90394 7.16158 0.01504
C 31.97008 28.45899 0.01927
C 33.15186 6.47566 -0.00069
C 31.94387 29.88618 0.03794
C 33.2394 31.94489 0.00682
C 30.5957 13.61105 -0.00971
C 29.4758 12.71468 0.01518
C 29.52837 11.35358 0.01908
C 30.74133 10.67808 0.07705
C 30.74335 9.2889 0.0103
C 29.49179 8.51883 0.02108
C 29.48242 7.17279 0.00716
C 30.67614 6.41771 0.00307
C 30.67433 4.98751 0.00346
C 29.48618 4.25804 0.01713
C 29.48067 2.84211 -0.01694
C 30.73932 2.17865 0.01428
C 30.76377 0.79762 -0.02142
C 29.50531 0.04012 0.0544
C 31.97114 32.63327 0.00026
C 33.23739 30.5373 -0.01779
C 30.72409 14.93112 -0.03735
C 33.19002 5.01089 0.04926
C 31.93889 2.8358 0.00349
C 34.34497 15.62692 0.02114
C 1.17839 14.9321 -0.02957
C 1.2347 13.44671 0.00343
C 34.41438 12.81078 -0.02656
C 34.37871 11.37854 -0.02442
C 1.19904 10.65891 -0.00027
C 1.23657 9.28115 -0.00583
C 0.03048 8.53569 -0.02302
C 34.40407 7.12745 -0.02849
C 1.22091 6.46675 0.02931
C 1.25754 5.00083 0.00628
C 34.42176 4.31369 -0.0345
C 34.38888 2.85536 -0.00931
C 1.17035 2.15932 -0.00939
C 1.18679 0.76919 -0.00468
C 0.10413 17.04101 0.00648
C 31.95592 4.31143 -0.03838
C 1.34021 17.75139 0.01223
C 34.35715 19.92939 0.01951
C 33.17162 2.1635 -0.00323
C 33.19239 0.75251 -0.00841
C 31.96703 34.05991 0.0001
C 34.42113 32.71121 -0.02927
C 1.17571 31.95275 -0.01404
C 1.26066 30.54629 0.01027
C 0.05568 29.78689 0.01831
C 0.03656 28.31578 -0.01037
C 1.26557 27.72028 -0.00439
C 1.24828 26.26168 -0.00598
C 34.42666 25.49825 -0.05239
C 0.01712 24.09809 0.03076
C 1.17557 23.4177 0.00723
C 1.1954 21.94303 0.02712
C 34.33804 21.34407 -0.02213
C 1.15833 19.02565 -0.01678
C 3.60496 32.03144 0.00057
C 30.82711 26.28231 -0.00944
C 29.488 28.26613 -0.01461
C 22.11033 29.81972 -0.01154
C 22.09831 28.46912 0.00684
C 22.15613 11.29401 -0.01052
C 23.29942 10.56485 -0.01679
C 23.41217 9.09196 0.00367
C 22.15788 8.4563 0.04306
C 22.11642 7.0481 0.00996
C 23.33617 6.38807 0.00195
C 23.37938 4.9682 -0.00802
C 22.11001 4.31958 -0.00218
C 22.1475 2.92077 -0.01654
C 23.36592 2.21699 -0.00037
C 23.31653 0.74694 -0.0032
C 22.13736 0.04981 0.00622
C 24.62598 32.70787 -0.02815
C 23.32399 30.56973 -0.0264
C 25.84915 31.9662 -0.00942
C 23.3445 31.93995 -0.00938
C 19.62021 34.07215 -0.01199
C 19.64056 29.80122 0.00733
C 19.68908 28.40886 -0.00178
C 21.01904 27.91837 0.00768
C 19.41129 12.69294 -0.0276
C 19.66059 11.30856 0.03005
C 20.95286 10.6691 -0.04078
C 20.98609 9.18729 0.02117
C 19.71708 8.48618 0.02737
C 19.60027 7.07426 -0.00498
C 20.83389 6.3494 0.00135
C 20.83155 4.9678 0.03102
C 19.61833 4.33667 0.02555
C 19.66933 2.84531 0.01423
C 20.91461 2.22667 -0.00285
C 20.85638 0.74782 -0.009
C 22.14197 32.64684 -0.00229
C 30.69053 27.60172 -0.02155
C 25.79178 30.57395 0.00487
C 24.58663 28.44123 -0.00294
C 28.32043 10.62679 0.00924
C 28.22374 9.21927 0.02326
C 27.04076 8.55673 0.00261
C 27.03628 7.16516 0.03265
C 28.27096 6.51528 -0.02049
C 28.24037 4.98486 -0.01854
C 27.05263 4.25745 -0.01415
C 27.04246 2.82097 -0.03039
C 28.28708 2.14759 0.01836
C 28.30205 0.7176 0.03531
C 27.05125 34.05337 -0.00669
C 29.5409 32.71187 0.0101
C 30.71781 32.02214 0.01705
C 30.66235 30.56169 -0.0405
C 29.51349 29.77317 -0.01303
C 27.11461 11.21806 0.0014
C 24.52098 29.7778 0.00826
C 28.10554 27.8863 0.01324
C 27.01437 29.81755 0.01177
C 24.50937 11.20008 0.00152
C 25.77072 10.73717 0.01257
C 25.80257 9.24868 0.02316
C 24.59178 8.49838 0.04185
C 24.59033 7.05072 0.00194
C 25.84072 6.37787 -0.00621
C 25.82141 4.96053 0.02611
C 24.61971 4.25527 0.02198
C 24.61043 2.83849 0.01094
C 25.8567 2.07992 0.00235
C 25.83995 0.64852 0.01495
C 24.55894 34.06105 0.01259
C 27.12453 32.63531 0.01799
C 28.3338 31.94699 0.01699
C 28.29599 30.48441 -0.00416
C 27.02407 28.38133 0.04266
C 2.36756 32.72463 0.00093
