319
Graphene
C 34.4079 34.07903 0.01295
C 9.82432 24.14375 0.03698
C 11.06506 23.51804 -0.00109
C 11.03831 22.02717 -0.00491
C 9.83935 21.31385 0.03338
C 9.84999 19.92637 -0.0258
C 11.11771 19.2388 -0.0331
C 11.14206 17.78208 -0.00316
C 9.76281 25.59877 -0.02213
C 9.94148 17.03809 0.02188
C 11.187 14.82874 0.02691
C 11.24391 13.45139 -0.01581
C 9.88381 12.77392 0.01452
C 9.81098 11.33121 0.04892
C 11.00915 10.578 -0.00111
C 11.02263 9.25978 -0.03557
C 9.75122 8.54116 0.03754
C 9.94146 15.60894 -0.01979
C 9.71946 7.14241 0.01739
C 11.04372 26.26529 0.00028
C 9.83362 28.46113 -0.00066
C 7.18536 11.31769 0.00422
C 8.49121 10.61995 0.0351
C 8.43967 9.29722 -0.03113
C 7.09432 8.55736 0.02098
C 7.23634 7.13378 0.01848
C 8.53196 6.39047 -0.00619
C 8.52542 4.96921 -0.02162
C 11.14216 27.72414 -0.00289
C 7.2766 4.26657 0.00889
C 8.57162 2.12106 0.00979
C 8.50003 0.65412 0.01443
C 7.31805 34.05203 0.03505
C 9.8448 32.65891 -0.02815
C 11.04735 31.97578 -0.04147
C 11.01474 30.46197 -0.05302
C 9.79483 29.86003 0.00213
C 7.35331 2.91426 -0.00481
C 7.45186 12.70592 0.00798
C 11.01575 6.53645 0.00755
C 9.79112 4.32035 0.00667
C 12.45031 15.49721 0.01277
C 13.64259 14.79658 0.00096
C 13.6632 13.36207 -0.01527
C 12.5427 12.63071 0.01087
C 12.34592 11.15614 0.00199
C 13.40852 10.148 0.01511
C 12.31138 8.76692 -0.00478
C 12.34235 16.99442 -0.02422
C 12.28555 7.29883 -0.01662
C 13.56797 5.08971 0.01126
C 12.25339 4.31072 0.01852
C 12.33005 2.84613 -0.00381
C 13.52277 2.15204 0.03046
C 13.48635 0.74987 0.0296
C 12.23685 0.01158 0.03374
C 14.73353 32.7854 -0.02845
C 13.33465 6.4165 -0.01185
C 11.06708 5.13263 -0.0054
C 13.47135 17.82815 -0.01721
C 12.30038 19.88955 0.0106
C 9.80062 2.84427 0.00143
C 11.09601 2.19564 -0.017
C 11.02329 0.74429 0.00364
C 9.78739 0.0381 -0.00831
C 12.2411 32.67718 -0.02957
C 13.48674 31.98343 -0.04422
C 13.49357 30.53922 0.00654
C 13.47484 19.30669 -0.01154
C 12.23577 29.85213 -0.00703
C 13.50941 27.6984 -0.00652
C 13.55969 26.27085 0.0058
C 12.32958 25.57096 -0.00865
C 12.36966 24.15029 0.00675
C 13.65131 23.44953 -0.00311
C 13.58768 21.98056 0.00742
C 12.29331 21.30214 -0.01594
C 12.32134 28.39342 -0.04076
C 15.92055 32.09492 -0.03213
C 8.62782 13.45782 0.00228
C 7.43584 15.5937 -0.02696
C 2.48208 7.03645 0.01641
C 3.61789 6.18726 -0.00719
C 3.6457 4.86201 0.01364
C 2.39423 4.2165 -0.01062
C 2.39274 2.83988 -0.00033
C 3.63623 2.05389 0.03589
C 3.70706 0.63058 -0.02759
C 2.77031 8.43497 0.02339
C 2.35114 34.07427 0.0402
C 6.1454 31.92923 0.03592
C 6.18788 30.54749 0.00406
C 4.92476 29.85841 0.00943
C 4.92596 28.41185 0.02841
C 6.1207 27.71292 -0.01111
C 6.16628 26.23769 -0.01275
C 4.96957 25.54658 0.00985
C 4.89851 32.64862 0.00572
C 4.86433 24.18129 -0.02245
C 2.85855 11.50148 -0.00334
C 3.76513 13.69408 0.00057
C 3.61027 30.45965 -0.00482
C 2.31859 29.79012 -0.01384
C 2.43691 28.35841 0.03693
C 3.7158 27.71393 0.01745
C 3.71502 26.27069 0.00488
C 2.47533 25.56737 -0.01004
C 2.43907 24.15937 -0.02896
C 2.63115 12.86888 -0.01634
C 3.6471 23.41759 -0.00131
C 2.45028 21.26373 -0.014
C 2.4108 19.83386 0.02147
C 3.66677 19.1473 0.00373
C 3.70509 17.73328 -0.00191
C 2.42867 17.10856 0.00438
C 2.44087 15.61066 0.01291
C 3.69746 15.05945 0.00093
C 3.68556 21.97284 -0.01118
C 8.73158 14.89103 -0.00114
C 6.1101 23.45078 -0.00428
C 4.92638 21.29109 -0.01536
C 7.36545 32.61511 0.01416
C 8.65259 31.91634 0.03542
C 8.58599 30.50545 0.02299
C 7.33624 29.83895 0.00244
C 7.36238 28.37578 -0.01717
C 8.60068 27.7354 0.05265
C 8.58644 26.30502 -0.01952
C 4.9368 34.06401 0.01945
C 7.38714 25.53914 -0.02813
C 8.58007 23.415 0.00052
C 8.55141 22.02839 -0.03682
C 7.39508 21.35987 0.01965
C 7.3423 19.83674 0.02058
C 8.60843 19.17811 -0.01957
C 8.68004 17.7877 -0.0108
C 7.43375 16.99466 -0.00368
C 7.33011 24.04988 0.00374
C 6.12444 22.06072 0.03101
C 6.17367 0.79558 -0.01454
C 4.84631 2.86286 0.0076
C 4.91501 19.89009 -0.02689
C 6.14338 19.17566 -0.01046
C 6.21835 17.77265 -0.00891
C 4.92761 17.0548 0.02819
C 4.96011 15.65836 0.00165
C 6.18772 14.90699 -0.02971
C 6.23922 13.55241 0.02894
C 6.09841 2.1574 0.01241
C 4.92522 12.87949 -0.01789
C 5.83171 10.74784 -0.00925
C 5.74644 9.18038 0.01877
C 4.42535 8.45745 0.01363
C 4.72786 7.0835 -0.02162
C 5.98743 6.41074 0.00415
C 6.08522 4.93175 -0.0014
C 4.88915 4.2526 0.02162
C 4.61678 11.55625 0.00444
C 3.63171 31.9189 0.02888
C 15.93641 30.61773 0.02239
C 14.75845 28.42314 0.02734
C 33.42337 26.59973 -0.01779
C 32.02267 24.43248 0.03794
C 33.10634 23.60987 0.01927
C 33.18754 22.09315 0.01574
C 31.97882 21.49712 -0.02383
C 31.91474 20.03751 -0.01429
C 33.16701 19.32838 -0.0136
C 32.82095 30.56509 0.00682
C 33.167 17.90213 0.00594
C 31.97659 15.89328 0.00369
C 33.18558 14.98503 0.00455
C 33.25172 13.54214 -0.00644
C 32.07859 12.77634 -0.01839
C 31.79197 11.39988 0.00137
C 33.25375 10.694 0.00199
C 33.15269 9.31875 0.04381
C 31.95065 17.04883 -0.02474
C 31.83003 8.59635 0.02806
C 33.06426 31.92369 0.00026
C 29.42591 0.00435 -0.02142
C 31.18431 30.56309 -0.01461
C 29.16509 24.431 -0.02155
C 30.60114 23.94331 -0.00944
C 30.83291 22.30655 -0.03735
C 29.68092 21.23081 -0.00971
C 30.64301 19.53972 0.01518
C 30.51483 10.67016 0.01908
C 31.97003 32.75867 0.0544
C 30.56908 9.30763 0.07705
C 29.39779 6.96145 0.02108
C 30.67509 6.38819 0.00716
C 30.63277 4.95311 0.00307
C 29.36985 4.32773 0.00346
C 29.51435 2.83069 0.01713
C 30.74247 2.19038 -0.01694
C 30.66717 0.70878 0.01428
C 29.45937 8.19039 0.0103
C 30.78587 31.95889 -0.01303
C 31.87922 7.18006 0.01504
C 33.15273 5.00552 0.04926
C 34.41035 17.08576 0.00648
C 34.43018 15.69054 0.02114
C 1.17795 14.92287 -0.02957
C 1.26386 13.55769 0.00343
C 0.11729 12.85573 -0.02656
C 0.08076 11.4023 -0.02442
C 1.46946 10.72577 -0.00027
C 1.23773 17.79747 0.01223
C 1.40708 9.28661 -0.00583
C 34.31049 7.17186 -0.02849
C 1.11969 6.43734 0.02931
C 1.17122 4.96726 0.00628
C 34.3826 4.25031 -0.0345
C 0.00576 2.86508 -0.00931
C 1.19067 2.1238 -0.00939
C 1.169 0.77227 -0.00468
C 0.05482 8.60327 -0.02302
C 33.03863 6.44989 -0.00069
C 1.11159 19.15583 -0.01678
C 34.34941 21.40527 -0.02213
C 31.89983 4.31328 -0.03838
C 31.90977 2.88004 0.00349
C 33.12781 2.17617 -0.00323
C 33.15452 0.71381 -0.00841
C 31.89752 0.05805 0.0001
C 34.29692 32.64306 -0.02927
C 1.07293 31.81946 -0.01404
C 34.34958 19.98135 0.01951
C 1.00523 30.44468 0.01027
C 34.21739 28.12695 -0.01037
C 1.19226 27.71508 -0.00439
C 1.30724 26.35061 -0.00598
C 0.06041 25.70313 -0.05239
C 34.41692 24.22206 0.03076
C 1.22066 23.4346 0.00723
C 1.2548 22.00912 0.02712
C 34.06438 29.64701 0.01831
C 14.77366 29.89658 0.01153
C 29.51316 32.70641 -0.0405
C 28.23347 0.7132 0.0101
C 18.35206 27.63829 0.01423
C 18.36047 26.21333 -0.00285
C 17.17695 25.5126 -0.009
C 17.30947 24.11491 -0.01199
C 18.44348 23.22806 -0.00229
C 17.33239 21.40868 -0.00938
C 18.41881 0.74804 -0.0264
C 17.1791 28.40561 0.02555
C 17.2399 0.10415 -0.01154
C 20.88694 31.97064 -0.01052
C 20.84751 30.54036 -0.01679
C 19.64831 29.79303 0.00367
C 19.59251 28.37986 0.04306
C 20.71822 27.54857 0.00996
C 20.7972 26.21989 0.00195
C 19.61885 25.46975 -0.00802
C 19.62759 32.80413 0.00684
C 19.71414 24.01826 -0.00218
C 17.13097 29.89227 0.03102
C 18.41798 32.05595 -0.00498
C 15.93847 27.73388 -0.0055
C 16.0287 26.37608 0.01515
C 14.77236 25.60048 -0.00225
C 14.82947 24.1423 0.00071
C 16.05171 23.41429 -0.01107
C 16.08891 21.97063 -0.01586
C 14.80411 21.31701 -0.01971
C 18.35445 30.55036 0.00135
C 14.81238 19.97597 -0.02118
C 14.72998 15.79152 -0.00178
C 14.69815 4.25257 0.00768
C 14.75345 2.88598 -0.0276
C 16.08769 2.20034 0.03005
C 15.99945 0.74703 -0.04078
C 14.77424 0.05034 0.02117
C 17.23041 32.68658 0.02737
C 14.67113 17.16881 0.00733
C 26.98765 33.98084 0.01705
C 20.9212 0.70948 -0.01654
C 22.15835 32.64427 -0.0032
C 25.86868 2.10608 -0.00416
C 25.76843 0.56277 0.01177
C 24.57856 33.91779 0.04266
C 27.00241 32.54382 0.01324
C 28.2335 31.86382 0.0014
C 28.35344 30.52777 0.00924
C 27.22054 29.61077 0.02326
C 25.60238 23.45301 0.01699
C 27.05252 28.18067 0.00261
C 26.99677 25.35427 -0.02049
C 26.92678 24.0185 -0.01854
C 28.15408 23.33849 -0.01415
C 28.63338 21.99477 -0.03039
C 28.13694 4.83739 0.01836
C 26.91518 2.76012 0.03531
C 28.23571 2.09043 -0.00669
C 28.24687 25.90427 0.03265
C 19.6836 0.19197 -0.00037
C 24.62035 24.10253 0.01799
C 25.70965 26.14285 0.01495
C 23.28538 31.87546 0.00622
C 23.28895 30.43579 -0.02815
C 22.06524 29.73376 -0.00942
C 21.99199 28.2931 0.00487
C 23.23291 27.57285 0.00826
C 23.20706 26.17317 -0.00294
C 22.01688 25.38412 0.00152
C 24.52497 25.54174 0.01259
C 21.78279 23.99342 0.01257
C 22.18207 33.98387 0.04185
C 24.59036 32.45514 0.00194
C 25.80824 31.76475 -0.00621
C 25.87362 30.38378 0.02611
C 24.59069 29.68517 0.02198
C 24.47187 28.28911 0.01094
C 25.78121 27.60291 0.00235
C 23.46267 0.496 0.02316
C 2.39407 32.63209 0.00685
