366
Graphene
C 0.01379 0.01715 0.01295
C 12.33392 25.52879 0.00374
C 12.25091 24.16332 0.00052
C 13.5524 23.4677 -0.03682
C 13.55286 22.00002 0.01965
C 12.33333 21.29423 0.02058
C 12.27836 19.88951 -0.01957
C 12.27522 7.07855 -0.0108
C 13.50722 6.39235 -0.00368
C 13.49651 26.19716 -0.02813
C 13.53474 2.08117 -0.02696
C 12.32355 0.03686 0.00228
C 14.7732 32.63242 0.00798
C 15.97378 31.96752 0.00422
C 16.02014 30.49429 0.0351
C 14.72958 29.83709 -0.03113
C 14.75707 28.37099 0.02098
C 15.99144 27.62941 0.01848
C 15.96268 26.25876 -0.00619
C 13.5628 0.66634 -0.00114
C 13.4816 27.65164 -0.01952
C 12.30011 28.40454 0.05265
C 12.30856 29.79764 -0.01717
C 11.05349 30.57258 -0.02971
C 9.79023 29.84756 0.02894
C 9.8429 28.44269 -0.01789
C 11.07425 27.695 0.00444
C 11.0709 26.28129 -0.00925
C 9.84998 25.56524 0.01877
C 9.84798 24.14658 0.01363
C 11.07769 23.40292 -0.02162
C 11.05534 22.02674 0.00415
C 9.85814 21.3533 -0.0014
C 9.83581 19.89131 0.02162
C 11.07347 19.19535 0.0076
C 9.83867 8.46715 0.01241
C 9.86323 7.0754 -0.01454
C 11.07806 0.73562 0.01945
C 9.87355 0.03347 0.01416
C 12.27403 32.62833 0.03542
C 13.56352 31.96494 0.02299
C 13.55055 30.49801 0.00244
C 14.7138 25.57151 -0.02162
C 14.7622 24.1479 0.00889
C 16.00913 23.44628 -0.00481
C 15.96837 22.00804 0.00979
C 18.48524 2.14873 -0.00111
C 18.41335 0.74147 -0.03557
C 17.22769 0.02096 0.03754
C 19.67927 32.61121 0.01739
C 20.89173 31.92186 0.00755
C 20.92585 30.54846 -0.0054
C 19.67095 29.80996 0.00667
C 19.66909 28.39226 0.00143
C 20.90151 27.70039 -0.017
C 20.92673 26.29462 0.00364
C 19.7261 25.6053 -0.00831
C 19.68024 24.13582 -0.02957
C 20.91132 23.44722 -0.04422
C 20.91323 22.0321 0.00654
C 19.67813 21.24158 -0.00703
C 19.68288 19.86803 -0.04076
C 20.9198 19.18221 -0.00652
C 19.67902 7.05439 0.0058
C 20.90724 6.36557 -0.00865
C 17.21263 2.84322 0.04892
C 11.04871 31.96219 0.00165
C 17.19738 4.27051 0.01452
C 18.43592 6.45706 0.02691
C 14.76216 21.34808 0.01443
C 15.94885 4.94577 0.03505
C 14.78564 4.24456 -0.02815
C 14.77335 2.86069 -0.04147
C 15.99079 2.16687 -0.05302
C 15.97762 0.71857 0.00213
C 14.77421 34.07953 -0.00066
C 17.21792 32.66943 -0.00289
C 18.49346 31.92522 0.00028
C 18.45004 30.50994 -0.02213
C 17.20905 29.82559 0.03698
C 17.23619 28.36753 -0.00109
C 18.42552 27.66267 -0.00491
C 18.40773 26.26778 0.03338
C 17.20421 25.57015 -0.0258
C 17.20312 24.11703 -0.0331
C 18.38629 23.45722 -0.00316
C 18.44046 22.02241 0.02188
C 17.27089 21.2836 -0.01979
C 18.43743 4.97098 -0.01581
C 9.85046 32.61829 0.02819
C 7.40204 34.06691 -0.00891
C 8.63651 0.72563 -0.01046
C 3.67635 6.37093 -0.00049
C 3.69628 4.95556 0.00848
C 2.51759 4.27457 -0.01303
C 2.44796 2.90705 -0.01378
C 3.72181 2.10177 0.02635
C 3.67792 0.72973 0.0127
C 2.45251 34.07499 0.01396
C 4.9351 32.71158 0.01849
C 6.18754 31.92708 -0.01142
C 6.12671 30.52248 -0.00562
C 4.90358 29.79767 -0.00494
C 4.91625 28.39142 0.00054
C 6.14787 27.67428 0.03007
C 6.1502 26.2837 -0.00095
C 4.90133 25.54465 0.01572
C 4.89181 24.14986 -0.04848
C 6.17225 23.43099 -0.00892
C 6.1282 22.01851 -0.01362
C 4.87084 21.36675 -0.0008
C 2.50582 7.1418 0.00873
C 4.92475 19.8672 0.0288
C 2.44611 8.51936 0.01227
C 3.67361 10.67655 -0.00966
C 3.70965 30.49872 -0.00074
C 2.50819 29.83632 -0.00518
C 2.48304 28.39892 0.0086
C 3.72719 27.67311 -0.00643
C 3.68664 26.28906 0.017
C 2.4424 25.54124 -0.03113
C 2.45186 24.19275 -0.02566
C 3.67884 23.43743 -0.00094
C 3.68649 21.97678 0.02322
C 2.46372 21.28373 -0.00725
C 2.48348 19.88581 -0.05697
C 3.67231 19.16822 0.01087
C 3.71915 17.73227 -0.01343
C 2.39858 17.02164 0.00988
C 2.42013 15.6874 0.0276
C 3.66177 14.95156 0.01305
C 3.6719 13.51706 -0.00077
C 2.48279 12.8209 0.03368
C 2.48333 11.29769 -0.02929
C 3.69139 9.23582 -0.03337
C 20.93683 4.99719 0.00675
C 6.15859 19.21369 0.00393
C 4.9117 17.0582 0.00685
C 7.35016 25.551 0.01364
C 7.38996 24.1721 -0.01062
C 8.6221 23.43807 -0.00033
C 8.598 21.99106 0.03589
C 7.37438 21.30366 -0.02759
C 7.3883 19.92603 0.0402
C 8.57517 19.16535 0.00572
C 8.60603 17.77388 0.03592
C 7.40364 17.05045 0.00406
C 7.38442 15.63358 0.00943
C 8.56923 14.85362 0.02841
C 8.58701 13.48565 -0.01111
C 7.3596 12.82954 -0.01275
C 7.35621 11.33129 0.00985
C 8.60364 10.65829 -0.02245
C 8.58784 9.26811 -0.00428
C 7.36107 8.5343 0.03101
C 7.37999 7.05493 -0.01536
C 7.35764 2.85196 -0.02689
C 8.63255 26.29578 -0.00719
C 6.17269 17.77629 0.00895
C 8.6115 27.70382 0.01641
C 7.40553 29.83317 -0.00334
C 4.94341 15.62 0.02888
C 6.14315 14.91164 -0.00482
C 6.10976 13.49105 -0.01384
C 4.95001 12.76925 0.03693
C 4.91442 11.36684 0.01745
C 6.12601 10.67707 0.00488
C 6.12989 9.26618 -0.01004
C 4.88348 8.59706 -0.02896
C 4.9113 7.14963 -0.00131
C 6.18425 6.36736 -0.01118
C 6.08702 4.96736 -0.014
C 4.91863 4.28552 0.02147
C 4.93046 2.84353 0.00373
C 6.16773 2.14864 -0.00191
C 6.17098 0.72605 0.00438
C 4.88227 0.04246 0.01291
C 7.41264 32.66761 0.00093
C 8.58355 31.94291 0.00057
C 8.5867 30.57342 -0.01634
C 7.3858 28.40241 0.02339
C 19.68029 4.25367 -0.00311
C 19.66081 2.86393 0.00742
C 20.91325 2.09955 -0.01594
C 30.77738 0.72731 0.00307
C 29.5291 34.0291 0.00346
C 31.94208 32.66161 0.01713
C 33.17966 31.94435 -0.01694
C 33.21688 30.52602 0.01428
C 31.97286 29.82642 -0.02142
C 31.95099 28.39595 0.0544
C 33.18185 27.70741 0.00026
C 33.17426 26.23874 0.00682
C 31.9751 25.57633 -0.01779
C 31.95226 24.15045 0.03794
C 33.22818 23.43934 0.01927
C 33.21642 21.97679 0.01574
C 32.00025 21.30601 -0.02383
C 31.97504 19.90126 -0.01429
C 33.22886 19.17692 -0.0136
C 33.19444 17.7861 0.00594
C 31.96662 17.04212 -0.02474
C 31.99343 15.59636 0.00369
C 30.73728 2.11243 0.00716
C 33.18201 14.91813 0.00455
C 29.54766 2.85503 0.02108
C 30.7568 4.95697 0.07705
C 30.76922 30.4884 0.03265
C 29.50743 29.78031 -0.02049
C 29.51624 28.42279 -0.01854
C 30.746 27.71511 -0.01415
C 30.76957 26.28481 -0.03039
C 29.51753 25.53087 0.01836
C 29.49375 24.14243 0.03531
C 30.78339 23.43454 -0.00669
C 30.73534 21.96658 0.0101
C 29.53776 21.26937 0.01705
C 29.56014 19.89895 -0.0405
C 30.74453 19.19371 -0.01303
C 30.73296 17.73339 -0.01461
C 29.50413 17.05484 -0.02155
C 30.78745 10.59133 -0.00944
C 30.71969 9.2449 -0.03735
C 29.47836 8.53351 -0.00971
C 29.50475 7.08079 0.01518
C 30.73031 6.42694 0.01908
C 29.48427 4.25101 0.0103
C 30.72649 31.9065 0.00261
C 33.24561 13.46652 -0.00644
C 31.95685 11.35643 0.00137
C 0.0304 19.87821 0.01951
C 1.24347 19.14549 -0.01678
C 1.22755 17.74434 0.01223
C 0.02624 16.99652 0.00648
C 34.40158 15.60557 0.02114
C 1.23291 14.8955 -0.02957
C 1.23235 13.50811 0.00343
C 34.42879 12.75397 -0.02656
C 34.4255 11.40963 -0.02442
C 1.21085 10.68263 -0.00027
C 1.25496 9.25188 -0.00583
C 34.40046 8.53806 -0.02302
C 34.42971 7.1041 -0.02849
C 1.21215 6.36086 0.02931
C 1.24636 4.97601 0.00628
C 0.02275 4.22346 -0.0345
C 34.42629 2.80425 -0.00931
C 1.25636 2.16225 -0.00939
C 1.25891 0.71543 -0.00468
C 0.00995 21.33117 -0.02213
C 31.93495 12.74473 -0.01839
C 1.18953 22.01276 0.02712
C 34.41553 24.1484 0.03076
C 33.22259 10.6411 0.00199
C 33.14401 9.21992 0.04381
C 31.95518 8.51446 0.02806
C 31.94702 7.098 0.01504
C 33.18115 6.39537 -0.00069
C 33.19894 4.93966 0.04926
C 31.97669 4.29681 -0.03838
C 31.98446 2.895 0.00349
C 33.19793 2.11497 -0.00323
C 33.20117 0.67819 -0.00841
C 31.95274 34.06541 0.0001
C 34.39445 32.66386 -0.02927
C 1.2328 31.9776 -0.01404
C 1.2576 30.49629 0.01027
C 34.42506 29.80856 0.01831
C 34.41811 28.44599 -0.01037
C 1.23668 27.67475 -0.00439
C 1.23767 26.30353 -0.00598
C 34.41653 25.59723 -0.05239
C 1.21016 23.4463 0.00723
C 3.70476 31.97361 0.01465
C 29.54471 32.63455 0.02326
C 28.29762 0.70006 0.0014
C 22.08335 7.06013 0.02734
C 23.34368 6.37634 -0.0055
C 23.35228 4.98853 0.01515
C 22.11516 4.30842 -0.00225
C 22.11793 2.84212 0.00071
C 23.36278 2.09882 -0.01107
C 23.34245 0.69481 -0.01586
C 22.13331 0.02759 -0.01971
C 24.59862 32.65219 -0.02118
C 25.76493 31.92592 0.00733
C 25.80437 30.4932 -0.00178
C 24.57477 29.82235 0.00768
C 24.58673 28.39903 -0.0276
C 25.8006 27.71393 0.03005
C 25.81061 26.22992 -0.04078
C 24.58509 25.56666 0.02117
C 24.63085 24.16168 0.02737
C 25.84682 23.4538 -0.00498
C 25.83832 22.00033 0.00135
C 22.15968 8.49858 0.01153
C 24.58152 21.28104 0.03102
C 23.37171 9.28504 0.02239
C 23.39844 13.47521 -0.02845
C 20.91215 0.71135 0.0106
C 19.62632 0.01497 -0.01154
C 22.08514 32.65164 -0.01721
C 23.33472 31.91215 -0.02422
C 23.34286 30.52171 0.01277
C 22.12768 29.78441 0.00096
C 22.14007 28.40293 -0.01527
C 23.32538 27.66909 0.01087
C 23.33559 26.22105 0.00199
C 22.12787 25.54567 0.01511
C 22.14011 24.13026 -0.00478
C 23.37326 23.40661 -0.01662
C 23.37907 21.97628 -0.01185
C 22.18509 21.26982 0.01126
C 22.1154 19.85739 0.01852
C 23.38587 19.11444 -0.00381
C 23.34296 17.71547 0.03046
C 22.14134 17.05879 0.0296
C 23.38338 14.84993 0.03374
C 23.41737 10.61507 -0.03213
C 27.03929 34.04423 0.00924
C 24.57183 19.84601 0.02555
C 25.84347 17.73629 -0.00285
C 28.27283 26.27393 -0.00294
C 27.07708 25.55474 0.00152
C 27.05235 24.14538 0.01257
C 28.26966 23.41927 0.02316
C 28.31874 21.98918 0.04185
C 27.09162 21.30842 0.00194
C 27.07243 19.91404 -0.00621
C 28.30329 19.2066 0.02611
C 28.30377 17.70364 0.02198
C 27.07032 17.03025 0.01094
C 27.07856 15.63331 0.00235
C 28.25453 9.25297 0.01495
C 27.04441 8.53414 0.01259
C 27.065 7.10241 0.01799
C 28.2593 6.39519 0.01699
C 28.28096 4.95034 -0.00416
C 27.04012 4.26839 0.01177
C 27.07027 2.85692 0.04266
C 28.27875 2.10693 0.01324
C 28.28461 27.71625 0.00826
C 25.84896 19.17962 0.01423
C 27.07224 28.3702 0.00487
C 28.24756 30.48303 -0.02815
C 24.61472 17.05349 -0.009
C 24.59496 15.57963 -0.01199
C 25.88119 14.953 -0.00229
C 25.83421 13.5346 -0.00938
C 24.5853 12.78378 -0.0264
C 24.63618 11.36809 -0.01154
C 25.75508 10.65175 0.00684
C 25.77692 9.20492 -0.01052
C 24.60692 8.50168 -0.01679
C 24.56505 7.11251 0.00367
C 25.8647 6.38758 0.04306
C 25.76203 4.94849 0.00996
C 24.59321 4.26423 0.00195
C 24.57977 2.86231 -0.00802
C 25.81471 2.14097 -0.00218
C 25.7986 0.73096 -0.01654
C 24.59078 34.06627 -0.00037
C 27.07529 32.66289 -0.0032
C 28.26575 31.95034 0.00622
C 27.06434 29.76119 -0.00942
C 2.47264 32.66073 -0.03996
