334
Graphene
C 34.32339 0.03094 0.01295
C 18.34884 30.5664 0.01443
C 17.18587 29.81854 0.03505
C 17.14097 28.3384 -0.02815
C 18.2943 27.60176 -0.04147
C 18.34514 26.21844 -0.05302
C 17.15525 25.53338 0.00213
C 17.32724 24.04305 -0.00066
C 18.35453 32.00217 0.00979
C 18.57645 23.45122 -0.00289
C 17.33603 7.1309 -0.02213
C 18.47336 6.38354 0.03698
C 18.48519 5.00213 -0.00109
C 17.30084 4.27695 -0.00491
C 17.2598 2.90924 0.03338
C 18.52142 2.0845 -0.0258
C 18.48742 0.77463 -0.0331
C 16.78593 8.36896 0.00028
C 17.13852 32.71884 -0.00481
C 14.76323 0.06297 0.00889
C 16.02449 0.78364 -0.02162
C 12.23223 24.22596 0.00052
C 13.35144 23.53324 -0.03682
C 13.70176 2.16091 0.01965
C 13.46907 0.80894 0.02058
C 12.13219 0.15598 -0.01957
C 14.76725 32.64378 -0.0108
C 15.91971 32.00796 -0.00368
C 15.87671 30.62624 -0.02696
C 14.73391 29.91653 -0.00114
C 14.77897 28.46068 0.00228
C 15.91909 27.5809 0.00798
C 15.89529 26.12899 0.00422
C 14.67897 25.55028 0.0351
C 14.68009 24.07536 -0.03113
C 15.94334 23.55421 0.02098
C 14.74912 2.7172 0.01848
C 16.03365 2.25446 -0.00619
C 17.15637 0.06488 -0.00316
C 19.67358 32.71423 0.02188
C 20.94307 31.90875 -0.01979
C 20.86991 30.5303 0.02691
C 22.12537 29.80038 -0.00865
C 22.14258 28.36716 0.00675
C 23.27634 27.61507 -0.00311
C 23.28085 26.29018 0.00742
C 22.05076 25.58167 -0.01594
C 22.15395 24.11857 0.0106
C 23.30067 23.32038 -0.01154
C 23.21946 21.97688 -0.01721
C 21.93447 21.29844 -0.02422
C 22.06769 19.87334 0.01277
C 23.06413 19.08438 0.00096
C 23.31458 17.69659 -0.01527
C 23.29805 14.532 0.01087
C 23.21237 13.14713 0.00199
C 22.54835 12.07191 0.01511
C 23.39484 10.97181 -0.00478
C 23.36776 9.40014 -0.01662
C 23.31685 30.46059 0.0058
C 12.32562 25.68631 0.00374
C 23.43977 31.88825 -0.00652
C 19.6962 0.02748 -0.00703
C 19.5902 29.82495 -0.01581
C 19.55287 28.35062 0.01452
C 20.85842 27.64537 0.04892
C 20.87141 26.32787 -0.00111
C 19.63642 25.61348 -0.03557
C 19.72813 24.23078 0.03754
C 20.86857 23.43821 0.01739
C 20.66191 22.01102 0.00755
C 20.88893 9.29702 -0.0054
C 19.91349 8.47087 0.00667
C 19.74774 7.08668 0.00143
C 21.01816 6.39609 -0.017
C 20.99198 4.94797 0.00364
C 19.76959 4.21977 -0.00831
C 19.75032 2.8328 -0.02957
C 20.97054 2.14438 -0.04422
C 20.92782 0.71021 0.00654
C 22.18197 32.61545 -0.04076
C 13.51624 26.37256 -0.02813
C 13.56274 27.74258 -0.01952
C 12.33344 28.48327 0.05265
C 2.38912 4.27033 -0.02896
C 2.49197 2.83468 -0.00131
C 3.64052 2.11921 -0.01118
C 3.51415 0.78156 -0.014
C 2.43166 0.00544 0.02147
C 4.82839 32.76047 0.00373
C 6.10877 32.00312 -0.00191
C 6.09629 30.56631 0.00438
C 4.91254 29.86763 0.01291
C 4.86547 28.44876 0.00093
C 6.10325 27.70575 0.00057
C 6.14475 26.29658 -0.01634
C 4.82523 25.71214 -0.00334
C 4.91434 24.26342 0.02339
C 6.12689 23.4816 0.01641
C 6.13833 22.06252 -0.00719
C 4.90876 21.41633 0.01364
C 3.71193 4.86435 -0.01004
C 5.02295 20.00941 -0.01062
C 3.77208 6.35194 0.00488
C 2.45613 8.46145 0.03693
C 3.65317 30.59164 -0.00562
C 2.3612 29.90264 -0.00494
C 2.37546 28.4341 0.00054
C 3.56161 27.72557 0.03007
C 3.60296 26.37139 -0.00095
C 2.44475 25.58327 0.01572
C 2.3989 24.17592 -0.04848
C 3.67998 23.543 -0.00892
C 3.70393 22.07754 -0.01362
C 2.47405 21.32089 -0.0008
C 2.57658 19.98193 0.0288
C 3.96267 19.12892 0.00393
C 3.75113 17.78964 0.00895
C 2.61075 16.98161 0.00685
C 2.35392 15.61037 0.02888
C 2.39323 12.7181 -0.00482
C 2.36734 11.55588 -0.01384
C 2.50737 7.07315 0.01745
C 22.12268 8.66548 -0.01185
C 4.93427 7.00053 -0.00033
C 6.1358 4.98071 -0.02759
C 10.91407 32.13822 0.00444
C 10.94733 30.65999 -0.00925
C 9.90152 29.8415 0.01877
C 9.84248 28.39454 0.01363
C 11.08539 27.72457 -0.02162
C 11.14002 26.32889 0.00415
C 9.79679 25.57203 -0.0014
C 9.80255 24.20599 0.02162
C 11.05403 23.50313 0.0076
C 10.93752 22.13072 0.01241
C 9.83651 21.49272 -0.01454
C 10.90242 0.79016 0.01945
C 9.67143 0.31222 0.01416
C 12.20165 32.77432 0.03542
C 13.5064 32.06749 0.02299
C 13.48605 30.68114 0.00244
C 12.26168 29.9032 -0.01717
C 9.65168 32.91392 -0.01789
C 5.93723 6.17392 0.03589
C 7.18608 0.01438 0.02894
C 7.70672 2.08022 0.00165
C 4.95116 4.15901 0.0402
C 5.00878 2.84079 0.00572
C 6.26959 2.01325 0.03592
C 6.01621 0.62187 0.00406
C 4.79925 0.04521 0.00943
C 7.3531 32.72914 0.02841
C 8.58197 31.95679 -0.01111
C 8.61812 30.51035 -0.01275
C 7.30635 29.85944 0.00985
C 7.39123 28.43134 -0.02245
C 8.59664 27.74273 -0.00428
C 8.54725 26.35178 0.03101
C 7.37694 25.61893 -0.01536
C 7.34831 24.16234 -0.02689
C 8.53526 23.39818 -0.01046
C 8.50461 21.94149 -0.00891
C 7.25943 21.27144 0.02819
C 8.33588 1.02202 -0.02971
C 22.25255 7.12763 0.01126
C 23.38385 6.38204 0.01852
C 23.42259 4.96828 -0.00381
C 31.93944 28.47184 0.0544
C 33.12495 27.71342 0.00026
C 33.18537 26.31525 0.00682
C 31.9891 25.56601 -0.01779
C 31.94154 24.0477 0.03794
C 33.18622 23.39235 0.01927
C 33.24043 21.99659 0.01574
C 32.0408 21.29866 -0.02383
C 32.00439 19.87602 -0.01429
C 33.21937 19.18518 -0.0136
C 33.29028 17.79331 0.00594
C 32.01746 17.08649 -0.02474
C 31.90045 15.71399 0.00369
C 33.09761 15.01929 0.00455
C 33.11155 13.4971 -0.00644
C 31.91362 12.76689 -0.01839
C 31.93869 11.33951 0.00137
C 31.84851 29.89794 -0.02142
C 33.18166 10.63832 0.00199
C 33.10926 30.49847 0.01428
C 31.87759 32.69046 0.01713
C 29.48807 17.00277 0.0101
C 29.45779 15.58365 0.01705
C 30.65547 14.90991 -0.0405
C 30.71942 13.48644 -0.01303
C 29.48269 12.78132 -0.01461
C 29.5708 11.38597 -0.02155
C 30.75361 10.62382 -0.00944
C 30.72706 9.19615 -0.03735
C 29.51633 8.49515 -0.00971
C 29.50691 7.14055 0.01518
C 30.68653 6.45084 0.01908
C 30.69153 4.9768 0.07705
C 29.48785 4.20342 0.0103
C 29.43029 2.81754 0.02108
C 30.65319 2.10786 0.00716
C 30.59604 0.69845 0.00307
C 29.3372 0.02769 0.00346
C 33.13872 31.92853 -0.01694
C 30.69348 17.74517 -0.00669
C 33.17567 9.25896 0.04381
C 31.93469 7.10358 0.01504
C 1.24965 17.76557 0.01223
C 0.04549 17.06548 0.00648
C 34.42896 15.65784 0.02114
C 1.23531 14.88519 -0.02957
C 1.14983 13.55672 0.00343
C 34.32792 12.84389 -0.02656
C 34.34893 11.39191 -0.02442
C 1.2756 10.71524 -0.00027
C 1.36459 9.28953 -0.00583
C 0.03201 8.58054 -0.02302
C 34.41218 7.06194 -0.02849
C 1.15901 6.39001 0.02931
C 1.18756 4.96037 0.00628
C 34.4192 4.2448 -0.0345
C 0.03572 2.88277 -0.00931
C 1.25321 2.10892 -0.00939
C 1.21144 0.70645 -0.00468
C 1.39977 19.2394 -0.01678
C 31.99078 8.47864 0.02806
C 0.10093 19.8262 0.01951
C 1.07618 22.04808 0.02712
C 33.17881 6.42967 -0.00069
C 33.15874 5.02866 0.04926
C 31.95123 4.28007 -0.03838
C 31.96586 2.83883 0.00349
C 33.1975 2.16868 -0.00323
C 33.12683 0.77078 -0.00841
C 31.87213 0.08121 0.0001
C 34.34604 32.65413 -0.02927
C 1.17394 32.02258 -0.01404
C 1.09662 30.57756 0.01027
C 34.33874 29.80203 0.01831
C 34.31242 28.4434 -0.01037
C 1.09476 27.72521 -0.00439
C 1.20317 26.30691 -0.00598
C 0.02537 25.57766 -0.05239
C 34.42888 24.1321 0.03076
C 1.16936 23.41435 0.00723
C 0.00397 21.25762 -0.02213
C 3.59423 32.00526 -0.01142
C 30.74439 19.24376 0.03531
C 29.45522 21.31883 -0.03039
C 24.42762 15.47911 -0.04078
C 25.739 14.96485 0.02117
C 25.86162 13.50306 0.02737
C 24.66258 12.77428 -0.00498
C 24.73726 11.42467 0.00135
C 25.92713 10.6338 0.03102
C 25.85807 9.2182 0.02555
C 24.58873 8.54153 0.01423
C 24.60073 7.0942 -0.00285
C 25.8325 6.43531 -0.009
C 25.80245 5.01098 -0.01199
C 24.58913 4.29511 -0.00229
C 24.6438 2.83473 -0.00938
C 25.75597 2.14213 -0.0264
C 25.73416 0.75504 -0.01154
C 24.47375 0.03522 0.00684
C 26.99316 32.63686 -0.01052
C 24.4052 16.93883 0.03005
C 28.22373 31.93444 -0.01679
C 25.72577 17.67937 -0.0276
C 24.39039 19.80283 -0.00178
C 22.21666 4.22996 0.03046
C 22.21091 2.82529 0.0296
C 23.34769 2.0816 0.03374
C 23.29977 0.71964 -0.02845
C 22.08428 34.05342 -0.03213
C 24.55992 32.66527 0.02239
C 25.79663 31.90879 0.01153
C 25.73195 30.52868 0.02734
C 24.52152 29.77585 -0.0055
C 24.52962 28.358 0.01515
C 25.72629 27.61537 -0.00225
C 25.75822 26.19842 0.00071
C 24.57089 25.53558 -0.01107
C 24.48529 24.08209 -0.01586
C 25.67433 23.35282 -0.01971
C 25.67993 21.9181 -0.02118
C 24.38409 21.20288 0.00733
C 25.66727 19.16421 0.00768
C 29.4496 19.87073 0.01836
C 28.18325 30.51825 0.00367
C 26.96792 28.35461 0.00996
C 28.26467 5.0251 0.00235
C 27.01711 4.28338 0.01495
C 27.05789 2.8837 0.01259
C 28.17639 2.09893 0.01799
C 28.1124 0.72434 0.01699
C 27.01544 34.04565 -0.00416
C 29.42579 32.69075 0.01177
C 30.70922 31.95073 0.04266
C 30.64149 30.57086 0.01324
C 29.53379 29.76492 0.0014
C 29.44711 28.37856 0.00924
C 30.74627 27.73897 0.02326
C 30.71516 26.26118 0.00261
C 29.47151 25.51671 0.03265
C 29.42494 24.08032 -0.02049
C 30.71908 23.38582 -0.01854
C 30.7011 22.00155 -0.01415
C 28.28742 6.43313 0.01094
C 27.02204 29.7795 0.04306
C 27.11339 7.1251 0.02198
C 28.32825 9.2809 -0.00621
C 28.26545 27.64246 0.00195
C 28.26549 26.19721 -0.00802
C 27.01936 25.49789 -0.00218
C 26.88962 24.10079 -0.01654
C 28.17926 23.42937 -0.00037
C 28.16906 22.00438 -0.0032
C 26.9345 21.2539 0.00622
C 26.97937 19.82897 -0.02815
C 28.1873 19.09718 -0.00942
C 28.23543 17.6998 0.00487
C 26.97171 16.96292 0.00826
C 26.99909 15.60019 -0.00294
C 28.17301 14.88479 0.00152
C 28.29409 13.48006 0.01257
C 27.07673 12.75107 0.02316
C 27.08156 11.35674 0.04185
C 28.33383 10.61868 0.00194
C 27.09803 8.57659 0.02611
C 2.40878 32.65875 0.01849
