369
Graphene
C 0.00202 0.12929 0.01295
C 18.32195 27.61312 -0.01952
C 18.30816 26.20068 -0.02813
C 17.09676 25.43457 0.00374
C 16.9782 24.01566 0.00052
C 18.28216 23.38334 -0.03682
C 18.29617 21.92789 0.01965
C 17.0409 21.19899 0.02058
C 17.11825 19.8484 -0.01957
C 18.44524 19.16422 -0.0108
C 18.50108 17.70841 -0.00368
C 17.37181 16.90671 -0.02696
C 17.35147 15.5187 -0.00114
C 18.46576 14.87869 0.00228
C 18.36788 13.42101 0.00798
C 17.07153 12.75031 0.00422
C 17.15615 11.36963 0.0351
C 18.40191 10.57648 -0.03113
C 18.48783 9.20149 0.02098
C 17.1435 8.45101 0.01848
C 17.09036 28.38047 0.05265
C 17.24555 7.02721 -0.00619
C 17.09295 29.78854 -0.01717
C 18.4296 31.89214 0.02299
C 14.55085 19.51903 0.02819
C 15.94959 19.12756 0.00165
C 16.1713 17.70616 -0.02971
C 14.91549 17.21942 0.02894
C 14.76492 15.88657 -0.01789
C 16.05408 15.00228 0.00444
C 15.7993 13.51362 -0.00925
C 14.37219 12.9611 0.01877
C 14.728 11.48487 0.01363
C 15.75277 10.6336 -0.02162
C 15.92048 9.11013 0.00415
C 15.97469 6.40128 -0.0014
C 15.73995 5.05439 0.02162
C 14.79523 4.17321 0.0076
C 14.76684 2.7874 0.01241
C 16.02531 2.01702 -0.01454
C 16.02382 0.63787 0.01945
C 14.77537 0.00977 0.01416
C 17.16469 32.59697 0.03542
C 18.31333 30.49533 0.00244
C 14.46463 20.92068 -0.00891
C 18.48327 6.41019 -0.02162
C 17.03579 4.18331 -0.00481
C 19.62748 12.76315 0.04892
C 19.61793 11.38942 -0.00111
C 20.84233 10.60177 -0.03557
C 20.91972 9.23355 0.03754
C 19.69536 8.49325 0.01739
C 19.63169 7.11692 0.00755
C 20.88887 6.39556 -0.0054
C 20.821 4.92719 0.00667
C 19.64708 4.20545 0.00143
C 19.65447 2.74189 -0.017
C 20.93722 2.03357 0.00364
C 20.85166 0.66171 -0.00831
C 19.6265 0.01444 -0.02957
C 22.06236 32.71801 -0.04422
C 23.29401 31.94631 0.00654
C 23.29927 30.49751 -0.00703
C 22.07296 29.80317 -0.04076
C 22.0404 28.39105 -0.00652
C 23.30214 27.63188 0.0058
C 20.92054 13.41975 0.01452
C 18.36829 4.96099 0.00889
C 20.88843 14.8573 -0.01581
C 19.68166 16.96063 -0.01979
C 17.17992 2.76375 0.00979
C 18.44596 2.0625 0.01443
C 18.37169 0.66383 0.03505
C 17.22831 33.93749 -0.02815
C 19.64023 32.63412 -0.04147
C 20.82146 31.90779 -0.05302
C 20.79197 30.42548 0.00213
C 19.58887 29.73249 -0.00066
C 19.6275 28.36989 -0.00289
C 20.87005 27.64756 0.00028
C 20.76625 26.22314 -0.02213
C 19.56261 25.60072 0.03698
C 19.61049 24.00109 -0.00109
C 20.88253 23.3629 -0.00491
C 20.84304 21.96087 0.03338
C 19.64408 21.23308 -0.0258
C 19.69337 19.87763 -0.0331
C 20.85183 19.12391 -0.00316
C 20.89841 17.67187 0.02188
C 19.65283 15.55815 0.02691
C 15.68416 21.83048 -0.01046
C 15.70701 23.28066 -0.02689
C 14.58893 24.14054 -0.01536
C 2.48262 3.00677 -0.03337
C 3.69072 2.16536 0.01227
C 3.71298 0.75615 0.00873
C 2.44713 0.10306 -0.00049
C 4.87969 32.74919 0.00848
C 6.11449 32.02379 -0.01303
C 6.08875 30.55681 -0.01378
C 4.84164 29.87065 0.02635
C 4.90146 28.48706 0.0127
C 6.09046 27.79378 0.01396
C 5.74375 13.7914 0.01849
C 4.92576 12.72352 -0.01142
C 5.01604 11.32091 -0.00562
C 5.01744 4.37612 -0.00494
C 4.85284 2.99302 0.00054
C 6.06626 2.24795 0.03007
C 6.11877 0.81089 -0.00095
C 4.88352 0.06601 0.01572
C 7.32804 32.76503 -0.04848
C 2.60735 4.47159 -0.00966
C 8.6586 32.09761 -0.00892
C 3.95762 5.21531 -0.02929
C 2.42507 7.17832 -0.00077
C 3.64745 30.62185 0.01996
C 2.38601 29.91861 -0.03996
C 2.36529 28.53705 0.01465
C 3.61793 27.87037 -0.00074
C 3.68665 26.46101 -0.00518
C 2.57133 25.58991 0.0086
C 2.47334 24.14173 -0.00643
C 3.4613 23.1801 0.017
C 2.51138 21.51644 -0.03113
C 2.34958 20.11165 -0.02566
C 2.50186 17.07884 -0.00094
C 2.56691 15.76183 0.02322
C 3.72024 14.91461 -0.00725
C 3.63791 13.56569 -0.05697
C 2.46443 12.72949 0.01087
C 2.44506 11.36989 -0.01343
C 3.89596 10.60254 0.00988
C 3.75555 9.19549 0.0276
C 2.42209 8.60356 0.01305
C 3.65728 6.5781 0.03368
C 8.55572 30.62478 -0.01362
C 7.34453 29.8127 -0.0008
C 7.34707 28.33108 0.0288
C 12.13921 24.17192 0.01641
C 13.23038 23.25266 -0.00719
C 13.36123 21.83289 0.01364
C 13.87023 18.27245 -0.01062
C 12.49943 16.64635 -0.00033
C 13.36477 15.34984 0.03589
C 13.38106 13.99387 -0.02759
C 12.41537 3.01521 0.0402
C 13.53599 2.07646 0.00572
C 13.52445 0.79542 0.03592
C 12.26149 0.05035 0.00406
C 14.77223 32.66398 0.00943
C 15.94337 31.96344 0.02841
C 15.85509 30.48499 -0.01111
C 14.67307 29.84628 -0.01275
C 14.682 28.42003 0.00985
C 15.83576 27.66663 -0.02245
C 15.77981 26.23564 -0.00428
C 14.58194 25.52791 0.03101
C 12.00729 25.59102 0.02339
C 13.41202 26.3148 -0.00334
C 13.46713 27.71416 -0.01634
C 12.2379 28.37566 0.00057
C 8.61234 27.72013 0.00393
C 7.23814 3.12193 0.00895
C 8.55537 2.57703 0.00685
C 8.63811 0.97879 0.02888
C 7.40529 0.23005 -0.00482
C 9.80857 32.83716 -0.01384
C 11.06888 32.08616 0.03693
C 10.98418 30.72161 0.01745
C 9.74546 29.98347 0.00488
C 23.30079 26.20861 -0.00865
C 9.75398 28.52816 -0.01004
C 10.79699 26.39257 -0.00131
C 9.92687 3.16128 -0.01118
C 11.16674 2.43566 -0.014
C 11.09332 0.86087 0.02147
C 9.81336 0.25448 0.00373
C 12.29037 32.71777 -0.00191
C 13.58579 32.03791 0.00438
C 13.40498 30.65423 0.01291
C 12.17452 29.93545 0.00093
C 10.97473 27.76837 -0.02896
C 3.58102 32.02032 -0.00279
C 22.0188 25.5197 0.00675
C 23.31933 23.352 0.00742
C 30.68141 0.72511 0.00307
C 29.48451 0.09156 0.00346
C 31.8391 32.71791 0.01713
C 33.15227 32.03887 -0.01694
C 33.13382 30.57108 0.01428
C 31.92382 29.88736 -0.02142
C 31.86988 28.48767 0.0544
C 33.10104 27.73324 0.00026
C 33.12665 26.28786 0.00682
C 31.90933 25.54407 -0.01779
C 31.89444 24.1558 0.03794
C 33.14489 23.53419 0.01927
C 33.16172 22.13358 0.01574
C 31.94826 21.3429 -0.02383
C 31.90526 19.94169 -0.01429
C 33.11697 19.21715 -0.0136
C 33.21257 17.84322 0.00594
C 31.98968 17.10107 -0.02474
C 32.03463 15.67034 0.00369
C 30.68239 2.11253 0.00716
C 33.19481 14.89842 0.00455
C 29.54324 2.89426 0.02108
C 30.79956 4.96733 0.07705
C 29.45695 25.54063 0.03265
C 29.51589 24.09859 -0.02049
C 30.75917 23.39321 -0.01854
C 30.75151 22.04103 -0.01415
C 29.51431 21.28047 -0.03039
C 29.50847 19.88531 0.01836
C 30.69897 19.21773 0.03531
C 30.70997 17.75295 -0.00669
C 29.46755 16.96264 0.0101
C 29.46413 15.56868 0.01705
C 30.79772 14.95707 -0.0405
C 30.70538 13.50809 -0.01303
C 29.48606 12.79934 -0.01461
C 29.54002 11.31237 -0.02155
C 30.83969 10.68722 -0.00944
C 30.85223 9.23148 -0.03735
C 29.62741 8.51585 -0.00971
C 29.54137 7.0785 0.01518
C 30.76345 6.43273 0.01908
C 29.48603 4.26139 0.0103
C 30.65729 26.29337 0.00261
C 33.18088 13.52971 -0.00644
C 32.02482 11.38899 0.00137
C 34.3333 19.96839 0.01951
C 1.22591 19.26123 -0.01678
C 1.35861 17.81276 0.01223
C 0.0925 17.04374 0.00648
C 0.03948 15.63142 0.02114
C 1.27541 14.85538 -0.02957
C 1.26759 13.45387 0.00343
C 34.36041 12.76492 -0.02656
C 0.11138 11.32314 -0.02442
C 1.26866 10.64947 -0.00027
C 1.21499 9.18364 -0.00583
C 34.41213 8.5225 -0.02302
C 34.42759 7.07422 -0.02849
C 1.20758 6.48801 0.02931
C 1.34186 5.12346 0.00628
C 0.06649 4.34161 -0.0345
C 34.40602 2.89466 -0.00931
C 1.25266 2.22927 -0.00939
C 1.31586 0.89709 -0.00468
C 0.00032 21.40967 -0.02213
C 31.91236 12.80131 -0.01839
C 1.1763 22.06861 0.02712
C 34.33951 24.19993 0.03076
C 33.26911 10.67641 0.00199
C 33.25428 9.2382 0.04381
C 32.06786 8.50035 0.02806
C 31.9884 7.1301 0.01504
C 33.24598 6.34595 -0.00069
C 33.22594 4.96704 0.04926
C 31.99483 4.26331 -0.03838
C 31.90216 2.9068 0.00349
C 33.13505 2.2262 -0.00323
C 33.18494 0.74546 -0.00841
C 31.87801 0.09553 0.0001
C 34.30828 32.81664 -0.02927
C 1.12719 32.06847 -0.01404
C 1.15563 30.61097 0.01027
C 34.2982 29.78436 0.01831
C 34.3143 28.38396 -0.01037
C 1.21017 27.71026 -0.00439
C 1.23933 26.2533 -0.00598
C 34.38773 25.64956 -0.05239
C 1.12139 23.46959 0.00723
C 30.6379 27.77661 0.02326
C 29.42399 28.43048 0.00924
C 29.48309 29.89243 0.0014
C 25.70749 31.90266 0.01153
C 25.71069 30.41702 0.02734
C 24.48162 29.75911 -0.0055
C 24.50783 28.34824 0.01515
C 25.76774 27.65619 -0.00225
C 25.71106 26.2409 0.00071
C 24.52297 25.52004 -0.01107
C 24.50026 24.09212 -0.01586
C 25.80885 23.31812 -0.01971
C 25.77198 21.87717 -0.02118
C 24.58046 21.24804 0.00733
C 24.50985 19.75846 -0.00178
C 25.72401 19.12881 0.00768
C 25.77888 17.71453 -0.0276
C 24.60753 16.99683 0.03005
C 24.62057 15.57445 -0.04078
C 25.84047 14.87543 0.02117
C 25.80383 13.4605 0.02737
C 24.61865 12.74253 -0.00498
C 24.48323 32.64631 0.02239
C 24.58076 11.34457 0.00135
C 22.03989 0.02311 -0.03213
C 23.38656 2.10488 0.03374
C 23.33888 21.90119 -0.01594
C 22.15945 21.18896 0.0106
C 22.12827 19.85111 -0.01154
C 23.27953 19.05768 -0.01721
C 23.29146 17.62477 -0.02422
C 22.17259 16.91273 0.01277
C 22.12534 15.43517 0.00096
C 23.39753 14.86632 -0.01527
C 23.32924 13.38318 0.01087
C 22.10262 12.71445 0.00199
C 22.07038 11.31927 0.01511
C 23.36708 10.66064 -0.00478
C 23.37027 9.27714 -0.01662
C 22.13071 8.54356 -0.01185
C 22.14382 7.08063 0.01126
C 23.36255 6.39073 0.01852
C 23.36438 4.9609 -0.00381
C 22.07564 4.16993 0.03046
C 22.15699 2.77436 0.0296
C 23.35263 0.73996 -0.02845
C 25.77488 10.52195 0.03102
C 25.79229 9.09075 0.02555
C 24.51659 8.48376 0.01423
C 27.03153 15.56843 -0.00294
C 28.31018 14.83958 0.00152
C 28.19665 13.50547 0.01257
C 26.95684 12.67669 0.02316
C 26.97848 11.20635 0.04185
C 28.28523 10.61559 0.00194
C 28.34787 9.19888 -0.00621
C 27.07464 8.51015 0.02611
C 27.09034 7.0558 0.02198
C 28.29526 6.38336 0.01094
C 28.27309 5.01709 0.00235
C 26.9677 4.22 0.01495
C 27.04723 2.82556 0.01259
C 28.29231 2.12321 0.01799
C 28.2323 0.67656 0.01699
C 26.9741 0.00084 -0.00416
C 29.40016 32.76852 0.01177
C 30.63647 32.02388 0.04266
C 30.64302 30.61256 0.01324
C 27.04121 16.97929 0.00826
C 28.27972 17.70766 0.00487
C 28.26343 19.12519 -0.00942
C 26.99087 19.79504 -0.02815
C 24.57624 7.01863 -0.00285
C 25.8265 6.38944 -0.009
C 25.82241 4.93111 -0.01199
C 24.4946 4.2596 -0.00229
C 24.58888 2.82392 -0.00938
C 25.76849 2.12374 -0.0264
C 25.82129 0.73513 -0.01154
C 24.51194 0.00466 0.00684
C 26.86856 32.62242 -0.01052
C 22.0745 24.0801 -0.00311
C 28.1995 31.97753 -0.01679
C 27.00885 29.79901 0.04306
C 27.01568 28.39075 0.00996
C 28.19317 27.62707 0.00195
C 28.15639 26.19669 -0.00802
C 26.90831 25.52266 -0.00218
C 26.99199 24.10909 -0.01654
C 28.20754 23.41663 -0.00037
C 28.20468 21.95741 -0.0032
C 26.97618 21.15708 0.00622
C 28.21085 30.52435 0.00367
C 2.40629 32.69424 0.01226
