397
Graphene
C 0.01929 0.03715 0.01295
C 12.34288 2.81868 -0.01789
C 13.4728 2.19487 0.00444
C 13.52097 0.74138 -0.00925
C 12.31772 34.06102 0.01877
C 14.81661 32.70515 0.01363
C 16.00865 31.95421 -0.02162
C 15.92796 30.49082 0.00415
C 14.7012 29.80052 -0.0014
C 14.73647 28.28995 0.02162
C 12.27699 4.24613 0.02894
C 16.03327 27.71169 0.0076
C 14.79234 25.52928 -0.01454
C 14.78664 24.08843 0.01945
C 16.02442 23.43772 0.01416
C 14.71906 11.44235 0.03542
C 15.99845 10.61468 0.02299
C 15.97587 9.15478 0.00244
C 14.71957 8.47006 -0.01717
C 14.80723 7.02629 0.05265
C 15.94211 6.33815 -0.01952
C 15.95533 26.3011 0.01241
C 13.52608 4.94618 -0.02971
C 13.49728 6.44074 0.00165
C 12.23725 7.16942 0.02819
C 11.09059 6.42598 0.01364
C 11.13686 5.01296 -0.01062
C 9.86528 2.85264 -0.00033
C 11.06617 2.15269 0.03589
C 11.05367 0.71921 -0.02759
C 9.85165 34.06575 0.0402
C 12.31385 32.68476 0.00572
C 13.53934 32.05108 0.03592
C 13.48873 30.56037 0.00406
C 12.27057 29.88093 0.00943
C 12.30765 28.35073 0.02841
C 13.53675 27.68757 -0.01111
C 13.56977 26.29656 -0.01275
C 12.39315 25.56882 0.00985
C 12.27059 24.08741 -0.02245
C 13.48724 23.50015 -0.00428
C 12.24622 12.76212 0.03101
C 12.24641 11.34974 -0.01536
C 13.5555 10.65381 -0.02689
C 13.63162 9.24242 -0.01046
C 12.32314 8.5567 -0.00891
C 15.99893 4.96934 -0.02813
C 14.71734 4.34113 0.00374
C 14.73374 2.8678 0.00052
C 15.98027 2.08066 -0.03682
C 17.21957 34.03439 -0.00066
C 19.69142 32.71689 -0.00289
C 20.93039 31.93616 0.00028
C 20.89165 30.54216 -0.02213
C 19.66671 29.84176 0.03698
C 19.69178 28.35893 -0.00109
C 20.95892 27.74235 -0.00491
C 20.90178 26.23305 0.03338
C 19.68228 25.55896 -0.0258
C 19.66036 24.11975 -0.0331
C 20.93687 23.39951 -0.00316
C 20.82545 22.00683 0.02188
C 19.68127 21.27389 -0.01979
C 20.943 19.08546 0.02691
C 20.93347 17.79097 -0.01581
C 20.8966 14.94352 0.01452
C 20.86659 13.49496 0.04892
C 19.64034 12.80118 -0.00111
C 19.59968 11.3995 -0.03557
C 20.88961 10.68661 0.03754
C 20.90156 9.24067 0.01739
C 18.47269 0.67724 0.00213
C 9.84638 7.09755 -0.00719
C 18.46908 2.16393 -0.05302
C 17.2132 4.2965 -0.02815
C 16.03843 0.72571 0.01965
C 14.76695 0.01476 0.02058
C 17.21848 32.60588 -0.01957
C 18.42259 31.93165 -0.0108
C 18.44092 30.526 -0.00368
C 17.25325 29.8346 -0.02696
C 17.19231 28.40216 -0.00114
C 18.40919 27.69808 0.00228
C 18.39315 26.28668 0.00798
C 17.19444 25.5646 0.00422
C 17.16059 24.10704 0.0351
C 18.4552 23.43584 -0.03113
C 18.42427 13.40558 0.02098
C 17.26956 12.77797 0.01848
C 17.20004 11.31118 -0.00619
C 18.40649 10.63515 -0.02162
C 18.44182 9.21232 0.00889
C 17.17022 8.48447 -0.00481
C 17.23096 7.07187 0.00979
C 18.50072 6.41765 0.01443
C 18.40815 5.02884 0.03505
C 17.25021 2.81343 -0.04147
C 9.82232 8.54883 0.01641
C 11.06837 9.25488 0.02339
C 11.06027 10.70648 -0.00334
C 2.46807 34.02066 0.03828
C 4.87613 32.69187 0.01226
C 6.10934 31.98666 -0.00279
C 6.11407 30.54204 0.01996
C 4.93063 29.82271 -0.03996
C 4.918 28.44546 0.01465
C 6.17218 27.65233 -0.00074
C 6.17891 26.30375 -0.00518
C 4.95606 25.59255 0.0086
C 4.92551 24.16552 -0.00643
C 6.09336 23.51383 0.017
C 6.1748 22.00769 -0.03113
C 4.91715 21.28333 -0.02566
C 6.1181 13.46704 -0.00094
C 4.85961 12.82629 0.02322
C 4.95686 11.28113 -0.00725
C 6.20546 10.67606 -0.05697
C 6.13175 9.23129 0.01087
C 4.99461 8.50152 -0.01343
C 4.90809 7.09274 0.00988
C 6.06121 6.38473 0.0276
C 3.65265 0.79592 0.0174
C 6.15173 4.98663 0.01305
C 3.74572 2.12141 0.0073
C 2.45936 4.2894 0.02374
C 3.73767 30.50465 -0.01979
C 2.42444 29.77057 0.02784
C 2.48185 28.37029 -0.01977
C 3.60211 27.65332 -0.00561
C 3.68716 26.33949 0.00208
C 2.43408 25.61884 0.01707
C 2.46111 24.17998 0.02769
C 3.74141 23.46148 -0.03291
C 3.71738 21.91231 -0.04999
C 2.50558 21.29765 0.04505
C 2.48069 19.93342 0.03284
C 2.4239 15.6381 -0.04307
C 3.63465 13.45427 0.03189
C 2.41358 12.73867 0.00031
C 2.4386 11.34479 -0.003
C 3.7225 10.65575 0.01402
C 3.70749 9.20754 0.02379
C 2.46401 8.56864 0.00907
C 2.45054 7.16867 0.00643
C 3.6316 6.39629 -0.01509
C 3.7391 4.96243 0.03267
C 2.5438 2.85026 0.00402
C 19.69504 8.57003 0.00755
C 4.88495 4.16336 -0.00077
C 6.13994 2.12255 -0.02929
C 7.34219 2.88895 0.00895
C 8.564 2.09452 0.00685
C 8.61592 0.69373 0.02888
C 7.36239 0.02537 -0.00482
C 9.82576 32.67771 -0.01384
C 11.09646 31.8834 0.03693
C 11.03746 30.55049 0.01745
C 9.80337 29.85675 0.00488
C 9.84391 28.44737 -0.01004
C 11.04116 27.70185 -0.02896
C 11.09413 26.2897 -0.00131
C 9.88822 25.59293 -0.01118
C 9.82072 24.15326 -0.014
C 11.02415 23.46595 0.02147
C 11.1113 22.02575 0.00373
C 9.8922 21.36034 -0.00191
C 9.79459 19.89671 0.00438
C 9.80207 15.66439 0.01291
C 11.0883 13.54099 0.00093
C 9.82821 12.83295 0.00057
C 9.84896 11.38863 -0.01634
C 7.2923 4.29414 0.00393
C 4.94483 2.86893 0.03368
C 8.61283 6.38861 0.0288
C 7.38708 8.5111 -0.01362
C 6.11485 0.74723 -0.00966
C 4.87179 0.05914 -0.03337
C 7.38252 32.68626 0.01227
C 8.54915 31.95609 0.00873
C 8.5565 30.57612 -0.00049
C 7.3699 29.79537 0.00848
C 7.39663 28.39007 -0.01303
C 8.57267 27.7551 -0.01378
C 8.60237 26.30069 0.02635
C 7.445 25.62597 0.0127
C 7.39077 24.10149 0.01396
C 8.5984 23.45824 0.01849
C 8.54874 22.01688 -0.01142
C 7.41201 21.30338 -0.00562
C 8.64301 19.2127 -0.00494
C 8.5742 14.91439 0.00054
C 8.53785 13.49972 0.03007
C 7.3291 12.73357 -0.00095
C 7.37268 11.40093 0.01572
C 8.53346 10.65424 -0.04848
C 8.61124 9.27129 -0.00892
C 7.37665 7.06583 -0.0008
C 3.68973 31.92595 -0.00449
C 19.67956 7.13487 -0.0054
C 20.93926 4.96503 0.00143
C 30.76373 6.44569 0.01908
C 30.72977 4.96541 0.07705
C 29.49261 4.26659 0.0103
C 29.48597 2.84019 0.02108
C 30.67945 2.17862 0.00716
C 30.78952 0.69739 0.00307
C 29.52958 34.02522 0.00346
C 32.01249 32.62045 0.01713
C 33.19463 31.96869 -0.01694
C 29.52825 7.12988 0.01518
C 33.22073 30.53499 0.01428
C 31.96445 28.38692 0.0544
C 33.20065 27.68656 0.00026
C 33.17988 26.3092 0.00682
C 32.01748 25.58903 -0.01779
C 31.98981 24.06383 0.03794
C 33.24396 23.38102 0.01927
C 33.23423 22.01265 0.01574
C 31.98534 21.34174 -0.02383
C 31.99699 19.83889 -0.01429
C 31.93691 29.82546 -0.02142
C 29.56101 8.48079 -0.00971
C 30.70501 9.18278 -0.03735
C 30.71257 10.66631 -0.00944
C 27.00764 34.04281 0.01177
C 29.48024 32.67501 0.04266
C 30.7291 31.94478 0.01324
C 30.75402 30.46624 0.0014
C 29.55029 29.79737 0.00924
C 29.52208 28.41786 0.02326
C 30.80323 27.65183 0.00261
C 30.7368 26.17394 0.03265
C 29.52326 25.54614 -0.02049
C 29.54645 24.11182 -0.01854
C 30.72145 23.42444 -0.01415
C 30.77669 22.00261 -0.03039
C 29.51588 21.29727 0.01836
C 29.4887 19.88905 0.03531
C 30.753 19.21707 -0.00669
C 30.7284 17.7551 0.0101
C 29.56345 15.66277 0.01705
C 30.72348 14.96492 -0.0405
C 30.73889 13.50188 -0.01303
C 29.5045 12.78188 -0.01461
C 29.566 11.4069 -0.02155
C 33.23257 19.15681 -0.0136
C 33.1641 17.71866 0.00594
C 31.93956 17.06715 -0.02474
C 32.00538 15.62074 0.00369
C 1.2528 22.08564 0.02712
C 34.39328 21.21827 -0.02213
C 34.39369 19.85502 0.01951
C 1.25279 19.15661 -0.01678
C 1.27685 17.72274 0.01223
C 34.37627 16.99516 0.00648
C 34.3703 15.61762 0.02114
C 1.22303 14.88045 -0.02957
C 1.19127 13.47309 0.00343
C 34.42712 12.72964 -0.02656
C 34.41428 11.40483 -0.02442
C 1.22056 10.71336 -0.00027
C 1.2261 9.24109 -0.00583
C 34.42454 8.51427 -0.02302
C 34.36667 7.07014 -0.02849
C 1.15297 6.39936 0.02931
C 1.22808 4.97784 0.00628
C 0.03958 4.19626 -0.0345
C 0.0079 2.81047 -0.00931
C 1.22983 2.18014 -0.00939
C 1.25135 0.74155 -0.00468
C 1.21961 23.5196 0.00723
C 28.2502 0.70718 -0.00416
C 34.39789 24.15517 0.03076
C 1.22968 26.29615 -0.00598
C 33.22518 14.89093 0.00455
C 33.22781 13.46903 -0.00644
C 31.94754 12.74952 -0.01839
C 31.94105 11.33817 0.00137
C 33.16891 10.67593 0.00199
C 33.17346 9.3039 0.04381
C 31.97569 8.47685 0.02806
C 31.96866 7.07983 0.01504
C 33.13394 6.37952 -0.00069
C 33.21077 4.98938 0.04926
C 32.01347 4.27072 -0.03838
C 31.90308 2.79017 0.00349
C 33.16004 2.11385 -0.00323
C 33.21961 0.70318 -0.00841
C 31.96821 34.01908 0.0001
C 34.40541 32.68742 -0.02927
C 1.25559 31.91561 -0.01404
C 1.24366 30.52405 0.01027
C 0.03239 29.8374 0.01831
C 34.41647 28.38812 -0.01037
C 1.24454 27.63457 -0.00439
C 34.40687 25.55757 -0.05239
C 28.25073 2.10822 0.01699
C 27.07038 2.843 0.01799
C 27.09609 4.24308 0.01259
C 22.11505 11.40277 -0.00478
C 23.27272 10.643 -0.01662
C 23.29427 9.19999 -0.01185
C 22.13936 8.4303 0.01126
C 22.09458 7.0798 0.01852
C 23.40764 6.35794 -0.00381
C 23.40333 4.95226 0.03046
C 22.05557 4.25699 0.0296
C 22.08367 2.7782 0.03374
C 23.37539 2.11058 -0.02845
C 23.38029 0.6864 -0.03213
C 22.17466 34.06778 0.02239
C 24.64037 32.60012 0.01153
C 25.86111 31.91556 0.02734
C 25.80504 30.51927 -0.0055
C 24.61659 29.75099 0.01515
C 24.53605 28.37403 -0.00225
C 25.79101 27.73564 0.00071
C 25.87657 26.21888 -0.01107
C 24.68134 25.51762 -0.01586
C 24.56975 24.09819 -0.01971
C 22.1238 12.77022 0.01511
C 25.82576 23.43442 -0.02118
C 23.36388 13.45606 0.00199
C 22.16305 15.61349 -0.01527
C 19.64177 4.2628 -0.017
C 19.68986 2.87647 0.00364
C 20.94219 2.12248 -0.00831
C 20.97136 0.74195 -0.02957
C 19.71604 0.05314 -0.04422
C 22.15391 32.71061 0.00654
C 23.40006 31.87146 -0.00703
C 23.37199 30.52243 -0.04076
C 22.17531 29.84287 -0.00652
C 22.11503 28.46837 0.0058
C 23.32251 27.68376 -0.00865
C 23.38004 26.29023 0.00675
C 22.10578 25.58682 -0.00311
C 22.13256 24.1182 0.00742
C 23.41299 23.43528 -0.01594
C 23.35363 22.04937 0.0106
C 22.13437 21.27781 -0.01154
C 22.1435 19.94522 -0.01721
C 23.38132 19.15966 -0.02422
C 23.39987 17.71754 0.01277
C 22.03622 16.98717 0.00096
C 23.40027 14.91899 0.01087
C 20.87912 6.35447 0.00667
C 25.95339 22.04516 0.00733
C 24.54387 19.90286 0.00768
C 28.29293 26.25782 -0.00218
C 27.07365 25.54083 -0.01654
C 26.96626 24.14689 -0.00037
C 28.21304 23.44631 -0.0032
C 28.2349 22.00667 0.00622
C 27.03044 21.28483 -0.02815
C 27.06962 19.8366 -0.00942
C 28.20532 19.09557 0.00487
C 28.24581 17.75016 0.00826
C 27.02256 17.05687 -0.00294
C 27.00739 15.58915 0.00152
C 28.25972 14.96455 0.01257
C 28.27392 13.48757 0.02316
C 27.05255 12.75723 0.04185
C 27.03549 11.35444 0.00194
C 28.30772 10.5803 -0.00621
C 28.31602 9.2207 0.02611
C 27.0496 8.49521 0.02198
C 27.078 7.08838 0.01094
C 28.37869 6.46728 0.00235
C 28.28591 4.98677 0.01495
C 28.24724 27.63993 -0.00802
C 24.58565 21.26702 -0.00178
C 27.04478 28.44316 0.00195
C 28.25622 30.55547 0.04306
C 25.8189 19.16732 -0.0276
C 25.86167 17.80772 0.03005
C 24.61949 17.04718 -0.04078
C 24.57355 15.6321 0.02117
C 25.80771 14.87594 0.02737
C 25.8363 13.53355 -0.00498
C 24.61881 12.79306 0.00135
C 24.54854 11.33421 0.03102
C 25.77963 10.61631 0.02555
C 25.82107 9.19184 0.01423
C 24.56508 8.50204 -0.00285
C 24.61765 7.08775 -0.009
C 25.86312 6.37392 -0.01199
C 25.82391 5.02969 -0.00229
C 24.64458 4.29961 -0.00938
C 24.55691 2.84895 -0.0264
C 25.84094 2.11156 -0.01154
C 25.81441 0.73073 0.00684
C 24.6 0.03172 -0.01052
C 27.06812 32.62147 -0.01679
C 28.27752 31.91242 0.00367
C 27.13537 29.83281 0.00996
C 2.43137 32.6866 0.00211
