312
Graphene
C 34.345 0.01757 0.01295
C 14.83123 32.61907 -0.0331
C 16.01488 31.7969 -0.00316
C 16.05309 30.34296 0.02188
C 14.75261 29.72185 -0.01979
C 14.73672 27.99789 0.02691
C 16.04265 27.51509 -0.01581
C 16.12377 2.01425 0.01452
C 16.06233 0.59286 0.04892
C 14.82552 0.00206 -0.00111
C 17.22271 32.42211 -0.03557
C 18.47529 31.74591 0.03754
C 18.49566 30.35578 0.01739
C 17.25854 29.64045 0.00755
C 17.28057 28.00402 -0.0054
C 18.55044 27.50322 0.00667
C 12.39788 0.02839 -0.0258
C 13.58102 0.62208 0.03338
C 13.44156 27.65629 -0.00491
C 12.21436 28.46146 -0.00109
C 11.09837 31.9563 -0.00619
C 11.06211 30.63418 -0.02162
C 9.78812 29.7963 0.00889
C 9.80822 28.39457 -0.00481
C 11.03252 27.69321 0.00979
C 11.17165 26.34503 0.01443
C 10.09095 25.5427 0.03505
C 17.06339 2.65953 0.00143
C 9.75547 24.16156 -0.02815
C 10.90192 2.02537 -0.05302
C 11.14484 0.71111 0.00213
C 9.77953 0.07778 -0.00066
C 12.37137 32.61702 -0.00289
C 13.59149 31.78516 0.00028
C 13.59203 30.42295 -0.02213
C 12.20081 29.85547 0.03698
C 9.88581 2.69752 -0.04147
C 9.81902 32.70353 0.01848
C 18.41512 2.112 -0.017
C 17.26883 33.90546 -0.00831
C 22.19553 29.77495 0.00199
C 22.24752 28.45815 0.01511
C 23.41359 27.74969 -0.00478
C 23.22821 26.35412 -0.01662
C 21.68272 26.42397 -0.01185
C 22.02218 11.38697 0.01126
C 23.23458 10.75602 0.01852
C 23.15354 9.25404 -0.00381
C 21.88408 8.63499 0.03046
C 21.90838 7.24687 0.0296
C 23.1852 6.4866 0.03374
C 23.18798 5.00919 -0.02845
C 21.95723 4.26435 -0.03213
C 22.06543 2.87751 0.02239
C 23.33551 2.14657 0.01153
C 23.35725 30.47887 0.01087
C 23.28429 31.96909 -0.01527
C 22.06283 32.62225 0.00096
C 19.74073 34.02391 0.01277
C 19.6359 32.56881 -0.02957
C 20.88671 31.88282 -0.04422
C 20.93751 30.43961 0.00654
C 19.76128 29.69105 -0.00703
C 19.78705 28.15201 -0.04076
C 21.08981 27.54542 -0.00652
C 21.01536 10.88573 0.0058
C 18.40957 0.62623 0.00364
C 20.59403 9.60561 -0.00865
C 19.69729 7.43317 -0.00311
C 20.6635 6.4294 0.00742
C 20.71488 5.05285 -0.01594
C 19.5247 4.29105 0.0106
C 19.59024 2.89126 -0.01154
C 20.8453 2.15685 -0.01721
C 20.87851 0.75459 -0.02422
C 19.51688 8.5791 0.00675
C 23.31195 0.67011 0.02734
C 7.27149 0.03841 0.02098
C 8.61217 2.2255 0.0351
C 3.48165 9.36166 0.0402
C 2.33324 8.51849 0.00572
C 2.31062 7.16367 0.03592
C 3.62957 6.40853 0.00406
C 3.64821 4.98429 0.00943
C 2.4607 4.29404 0.02841
C 2.39001 2.77643 -0.01111
C 3.64053 2.19926 -0.01275
C 3.62556 0.71912 0.00985
C 2.42821 0.04702 -0.02245
C 4.89641 32.62771 -0.00428
C 6.15976 31.88968 0.03101
C 6.12583 30.46651 -0.01536
C 4.91328 29.82543 -0.02689
C 4.94518 28.41047 -0.01046
C 3.61053 10.78211 -0.02759
C 2.36137 11.5782 0.03589
C 2.47802 13.01122 -0.00033
C 3.83126 13.78199 -0.01062
C 3.66803 30.43984 -0.00131
C 2.40413 29.78588 -0.01118
C 2.4769 28.39505 -0.014
C 3.68972 27.71064 0.02147
C 3.66693 26.26763 0.00373
C 2.4109 25.53431 -0.00191
C 2.42354 24.0898 0.00438
C 6.20105 27.68893 -0.00891
C 3.66594 23.4186 0.01291
C 2.46148 21.28914 0.00057
C 2.42634 19.93995 -0.01634
C 3.78915 19.08479 -0.00334
C 3.77571 17.57398 0.02339
C 2.39043 17.15101 0.01641
C 2.39742 15.72114 -0.00719
C 3.61769 15.13842 0.01364
C 3.78972 21.93442 0.00093
C 8.56863 0.82972 -0.03113
C 6.17062 26.24452 0.02819
C 4.9152 24.20367 -0.02971
C 8.52035 30.51786 -0.01952
C 7.33661 29.79136 -0.02813
C 7.42062 28.35701 0.00374
C 8.6273 27.69994 0.00052
C 8.724 26.31307 -0.03682
C 7.47524 25.63191 0.01965
C 7.40745 24.11863 0.02058
C 8.7254 23.62183 -0.01957
C 7.39483 12.31597 -0.0108
C 7.50317 11.04282 -0.00368
C 8.28316 9.97081 -0.02696
C 7.29453 8.6953 -0.00114
C 7.27176 7.27136 0.00228
C 7.31226 4.28469 0.00798
C 7.35004 2.86216 0.00422
C 8.55088 31.91315 0.05265
C 7.36284 32.65718 -0.01717
C 4.79688 34.01784 0.00244
C 6.05107 0.68382 0.02299
C 6.15183 23.43609 0.02894
C 6.29543 22.04348 -0.01789
C 5.10822 21.23921 0.00444
C 4.82714 19.90905 -0.00925
C 6.55643 13.10587 0.01877
C 5.11437 12.91805 0.01363
C 4.92463 11.43295 -0.02162
C 4.9215 25.58462 0.00165
C 6.01647 10.62771 0.00415
C 4.69077 8.53721 0.02162
C 4.79732 7.13418 0.0076
C 6.13452 6.68853 0.01241
C 6.16764 5.16526 -0.01454
C 4.91292 4.36289 0.01945
C 4.86314 2.94313 0.01416
C 6.10117 2.18086 0.03542
C 5.96527 9.20288 -0.0014
C 22.13589 0.03417 -0.0055
C 24.49068 32.66137 0.01515
C 25.75469 32.04925 -0.00225
C 33.13023 23.41153 0.01927
C 33.14926 22.0316 0.01574
C 31.91582 21.3197 -0.02383
C 31.83407 19.9403 -0.01429
C 33.03745 19.2639 -0.0136
C 33.08136 17.85358 0.00594
C 31.84547 17.12845 -0.02474
C 31.8703 15.64893 0.00369
C 33.09459 14.97171 0.00455
C 33.16576 13.54523 -0.00644
C 31.85608 12.83248 -0.01839
C 31.95831 11.37211 0.00137
C 33.14596 10.68726 0.00199
C 33.1556 9.29065 0.04381
C 31.92973 8.48785 0.02806
C 31.88594 24.18219 0.03794
C 31.89968 25.55796 -0.01779
C 33.13684 26.24561 0.00682
C 33.0842 27.70448 0.00026
C 30.70546 10.61917 -0.00944
C 30.64448 9.27878 -0.03735
C 29.4044 8.56047 -0.00971
C 29.46309 7.15935 0.01518
C 30.62837 6.51182 0.01908
C 30.64471 5.02725 0.07705
C 29.34233 4.28447 0.0103
C 31.94598 7.12012 0.01504
C 29.44615 2.85719 0.02108
C 30.70541 0.69584 0.00307
C 29.43474 0.02075 0.00346
C 31.8934 32.64409 0.01713
C 33.13654 31.93141 -0.01694
C 33.14444 30.48943 0.01428
C 31.89623 29.85106 -0.02142
C 31.8895 28.40926 0.0544
C 30.65418 2.13572 0.00716
C 29.49931 11.39276 -0.02155
C 33.2288 6.47134 -0.00069
C 31.9276 4.29535 -0.03838
C 34.33025 15.6788 0.02114
C 1.18057 15.00284 -0.02957
C 1.17337 13.63854 0.00343
C 34.36592 12.81344 -0.02656
C 34.33169 11.44997 -0.02442
C 1.19428 10.79514 -0.00027
C 1.17906 9.31411 -0.00583
C 34.42074 8.60245 -0.02302
C 34.42933 7.17381 -0.02849
C 1.11917 6.35011 0.02931
C 1.15313 4.96049 0.00628
C 34.38108 4.28415 -0.0345
C 34.34761 2.84641 -0.00931
C 1.177 2.1243 -0.00939
C 1.20308 0.69924 -0.00468
C 34.34954 17.14554 0.00648
C 1.16139 17.8082 0.01223
C 1.22733 19.23836 -0.01678
C 34.34783 19.94008 0.01951
C 31.94753 2.91829 0.00349
C 33.15166 2.15403 -0.00323
C 33.10682 0.73158 -0.00841
C 31.93721 0.02588 0.0001
C 34.33485 32.63876 -0.02927
C 1.16443 31.95751 -0.01404
C 1.20532 30.43754 0.01027
C 33.18035 5.05651 0.04926
C 34.34801 29.82258 0.01831
C 1.22016 27.71244 -0.00439
C 1.17797 26.22848 -0.00598
C 34.35564 25.55314 -0.05239
C 34.37741 24.12064 0.03076
C 1.18897 23.40887 0.00723
C 1.15923 22.02861 0.02712
C 34.3521 21.32685 -0.02213
C 34.37349 28.4018 -0.01037
C 29.40955 12.81074 -0.01461
C 30.65435 13.55232 -0.01303
C 30.69139 15.0047 -0.0405
C 25.70803 5.08886 -0.01199
C 24.45024 4.41807 -0.00229
C 24.48461 2.93898 -0.00938
C 25.71159 2.18804 -0.0264
C 25.76595 0.71336 -0.01154
C 24.53913 0.01329 0.00684
C 26.96849 32.62921 -0.01052
C 28.30085 31.98979 -0.01679
C 28.28907 30.56844 0.00367
C 27.06703 29.9389 0.04306
C 27.04185 28.45012 0.00996
C 28.24517 27.72128 0.00195
C 28.20931 26.28422 -0.00802
C 26.91428 25.60162 -0.00218
C 26.92075 24.17053 -0.01654
C 25.72459 6.51827 -0.009
C 24.50254 7.20398 -0.00285
C 24.45072 8.61588 0.01423
C 25.70313 9.28125 0.02555
C 25.7945 30.63088 0.00071
C 24.58494 29.91258 -0.01107
C 24.72449 28.41437 -0.01586
C 25.85933 27.72535 -0.01971
C 25.69189 26.27835 -0.02118
C 24.35739 25.54257 0.00733
C 24.57824 24.15514 -0.00178
C 28.19046 23.41222 -0.00037
C 25.65974 23.38544 0.00768
C 25.8354 19.04749 0.03005
C 25.81051 17.92515 -0.04078
C 25.75971 14.93551 0.02117
C 25.5907 13.5579 0.02737
C 24.44515 12.75839 -0.00498
C 24.52149 11.37491 0.00135
C 25.76036 10.69692 0.03102
C 25.6953 21.95606 -0.0276
C 28.20007 22.01789 -0.0032
C 26.97946 21.29894 0.00622
C 26.9579 19.90619 -0.02815
C 30.68298 31.93896 0.04266
C 30.64875 30.54507 0.01324
C 29.45037 29.80203 0.0014
C 29.5039 28.39674 0.00924
C 30.68442 27.66486 0.02326
C 30.64747 26.29025 0.00261
C 29.44125 25.51505 0.03265
C 29.44548 32.68099 0.01177
C 29.39381 24.15728 -0.02049
C 30.63264 22.04383 -0.01415
C 29.48037 21.36411 -0.03039
C 29.45939 19.96649 0.01836
C 30.65463 19.25204 0.03531
C 30.69531 17.85949 -0.00669
C 29.489 17.15607 0.0101
C 29.51929 15.74265 0.01705
C 30.61718 23.44591 -0.01854
C 3.62671 31.90142 -0.02896
C 27.02782 0.03458 -0.00416
C 28.21892 2.15133 0.01799
C 28.19657 19.22556 -0.00942
C 28.23942 17.86051 0.00487
C 27.04908 17.03198 0.00826
C 26.97511 15.65632 -0.00294
C 28.25865 14.93844 0.00152
C 28.19508 13.52249 0.01257
C 27.00765 12.75829 0.02316
C 28.21103 0.72732 0.01699
C 26.98968 11.43234 0.04185
C 28.21793 9.32335 -0.00621
C 26.95818 8.55532 0.02611
C 26.9593 7.13199 0.02198
C 28.25898 6.43792 0.01094
C 28.19012 5.05198 0.00235
C 26.84578 4.34815 0.01495
C 26.93077 2.87091 0.01259
C 28.22307 10.73316 0.00194
C 2.4157 32.63387 -0.01004
