367
Graphene
C 34.3708 0.04423 0.01295
C 15.97514 30.54792 -0.02813
C 14.72994 29.84651 0.00374
C 14.7282 28.42647 0.00052
C 15.96567 27.72922 -0.03682
C 15.93741 26.31598 0.01965
C 14.75632 25.55085 0.02058
C 14.77221 24.15166 -0.01957
C 16.01719 23.45349 -0.0108
C 16.05834 22.01081 -0.00368
C 14.8456 21.24938 -0.02696
C 14.82321 19.85364 -0.00114
C 16.01818 19.17058 0.00228
C 16.19194 17.6939 0.00798
C 14.78843 2.86721 0.00422
C 16.01065 2.03178 0.0351
C 15.94874 0.66132 -0.03113
C 14.71229 0.00381 0.02098
C 17.18567 32.64581 0.01848
C 18.36269 31.92556 -0.00619
C 15.95158 31.97971 -0.01952
C 18.37117 30.56482 -0.02162
C 14.74686 32.67463 0.05265
C 13.51697 0.67432 0.00244
C 10.93276 2.30797 0.00165
C 11.09008 0.82225 -0.02971
C 9.85107 0.02554 0.02894
C 12.23487 32.69849 -0.01789
C 13.46663 31.9309 0.00444
C 13.47591 30.51342 -0.00925
C 12.19769 29.82143 0.01877
C 12.23206 28.4071 0.01363
C 13.50065 27.72402 -0.02162
C 13.52349 26.32505 0.00415
C 12.31895 25.63553 -0.0014
C 12.30478 24.19661 0.02162
C 13.56156 23.46129 0.0076
C 13.50322 21.96311 0.01241
C 12.2942 21.16622 -0.01454
C 12.27991 19.66615 0.01945
C 13.54466 19.20124 0.01416
C 12.30871 2.78865 0.03542
C 13.56788 2.16019 0.02299
C 12.282 34.0783 -0.01717
C 9.73865 3.038 0.02819
C 17.17773 29.80774 0.00889
C 18.38687 27.63427 0.00979
C 20.91226 26.24609 -0.00111
C 19.64546 25.53802 -0.03557
C 19.66699 24.1493 0.03754
C 20.92052 23.39807 0.01739
C 20.90582 21.98459 0.00755
C 19.72366 21.2055 -0.0054
C 19.69565 19.81911 0.00667
C 20.94807 19.12674 0.00143
C 20.89002 17.70735 -0.017
C 19.73526 16.96013 0.00364
C 19.83245 15.54077 -0.00831
C 20.92217 14.76273 -0.02957
C 20.8958 13.36026 -0.04422
C 19.92577 12.2266 0.00654
C 20.65617 10.93756 -0.00703
C 20.67574 9.47886 -0.04076
C 19.75966 8.51613 -0.00652
C 19.62229 7.08744 0.0058
C 20.87692 6.37625 -0.00865
C 20.88145 27.63322 0.04892
C 17.13262 28.38361 -0.00481
C 19.56552 28.42042 0.01452
C 20.90423 30.52289 0.02691
C 18.42286 26.26581 0.01443
C 17.14927 25.53305 0.03505
C 17.19559 24.10765 -0.02815
C 18.44135 23.40762 -0.04147
C 18.4335 21.95115 -0.05302
C 17.23204 21.1972 0.00213
C 17.22267 19.78842 -0.00066
C 18.50737 19.08575 -0.00289
C 18.57934 17.65102 0.00028
C 17.21923 17.05642 -0.02213
C 18.50122 6.36443 0.03698
C 18.16766 4.9691 -0.00109
C 17.03704 4.22713 -0.00491
C 17.17866 2.83056 0.03338
C 18.39635 2.11803 -0.0258
C 18.35985 0.67068 -0.0331
C 17.13902 34.06007 -0.00316
C 19.55855 32.65633 0.02188
C 20.85857 31.88089 -0.01979
C 19.65817 29.80109 -0.01581
C 20.81246 4.95681 0.00675
C 11.03954 19.15928 -0.00891
C 9.83869 21.24731 -0.02689
C 3.73592 6.60928 0.00873
C 3.77276 5.06364 -0.00049
C 2.45151 4.36022 0.00848
C 2.47443 2.92291 -0.01303
C 3.69809 2.29348 -0.01378
C 3.65832 0.78275 0.02635
C 2.40356 0.05903 0.0127
C 4.90711 32.73658 0.01396
C 6.1385 32.0713 0.01849
C 6.11708 30.62053 -0.01142
C 4.82893 29.86845 -0.00562
C 4.87967 28.44413 -0.00494
C 6.09003 27.75425 0.00054
C 6.09986 26.3289 0.03007
C 4.93744 25.60509 -0.00095
C 4.91227 24.20817 0.01572
C 6.15692 23.43993 -0.04848
C 6.16987 22.04772 -0.00892
C 4.92104 21.31574 -0.01362
C 2.44201 7.27392 0.01227
C 4.90618 19.88984 -0.0008
C 2.51626 8.67738 -0.03337
C 3.82307 10.87774 -0.02929
C 3.67784 30.57641 0.01465
C 2.40398 29.86197 -0.00074
C 2.4485 28.46358 -0.00518
C 3.68249 27.78392 0.0086
C 3.66721 26.28511 -0.00643
C 2.41891 25.64392 0.017
C 2.41327 24.14152 -0.03113
C 3.69661 23.52532 -0.02566
C 3.66481 22.07204 -0.00094
C 2.45059 21.26709 0.02322
C 2.43619 19.84706 -0.00725
C 3.6871 19.19055 -0.05697
C 3.69009 17.7235 0.01087
C 2.42919 17.03911 -0.01343
C 2.44335 15.60128 0.00988
C 3.62642 14.88631 0.0276
C 3.61811 13.49419 0.01305
C 2.40867 12.78809 -0.00077
C 2.4419 11.39142 0.03368
C 3.73477 9.42008 -0.00966
C 9.7195 19.76437 -0.01046
C 6.15943 19.14195 0.0288
C 4.98466 16.99255 0.00895
C 7.32637 19.90725 -0.00719
C 8.38086 19.04114 0.01364
C 7.45387 17.20338 -0.01062
C 7.48638 4.28321 -0.00033
C 7.32676 2.88512 0.03589
C 8.52498 2.14784 -0.02759
C 8.64007 0.7622 0.0402
C 7.38663 0.0914 0.00572
C 9.88217 32.72203 0.03592
C 11.06433 31.9206 0.00406
C 10.97681 30.53686 0.00943
C 9.76105 29.83862 0.02841
C 9.77018 28.40097 -0.01111
C 11.00646 27.72403 -0.01275
C 11.05293 26.2546 0.00985
C 9.81594 25.5801 -0.02245
C 9.84755 24.15385 -0.00428
C 11.07566 23.45796 0.03101
C 11.09329 21.94973 -0.01536
C 7.35526 21.31919 0.01641
C 6.17309 17.75277 0.00393
C 8.62713 21.99279 0.02339
C 7.40432 24.1974 -0.01634
C 4.86352 15.60013 0.00685
C 4.84173 12.7188 0.02888
C 4.94389 8.69435 -0.00482
C 5.0183 7.29271 -0.01384
C 6.17257 6.48339 0.03693
C 6.33124 5.08961 0.01745
C 5.03251 4.39545 0.00488
C 4.95164 2.91911 -0.01004
C 6.18104 2.17817 -0.02896
C 6.19138 0.80137 -0.00131
C 4.94959 0.11274 -0.01118
C 7.36268 32.73404 -0.014
C 8.6273 31.99092 0.02147
C 8.56113 30.56099 0.00373
C 7.3176 29.89446 -0.00191
C 7.34317 28.4256 0.00438
C 8.52211 27.75406 0.01291
C 8.57612 26.2898 0.00093
C 7.3204 25.58942 0.00057
C 8.65991 23.43263 -0.00334
C 3.66459 32.01817 -0.03996
C 19.51431 4.30078 -0.00311
C 20.79571 2.10186 -0.01594
C 30.64749 6.41495 0.00307
C 30.71179 4.99757 0.00346
C 29.4529 4.29005 0.01713
C 29.45098 2.83753 -0.01694
C 30.67316 2.13694 0.01428
C 30.66328 0.70349 -0.02142
C 29.45685 0.02106 0.0544
C 31.87866 32.71342 0.00026
C 33.17989 32.06283 0.00682
C 33.20795 30.58313 -0.01779
C 31.97755 29.90644 0.03794
C 31.91977 28.3563 0.01927
C 33.1941 27.74804 0.01574
C 33.20432 26.31827 -0.02383
C 32.03682 25.52007 -0.01429
C 33.10111 19.07015 -0.0136
C 33.12949 17.66015 0.00594
C 31.91369 17.02522 -0.02474
C 31.9033 15.61999 0.00369
C 29.38374 7.18036 0.00716
C 33.14024 14.94193 0.00455
C 29.3209 8.74562 0.02108
C 30.80032 10.70759 0.07705
C 26.97809 4.27599 0.03265
C 26.96871 2.81571 -0.02049
C 28.15642 2.17098 -0.01854
C 28.1497 0.70861 -0.01415
C 26.93518 34.04236 -0.03039
C 29.48136 32.65374 0.01836
C 30.6801 31.98585 0.03531
C 30.7477 30.54146 -0.00669
C 29.54457 29.79373 0.0101
C 29.56195 28.33108 0.01705
C 30.75119 27.5106 -0.0405
C 30.75188 26.07367 -0.01303
C 29.47463 25.42094 -0.01461
C 30.73979 17.67965 -0.02155
C 29.44513 17.04146 -0.00944
C 29.44906 15.66372 -0.03735
C 30.67151 14.86951 -0.00971
C 30.73252 13.45853 0.01518
C 29.51633 12.70354 0.01908
C 30.60724 9.28294 0.0103
C 28.21031 5.01172 0.00261
C 33.197 13.53597 -0.00644
C 32.02269 11.38271 0.00137
C 34.28192 19.90422 0.01951
C 1.18019 19.23646 -0.01678
C 1.18341 17.74571 0.01223
C 34.3778 17.00702 0.00648
C 34.37251 15.63843 0.02114
C 1.21336 14.8958 -0.02957
C 1.20756 13.50242 0.00343
C 34.4007 12.77331 -0.02656
C 0.01212 11.39933 -0.02442
C 1.22595 10.6539 -0.00027
C 1.23789 9.21962 -0.00583
C 0.01117 8.53614 -0.02302
C 34.42662 7.1458 -0.02849
C 1.20686 6.45707 0.02931
C 1.23343 5.04346 0.00628
C 0.00075 4.30015 -0.0345
C 34.38326 2.91666 -0.00931
C 1.18174 2.20092 -0.00939
C 1.16073 0.75196 -0.00468
C 0.07862 21.26059 -0.02213
C 31.94455 12.82005 -0.01839
C 1.24376 21.97685 0.02712
C 0.06354 24.16349 0.03076
C 33.24543 10.6723 0.00199
C 33.16314 9.22544 0.04381
C 31.91806 8.46184 0.02806
C 31.90463 7.11011 0.01504
C 33.21324 6.3743 -0.00069
C 33.17416 4.98332 0.04926
C 31.91308 4.22158 -0.03838
C 31.90094 2.85073 0.00349
C 33.14375 2.15734 -0.00323
C 33.1343 0.72759 -0.00841
C 31.91012 0.06451 0.0001
C 34.41227 32.72102 -0.02927
C 1.21834 32.02613 -0.01404
C 1.25229 30.58006 0.01027
C 0.0103 29.9039 0.01831
C 34.40798 28.50686 -0.01037
C 1.17652 27.76461 -0.00439
C 1.24034 26.36965 -0.00598
C 0.02607 25.68127 -0.05239
C 1.21258 23.38221 0.00723
C 19.53301 2.87378 0.00742
C 28.19108 6.41817 0.02326
C 26.94912 8.49345 0.0014
C 23.27172 10.62514 0.02734
C 23.24414 9.20684 -0.0055
C 22.01172 8.56785 0.01515
C 22.07345 7.12696 -0.00225
C 23.28668 6.40185 0.00071
C 23.27602 4.91164 -0.01107
C 22.06393 4.2235 -0.01586
C 22.03242 2.8142 -0.01971
C 23.33379 2.07695 -0.02118
C 23.27046 0.66143 0.00733
C 22.03277 34.06054 -0.00178
C 24.60049 32.57473 0.00768
C 25.80684 31.8916 -0.0276
C 25.86791 30.45153 0.03005
C 24.59235 29.71316 -0.04078
C 24.53968 28.34212 0.02117
C 25.79825 27.63338 0.02737
C 25.81435 26.24857 -0.00498
C 24.54547 25.51393 0.00135
C 22.12185 11.33238 0.01153
C 24.69594 24.04767 0.03102
C 22.15545 12.77626 0.02239
C 23.30915 14.87756 -0.02845
C 20.84243 0.72451 0.0106
C 19.63396 0.0469 -0.01154
C 22.07244 32.63238 -0.01721
C 23.36123 31.9431 -0.02422
C 23.40638 30.45684 0.01277
C 22.09578 29.75576 0.00096
C 22.08062 28.41926 -0.01527
C 23.33107 27.65025 0.01087
C 23.32884 26.2468 0.00199
C 22.09304 25.52104 0.01511
C 22.17195 24.1133 -0.00478
C 23.40623 23.361 -0.01662
C 23.42718 21.94017 -0.01185
C 22.19132 21.28084 0.01126
C 22.15811 19.85552 0.01852
C 23.40451 19.17406 -0.00381
C 23.39395 17.77751 0.03046
C 22.11846 17.04023 0.0296
C 22.07695 15.55658 0.03374
C 23.3328 13.39635 -0.03213
C 26.93005 7.11969 0.00924
C 25.95035 23.40608 0.02555
C 24.70561 21.29445 -0.00285
C 27.07319 29.78369 -0.00294
C 27.02325 28.33249 0.00152
C 28.29112 27.71523 0.01257
C 28.31664 26.23287 0.02316
C 27.08972 25.54771 0.04185
C 27.19328 24.15762 0.00194
C 28.3596 23.52642 -0.00621
C 28.43907 22.11025 0.02611
C 27.2326 21.40408 0.02198
C 27.16627 19.92998 0.01094
C 28.41036 19.26149 0.00235
C 28.26236 17.80005 0.01495
C 27.08877 17.0666 0.01259
C 27.00549 15.60389 0.01799
C 28.18691 14.85672 0.01699
C 28.24758 13.38782 -0.00416
C 27.0422 12.55827 0.01177
C 26.9798 11.18762 0.04266
C 28.0618 9.35245 0.01324
C 28.29801 30.49803 0.00826
C 25.94148 22.04495 0.01423
C 28.24887 31.90081 0.00487
C 24.53549 34.01251 -0.02815
C 24.62045 19.88906 -0.009
C 25.87284 19.16407 -0.01199
C 25.8232 17.78326 -0.00229
C 24.67359 17.07311 -0.00938
C 24.58193 15.61183 -0.0264
C 25.82206 14.86738 -0.01154
C 25.88016 13.3788 0.00684
C 24.61435 12.72523 -0.01052
C 24.59512 11.31838 -0.01679
C 25.69972 10.59516 0.00367
C 25.7351 9.16918 0.04306
C 24.50562 8.46205 0.00996
C 24.50663 7.05636 0.00195
C 25.76558 6.36083 -0.00802
C 25.73569 4.97181 -0.00218
C 24.5067 4.18791 -0.01654
C 24.59566 2.77986 -0.00037
C 25.81405 2.15111 -0.0032
C 25.71882 0.70287 0.00622
C 27.03798 32.5599 -0.00942
C 2.47396 32.70035 0.01996
