362
Graphene
C 34.43027 0.04982 0.01295
C 9.79266 11.31947 0.01965
C 11.02957 10.59845 0.02058
C 11.07745 9.17368 -0.01957
C 9.77931 8.49099 -0.0108
C 9.72733 7.0959 -0.00368
C 10.97044 6.38817 -0.02696
C 10.99119 4.98223 -0.00114
C 9.78101 4.28504 0.00228
C 9.81652 12.7447 -0.03682
C 9.82715 2.82192 0.00798
C 11.08857 0.71084 0.0351
C 9.8431 0.01249 -0.03113
C 12.28599 32.6747 0.02098
C 13.50275 31.93583 0.01848
C 13.52223 30.55457 -0.00619
C 12.29817 29.84463 -0.02162
C 12.318 28.3912 0.00889
C 13.56852 27.68187 -0.00481
C 11.02283 2.12736 0.00422
C 11.02596 13.4174 0.00052
C 11.12577 14.83629 0.00374
C 9.87199 15.56098 -0.02813
C 8.61081 2.11836 0.00444
C 8.60725 0.71312 -0.00925
C 7.39043 0.01086 0.01877
C 9.85751 32.71223 0.01363
C 11.07642 31.94892 -0.02162
C 11.04332 30.54728 0.00415
C 9.82444 29.88482 -0.0014
C 9.79336 28.46615 0.02162
C 11.04882 27.69468 0.0076
C 11.00522 26.30431 0.01241
C 9.82689 25.52614 -0.01454
C 9.87119 24.19234 0.01945
C 11.05299 23.48766 0.01416
C 11.10081 22.01999 0.03542
C 9.89995 21.31971 0.02299
C 9.8921 19.88591 0.00244
C 11.11154 19.20583 -0.01717
C 11.15467 17.75854 0.05265
C 9.87761 17.02431 -0.01952
C 13.44606 26.20142 0.00979
C 7.33035 2.90999 -0.01789
C 12.26154 25.59935 0.01443
C 13.57008 23.3856 -0.02815
C 15.95768 31.96126 0.01739
C 15.88703 30.50789 0.00755
C 14.7403 29.78748 -0.0054
C 14.75461 28.44062 0.00667
C 15.90854 27.66581 0.00143
C 15.88099 26.28647 -0.017
C 14.72732 25.47859 0.00364
C 14.86427 24.05674 -0.00831
C 14.69406 32.75576 0.03754
C 16.11205 23.37931 -0.02957
C 14.85915 21.26799 0.00654
C 14.70992 19.86479 -0.00703
C 14.72503 16.94741 -0.04076
C 14.69813 15.70548 -0.00652
C 14.69265 12.71909 0.0058
C 14.86902 11.36501 -0.00865
C 15.84297 10.46391 0.00675
C 15.96943 9.13304 -0.00311
C 15.9717 21.98634 -0.04422
C 12.29942 0.03949 -0.03557
C 13.56823 0.77139 -0.00111
C 13.51967 2.15159 0.04892
C 13.64294 21.94501 -0.04147
C 12.35735 21.28714 -0.05302
C 12.36644 19.84184 0.00213
C 13.59868 19.20217 -0.00066
C 13.55734 17.83495 -0.00289
C 12.39718 16.97511 0.00028
C 12.39356 15.5226 -0.02213
C 13.55279 14.85098 0.03698
C 13.51446 13.43673 -0.00109
C 12.30117 12.80982 -0.00491
C 12.27534 11.44191 0.03338
C 13.55799 10.68319 -0.0258
C 13.53705 9.2207 -0.0331
C 12.28435 8.51675 -0.00316
C 12.2457 7.1052 0.02188
C 13.49141 6.3603 -0.01979
C 13.44777 4.98736 0.02691
C 12.22478 4.27876 -0.01581
C 12.25563 2.8659 0.01452
C 12.2635 24.15501 0.03505
C 7.23312 4.34029 0.02894
C 8.53696 4.98807 -0.02971
C 8.52555 6.39725 0.00165
C 3.65339 6.5147 0.02635
C 3.66969 5.12509 0.0127
C 2.41823 4.35536 0.01396
C 2.40711 2.90416 0.01849
C 3.68898 2.19533 -0.01142
C 3.70111 0.7266 -0.00562
C 2.43806 0.07228 -0.00494
C 4.88599 32.68544 0.00054
C 2.38691 7.22808 -0.01378
C 6.13377 32.0135 0.03007
C 4.86359 29.90349 0.01572
C 4.89673 28.4416 -0.04848
C 6.17003 27.69068 -0.00892
C 6.13097 26.30016 -0.01362
C 4.96041 25.61077 -0.0008
C 4.92919 24.13752 0.0288
C 6.12617 23.43825 0.00393
C 6.13837 21.99194 0.00895
C 6.13539 30.60935 -0.00095
C 2.4784 8.6124 -0.01303
C 3.65336 9.3631 0.00848
C 3.61293 10.76102 -0.00049
C 3.61607 30.55614 0.017
C 2.4357 29.84105 -0.03113
C 2.43105 28.43577 -0.02566
C 3.7107 27.75421 -0.00094
C 3.71022 26.25194 0.02322
C 2.45469 25.60602 -0.00725
C 2.4234 24.18335 -0.05697
C 3.68085 23.42909 0.01087
C 3.72881 21.97756 -0.01343
C 2.45773 21.29429 0.00988
C 2.48426 19.87453 0.0276
C 3.75947 19.17536 0.01305
C 3.75313 17.75196 -0.00077
C 2.44949 17.04122 0.03368
C 2.456 15.59815 -0.02929
C 3.69663 14.98795 -0.00966
C 3.68287 13.5033 -0.03337
C 2.37685 12.77252 0.01227
C 2.41116 11.39485 0.00873
C 4.9192 21.29271 0.00685
C 4.98416 19.88896 0.02888
C 6.21896 19.24291 -0.00482
C 6.1918 17.74396 -0.01384
C 8.60325 26.32522 0.03589
C 7.37554 25.59748 -0.02759
C 7.36716 24.16611 0.0402
C 8.64939 23.45792 0.00572
C 8.63507 22.10339 0.03592
C 7.41839 21.35129 0.00406
C 7.45629 19.88382 0.00943
C 8.66045 19.17098 0.02841
C 8.67948 17.76973 -0.01111
C 7.50467 17.08897 -0.01275
C 7.43593 15.55871 0.00985
C 8.6515 14.84954 -0.02245
C 8.54994 13.45563 -0.00428
C 7.34412 12.78167 0.03101
C 7.31333 11.3427 -0.01536
C 8.48919 10.55534 -0.02689
C 8.57869 9.20946 -0.01046
C 7.34229 8.49418 -0.00891
C 7.32917 7.08766 0.02819
C 8.54347 27.71052 -0.00033
C 14.74126 8.4796 0.00742
C 7.37855 28.45708 -0.01062
C 8.59732 30.54475 -0.00719
C 4.99054 17.06068 0.03693
C 4.98754 15.68242 0.01745
C 6.14841 14.92491 0.00488
C 6.11247 13.50771 -0.01004
C 4.91087 12.8519 -0.02896
C 4.85947 11.47059 -0.00131
C 6.08696 10.73075 -0.01118
C 6.06699 9.30636 -0.014
C 4.86737 8.6166 0.02147
C 4.88836 7.2082 0.00373
C 6.08419 6.46181 -0.00191
C 6.07908 5.05063 0.00438
C 4.83308 4.33041 0.01291
C 4.91776 2.88778 0.00093
C 6.0942 2.17548 0.00057
C 6.11854 0.74923 -0.01634
C 4.90183 0.04352 -0.00334
C 7.39192 32.7185 0.02339
C 8.6329 31.96892 0.01641
C 7.32224 29.82699 0.01364
C 14.76054 7.02705 -0.01594
C 15.9681 6.34691 0.0106
C 15.91025 4.96195 -0.01154
C 29.46315 0.0244 0.00346
C 31.92646 32.70556 0.01713
C 33.22617 32.01764 -0.01694
C 33.16889 30.57333 0.01428
C 31.95719 29.88056 -0.02142
C 31.99484 28.46145 0.0544
C 33.17467 27.72096 0.00026
C 33.18687 26.29051 0.00682
C 30.66941 0.71789 0.00307
C 31.94698 25.57366 -0.01779
C 33.19024 23.43588 0.01927
C 33.1471 21.95413 0.01574
C 31.84933 21.20453 -0.02383
C 32.14944 19.85115 -0.01429
C 33.32732 19.09698 -0.0136
C 33.22679 17.73964 0.00594
C 32.00517 17.0325 -0.02474
C 32.12411 15.72364 0.00369
C 32.00296 24.21645 0.03794
C 30.63552 2.1204 0.00716
C 29.42492 2.92872 0.02108
C 29.44555 4.31777 0.0103
C 28.19729 0.68803 -0.02049
C 26.94607 34.07908 -0.01854
C 29.45069 32.75638 -0.01415
C 30.76465 32.07501 -0.03039
C 30.73085 30.61356 0.01836
C 29.5152 29.8591 0.03531
C 29.51878 28.42798 -0.00669
C 30.71818 27.77044 0.0101
C 30.70043 26.29669 0.01705
C 29.51853 25.52128 -0.0405
C 29.67577 24.14328 -0.01303
C 30.80665 23.47863 -0.01461
C 30.6832 22.05924 -0.02155
C 30.73735 10.54545 -0.00944
C 30.69307 9.24475 -0.03735
C 29.45633 8.58706 -0.00971
C 29.44179 7.15144 0.01518
C 30.60678 6.39114 0.01908
C 30.68161 4.96351 0.07705
C 33.23386 14.85847 0.00455
C 33.14456 13.45825 -0.00644
C 31.874 12.86194 -0.01839
C 31.75036 11.44247 0.00137
C 0.0395 19.89043 0.01951
C 1.27068 19.14163 -0.01678
C 1.22326 17.70622 0.01223
C 34.42618 16.98645 0.00648
C 34.37424 15.62937 0.02114
C 1.12185 14.87144 -0.02957
C 1.13035 13.429 0.00343
C 34.30739 12.7545 -0.02656
C 34.32652 11.41684 -0.02442
C 1.12683 10.70346 -0.00027
C 1.18743 9.22601 -0.00583
C 34.3575 8.54415 -0.02302
C 34.41383 7.12012 -0.02849
C 1.1949 6.45107 0.02931
C 1.15589 5.08621 0.00628
C 34.42609 4.30835 -0.0345
C 34.43235 2.96201 -0.00931
C 1.19246 2.21416 -0.00939
C 1.23082 0.76077 -0.00468
C 34.41321 21.29532 -0.02213
C 28.21916 2.18171 0.03265
C 1.21462 22.03151 0.02712
C 34.41328 24.1623 0.03076
C 33.08648 10.71799 0.00199
C 33.08765 9.27183 0.04381
C 31.91014 8.42931 0.02806
C 31.87056 7.03985 0.01504
C 33.19499 6.38798 -0.00069
C 33.1549 4.93787 0.04926
C 31.90584 4.18878 -0.03838
C 31.90913 2.82676 0.00349
C 33.21995 2.15999 -0.00323
C 33.16861 0.75003 -0.00841
C 31.95191 0.05707 0.0001
C 34.41916 32.70937 -0.02927
C 1.19493 32.0165 -0.01404
C 1.19998 30.50466 0.01027
C 34.37872 29.79767 0.01831
C 34.40963 28.3917 -0.01037
C 1.2075 27.69053 -0.00439
C 1.19792 26.33764 -0.00598
C 0.00119 25.5898 -0.05239
C 1.19012 23.41671 0.00723
C 3.61383 31.94337 -0.00643
C 26.96855 2.91553 0.00261
C 28.23384 5.03389 0.00924
C 17.21052 0.06503 0.01515
C 19.62133 32.55615 -0.00225
C 20.81934 31.92332 0.00071
C 20.82533 30.45591 -0.01107
C 19.58799 29.78776 -0.01586
C 19.64803 28.35582 -0.01971
C 20.88267 27.51881 -0.02118
C 20.73236 26.09777 0.00733
C 18.41446 0.67397 -0.0055
C 19.4845 25.57158 -0.00178
C 19.75444 7.07491 -0.0276
C 20.96393 6.3528 0.03005
C 20.98958 4.96861 -0.04078
C 19.7637 4.26652 0.02117
C 19.66195 2.82281 0.02737
C 20.88227 2.10871 -0.00498
C 20.86356 0.64669 0.00135
C 19.62121 33.96057 0.03102
C 19.61321 8.45615 0.00768
C 18.39061 2.06191 0.02734
C 17.23347 2.77641 0.01153
C 17.19505 4.24696 0.02239
C 14.6612 4.24387 -0.01721
C 14.71183 2.85731 -0.02422
C 15.97783 2.1393 0.01277
C 15.95046 0.71639 0.00096
C 14.74358 0.11347 -0.01527
C 17.20489 32.65824 0.01087
C 18.40836 31.94306 0.00199
C 18.34126 30.55297 0.01511
C 17.14319 29.83614 -0.00478
C 17.10175 28.40659 -0.01662
C 18.33289 27.72158 -0.01185
C 18.31767 26.33623 0.01126
C 17.09488 25.57714 0.01852
C 17.28292 24.23469 -0.00381
C 18.52672 9.01088 0.03046
C 17.2002 8.48731 0.0296
C 17.20747 7.05784 0.03374
C 18.50171 6.35686 -0.02845
C 18.46661 4.90216 -0.03213
C 22.02224 32.59849 0.02555
C 23.30687 31.96406 0.01423
C 23.35107 30.50705 -0.00285
C 22.10351 29.75251 -0.009
C 24.56832 4.2804 0.00152
C 24.58439 2.81672 0.01257
C 25.80727 2.08281 0.02316
C 25.70292 0.67561 0.04185
C 24.52319 34.00856 0.00194
C 26.99621 32.62235 -0.00621
C 28.26741 31.9521 0.02611
C 28.26848 30.51421 0.02198
C 27.00736 29.81473 0.01094
C 27.05933 28.40137 0.00235
C 28.25892 27.66799 0.01495
C 28.23615 26.22853 0.01259
C 26.99449 25.53528 0.01799
C 27.19272 24.16662 0.01699
C 28.303 23.63586 -0.00416
C 28.22025 9.21405 0.01177
C 27.14561 8.577 0.04266
C 26.93302 7.20265 0.01324
C 28.22773 6.4888 0.0014
C 25.77089 5.05467 -0.00294
C 27.0632 4.3366 0.02326
C 25.77299 6.41635 0.00826
C 24.64232 25.50972 -0.00942
C 22.16138 28.24732 -0.01199
C 23.31478 27.49968 -0.00229
C 23.31647 25.97552 -0.00938
C 21.9634 25.61393 -0.0264
C 22.16133 7.009 -0.01154
C 23.37789 6.55594 0.00684
C 23.31701 4.93869 -0.01052
C 22.21894 4.25406 -0.01679
C 22.06079 2.84073 0.00367
C 23.31454 2.08897 0.04306
C 23.29847 0.64274 0.00996
C 22.08714 34.03502 0.00195
C 24.58873 32.6354 -0.00802
C 25.79381 31.93437 -0.00218
C 25.80213 30.54539 -0.01654
C 24.60717 29.75539 -0.00037
C 24.65726 28.31094 -0.0032
C 25.8487 27.64651 0.00622
C 25.78531 26.24934 -0.02815
C 24.64269 7.18161 0.00487
C 2.46783 32.72045 0.0086
