293
Graphene
C 0.00187 0.05198 0.01295
C 9.86583 29.8026 -0.0054
C 9.81054 28.44711 0.00667
C 10.995 27.76287 0.00143
C 9.75195 17.07485 -0.017
C 9.9278 15.69738 0.00364
C 11.14489 14.92673 -0.00831
C 11.05737 30.46801 0.00755
C 10.98979 13.4917 -0.02957
C 9.82906 11.21095 0.00654
C 10.99948 10.54874 -0.00703
C 9.90351 8.62332 -0.04076
C 9.96087 7.09301 -0.00652
C 11.11855 6.33207 0.0058
C 11.21085 4.9501 -0.00865
C 9.82718 12.87307 -0.04422
C 9.84415 4.24338 0.00675
C 11.08423 31.87948 0.01739
C 7.34631 34.04899 -0.03557
C 8.68426 14.83135 0.03698
C 8.52658 13.47534 -0.00109
C 7.33443 12.79741 -0.00491
C 7.37936 11.31749 0.03338
C 8.53549 10.6914 -0.0258
C 8.53593 9.29163 -0.0331
C 9.88521 32.66106 0.03754
C 7.3674 8.53586 -0.00316
C 8.63094 6.43795 -0.01979
C 8.64798 4.98538 0.02691
C 7.37921 4.28276 -0.01581
C 7.38868 2.84207 0.01452
C 8.64147 2.18457 0.04892
C 8.62818 0.7722 -0.00111
C 7.35624 7.11257 0.02188
C 9.84841 2.89682 -0.00311
C 11.06702 2.02838 0.00742
C 11.06104 0.6935 -0.01594
C 16.06195 26.32198 -0.02845
C 16.03442 0.67217 -0.03213
C 14.72324 34.03407 0.02239
C 17.18298 32.68754 0.01153
C 18.45034 31.89836 0.02734
C 18.40941 30.50745 -0.0055
C 16.01008 27.6487 0.03374
C 17.25665 29.81337 0.01515
C 18.43586 27.70056 0.00071
C 18.46782 26.33654 -0.01107
C 18.39419 0.84168 -0.01586
C 17.22747 0.07412 -0.01971
C 19.63867 32.55477 -0.02118
C 20.90347 31.91073 0.00733
C 17.21915 28.46491 -0.00225
C 14.71212 28.33889 0.0296
C 14.71788 29.83155 0.03046
C 15.95547 30.56151 -0.00381
C 9.86311 34.0685 0.0106
C 12.36104 32.69278 -0.01154
C 13.52407 31.92471 -0.01721
C 13.5299 30.51262 -0.02422
C 12.28764 29.80125 0.01277
C 12.31895 28.27764 0.00096
C 13.51186 27.71805 -0.01527
C 12.27402 15.54886 0.01087
C 12.30365 4.15602 0.00199
C 12.3504 2.79706 0.01511
C 13.50873 2.13753 -0.00478
C 13.47775 0.73283 -0.01662
C 12.27386 0.01349 -0.01185
C 14.66884 32.71029 0.01126
C 15.97508 32.00461 0.01852
C 7.39096 15.6162 -0.02213
C 7.43597 17.0342 0.00028
C 8.74842 17.65814 -0.00289
C 7.35647 24.19541 -0.00066
C 3.7085 10.68062 -0.02971
C 3.73848 9.26637 0.02894
C 2.46278 8.52667 -0.01789
C 2.42886 7.04372 0.00444
C 3.63484 6.34815 -0.00925
C 3.67113 4.93971 0.01877
C 2.50643 11.36994 0.00165
C 2.4138 4.2538 0.01363
C 3.64679 2.13208 0.00415
C 3.64433 0.74031 -0.0014
C 2.46548 34.06856 0.02162
C 4.8721 32.67737 0.0076
C 6.15792 31.95873 0.01241
C 6.167 30.53993 -0.01454
C 2.41578 2.84526 -0.02162
C 2.46496 12.73867 0.02819
C 3.66108 13.45324 -0.00891
C 3.68536 14.8368 -0.01046
C 3.65115 30.5215 -0.02759
C 2.47627 29.78474 0.0402
C 2.48295 28.43017 0.00572
C 3.6738 27.74737 0.03592
C 3.69088 26.25347 0.00406
C 2.4419 25.57988 0.00943
C 2.42602 24.157 0.02841
C 3.69377 23.50441 -0.01111
C 3.70726 21.93576 -0.01275
C 2.4303 21.35729 0.00985
C 2.40759 19.92798 -0.02245
C 3.64604 19.17241 -0.00428
C 3.6766 17.76629 0.03101
C 2.45879 17.09713 -0.01536
C 2.4992 15.58208 -0.02689
C 4.93015 29.86494 0.01945
C 20.93973 30.54342 -0.00178
C 4.89592 28.43587 0.01416
C 6.0547 26.3763 0.02299
C 6.16191 4.98184 -0.03113
C 4.90119 4.2178 0.02098
C 4.86063 2.82867 0.01848
C 6.10968 2.16083 -0.00619
C 6.18502 0.65789 -0.02162
C 4.965 0.02588 0.00889
C 6.09484 6.38187 0.0351
C 7.46309 32.61278 -0.00481
C 8.62577 30.50098 0.01443
C 7.33745 29.81788 0.03505
C 7.32007 28.47454 -0.02815
C 8.58492 27.69897 -0.04147
C 8.64299 26.29654 -0.05302
C 7.40026 25.57314 0.00213
C 8.70242 31.93781 0.00979
C 4.87602 7.02614 0.00422
C 4.93435 8.48244 0.00798
C 6.05621 9.19375 0.00228
C 4.90211 25.66588 0.00244
C 4.8603 24.21484 -0.01717
C 6.16476 23.41713 0.05265
C 6.13926 22.04009 -0.01952
C 4.93806 21.22231 -0.02813
C 4.96159 19.86168 0.00374
C 6.18052 19.2203 0.00052
C 6.17029 17.81255 -0.03682
C 4.90903 17.03997 0.01965
C 4.888 15.57439 0.02058
C 6.14332 14.8815 -0.01957
C 6.18542 13.49404 -0.0108
C 4.93745 12.74478 -0.00368
C 4.93027 11.40549 -0.02696
C 6.13246 10.69118 -0.00114
C 6.09049 27.73398 0.03542
C 3.72749 31.91979 0.03589
C 19.74067 29.83577 0.00768
C 20.90007 27.80667 0.03005
C 31.90949 19.76746 -0.01429
C 33.17332 19.1355 -0.0136
C 33.15302 17.74262 0.00594
C 31.90654 16.94694 -0.02474
C 31.98724 15.59985 0.00369
C 33.18287 14.8878 0.00455
C 31.94316 21.32278 -0.02383
C 33.22062 13.41578 -0.00644
C 31.92973 11.4067 0.00137
C 33.15914 10.68931 0.00199
C 33.21231 9.25564 0.04381
C 31.93491 8.54494 0.02806
C 32.00359 7.11364 0.01504
C 33.22874 6.45042 -0.00069
C 31.96356 12.77626 -0.01839
C 33.16507 5.02742 0.04926
C 33.26404 21.99112 0.01574
C 31.99708 24.21168 0.03794
C 30.74548 5.02188 0.07705
C 29.56445 4.34483 0.0103
C 29.46538 2.92161 0.02108
C 30.70267 2.19788 0.00716
C 30.73579 0.7372 0.00307
C 29.42293 34.07213 0.00346
C 33.20996 23.47022 0.01927
C 31.99177 32.62384 0.01713
C 33.23087 30.49537 0.01428
C 31.94197 29.8807 -0.02142
C 31.94959 28.46235 0.0544
C 33.21555 27.71518 0.00026
C 33.12811 26.29192 0.00682
C 31.89698 25.6268 -0.01779
C 33.18984 31.9121 -0.01694
C 31.98087 4.29452 -0.03838
C 31.90636 2.88041 0.00349
C 33.15487 2.16302 -0.00323
C 1.26693 14.95588 -0.02957
C 1.26472 13.42666 0.00343
C 0.01531 12.79195 -0.02656
C 34.36936 11.34164 -0.02442
C 1.23073 10.6664 -0.00027
C 1.18558 9.29952 -0.00583
C 34.36012 15.6211 0.02114
C 34.37743 8.54753 -0.02302
C 1.18533 6.34431 0.02931
C 1.21959 4.9811 0.00628
C 34.3559 4.2789 -0.0345
C 34.43137 2.86083 -0.00931
C 1.21911 2.08257 -0.00939
C 1.22892 0.70755 -0.00468
C 34.41944 7.13602 -0.02849
C 0.01297 17.05203 0.00648
C 1.25277 17.80103 0.01223
C 1.20904 19.15893 -0.01678
C 33.18358 0.73499 -0.00841
C 31.94819 34.05663 0.0001
C 34.37589 32.73355 -0.02927
C 1.27391 31.94787 -0.01404
C 1.26111 30.49341 0.01027
C 0.07598 29.80124 0.01831
C 0.00323 28.39888 -0.01037
C 1.22822 27.73785 -0.00439
C 1.21973 26.28505 -0.00598
C 34.39015 25.561 -0.05239
C 34.42078 24.15813 0.03076
C 1.19426 23.48198 0.00723
C 1.27294 22.07589 0.02712
C 0.03505 21.21238 -0.02213
C 0.03283 19.81557 0.01951
C 30.75578 6.42524 0.01908
C 29.51684 7.12195 0.01518
C 29.49122 8.50883 -0.00971
C 30.67749 9.22117 -0.03735
C 24.66742 2.76432 0.04306
C 25.77293 2.07737 0.00996
C 25.76686 0.70353 0.00195
C 24.52445 34.05146 -0.00802
C 26.98829 32.68104 -0.00218
C 28.25591 31.95841 -0.01654
C 24.51817 25.57536 0.00367
C 28.34031 30.51482 -0.00037
C 27.07103 28.41764 0.00622
C 28.35271 27.65746 -0.02815
C 28.27088 26.17202 -0.00942
C 27.06393 25.51778 0.00487
C 27.1068 24.14685 0.00826
C 28.17719 23.34381 -0.00294
C 27.0707 29.79846 -0.0032
C 25.80018 26.24475 -0.01679
C 25.79391 27.71383 -0.01052
C 24.62522 28.46127 0.00684
C 20.90477 0.66435 -0.04078
C 19.68862 0.10984 0.02117
C 22.08445 32.68752 0.02737
C 23.31486 31.94718 -0.00498
C 23.39656 30.5306 0.00135
C 22.19978 29.87274 0.03102
C 22.16179 28.38553 0.02555
C 23.31981 27.62111 0.01423
C 23.50551 26.25797 -0.00285
C 23.42089 0.74991 -0.009
C 22.1646 0.15121 -0.01199
C 24.57835 32.58527 -0.00229
C 25.75899 31.93565 -0.00938
C 25.86694 30.55348 -0.0264
C 24.65345 29.84143 -0.01154
C 28.22031 21.93982 0.00152
C 19.63426 28.41549 -0.0276
C 28.30928 14.82152 0.01257
C 27.03248 12.60444 0.04185
C 29.48695 24.08451 -0.02049
C 30.75923 23.51377 -0.01854
C 30.79799 22.09227 -0.01415
C 29.47824 21.27907 -0.03039
C 29.53892 19.87156 0.01836
C 30.67135 19.10918 0.03531
C 29.44697 25.52419 0.03265
C 30.69831 17.73845 -0.00669
C 29.52477 15.58076 0.01705
C 30.77548 14.89255 -0.0405
C 30.70243 13.55278 -0.01303
C 29.51942 12.81476 -0.01461
C 29.49698 11.45413 -0.02155
C 30.68732 10.69893 -0.00944
C 29.49802 17.0186 0.0101
C 30.71386 26.30259 0.00261
C 30.77191 27.7026 0.02326
C 29.55996 28.37358 0.00924
C 27.03831 11.46695 0.00194
C 28.21782 10.59656 -0.00621
C 28.28755 9.21762 0.02611
C 27.08243 7.23677 0.02198
C 28.26477 6.35651 0.01094
C 28.22836 4.91704 0.00235
C 26.98929 4.24147 0.01495
C 27.03759 2.88186 0.01259
C 28.32834 2.13887 0.01799
C 28.20739 0.64984 0.01699
C 26.96336 0.01856 -0.00416
C 29.532 32.64453 0.01177
C 30.70527 31.90745 0.04266
C 30.7126 30.52426 0.01324
C 29.54783 29.76298 0.0014
C 28.23327 13.53567 0.02316
C 2.51722 32.67775 -0.00033
