394
Graphene
C 0.01793 33.98528 0.01295
C 12.28519 32.67576 -0.00925
C 13.50697 31.90013 0.01877
C 13.39901 30.55662 0.01363
C 12.21489 29.87105 -0.02162
C 12.23439 28.41694 0.00415
C 13.43151 27.74585 -0.0014
C 13.4873 26.39595 0.02162
C 12.24744 25.60197 0.0076
C 12.25315 24.22484 0.01241
C 9.72701 0.21342 0.00444
C 13.46049 23.41833 -0.01454
C 12.19343 21.25988 0.01416
C 12.29927 19.78737 0.03542
C 13.49119 19.19491 0.02299
C 13.55252 17.71744 0.00244
C 12.33885 17.02367 -0.01717
C 12.24722 15.60919 0.05265
C 13.46792 15.0139 -0.01952
C 12.47623 4.3609 -0.02813
C 12.41715 2.90356 0.00374
C 13.45499 21.96915 0.01945
C 11.03156 0.8288 -0.01789
C 11.10611 2.19899 0.02894
C 9.94187 2.92998 -0.02971
C 10.99428 27.73091 -0.00033
C 10.96511 26.31061 0.03589
C 9.74264 25.56873 -0.02759
C 9.72752 24.1793 0.0402
C 10.97205 23.51933 0.00572
C 10.99463 22.08636 0.03592
C 9.83391 21.3056 0.00406
C 9.82324 19.83084 0.00943
C 11.11123 19.15144 0.02841
C 11.10499 17.63659 -0.01111
C 9.8329 17.01499 -0.01275
C 9.76325 15.58622 0.00985
C 10.99912 14.85224 -0.02245
C 11.20637 13.48414 -0.00428
C 10.06033 12.60788 0.03101
C 9.82706 11.13865 -0.01536
C 9.84842 8.77625 -0.02689
C 9.85808 7.28182 -0.01046
C 10.90829 6.49057 -0.00891
C 11.15609 5.0635 0.02819
C 9.86578 4.34474 0.00165
C 13.57931 2.11048 0.00052
C 9.81662 28.46489 -0.01062
C 13.49185 0.65619 -0.03682
C 14.68893 32.64277 0.02058
C 18.45082 27.77395 0.00028
C 18.39955 26.32388 -0.02213
C 17.19177 25.64655 0.03698
C 17.22414 24.17921 -0.00109
C 18.4615 23.39105 -0.00491
C 18.50139 21.99771 0.03338
C 17.17606 21.25455 -0.0258
C 17.12128 19.92697 -0.0331
C 18.41963 19.21288 -0.00316
C 17.19251 28.41547 -0.00289
C 18.34931 17.742 0.02188
C 18.02468 2.13908 0.02691
C 18.35051 0.85477 -0.01581
C 17.1565 34.06701 0.01452
C 19.63998 32.76363 0.04892
C 20.92178 31.98748 -0.00111
C 20.9291 30.58182 -0.03557
C 19.7119 29.83108 0.03754
C 19.75381 28.39089 0.01739
C 20.92547 27.62244 0.00755
C 17.25796 16.96548 -0.01979
C 17.19377 29.86857 -0.00066
C 18.44661 30.56409 0.00213
C 18.47664 31.94268 -0.05302
C 15.91316 31.96137 -0.01957
C 15.92335 30.53646 -0.0108
C 14.65507 29.85284 -0.00368
C 14.68461 28.48811 -0.02696
C 15.96885 27.70952 -0.00114
C 15.93082 26.29042 0.00228
C 14.6955 25.56578 0.00798
C 14.77157 24.1439 0.00422
C 15.98429 23.39737 0.0351
C 15.97352 21.96234 -0.03113
C 14.70096 21.24359 0.02098
C 14.74182 19.80612 0.01848
C 15.93806 19.11945 -0.00619
C 16.00088 17.67877 -0.02162
C 14.78548 16.97302 0.00889
C 14.71363 15.59849 -0.00481
C 14.84816 2.64233 0.00979
C 16.09317 2.12934 0.01443
C 16.03844 0.72408 0.03505
C 14.69887 34.01279 -0.02815
C 17.16613 32.54872 -0.04147
C 12.27403 34.00529 0.01965
C 9.77982 29.96178 0.01364
C 11.07749 30.58856 -0.00719
C 11.06529 32.01329 0.01641
C 2.42862 4.25241 0.01996
C 2.33086 2.9025 -0.03996
C 3.61613 2.21309 0.01465
C 3.63658 0.79322 -0.00074
C 2.40668 0.05686 -0.00518
C 4.87827 32.68055 0.0086
C 6.12397 31.99121 -0.00643
C 6.09924 30.67458 0.017
C 4.88981 29.87946 -0.03113
C 3.67421 5.02955 -0.00279
C 4.93669 28.43098 -0.02566
C 6.11599 26.2991 0.02322
C 4.88054 25.6257 -0.00725
C 4.8752 24.21546 -0.05697
C 6.08935 23.45932 0.01087
C 6.07982 22.01768 -0.01343
C 4.84087 21.26814 0.00988
C 4.8477 19.81548 0.0276
C 6.09656 19.20303 0.01305
C 6.13108 17.79307 -0.00077
C 6.15472 27.76742 -0.00094
C 3.6936 6.44318 0.01226
C 2.41752 7.06977 0.03828
C 2.37456 8.55478 0.0174
C 3.65369 30.60718 -0.00561
C 2.42941 29.90853 0.00208
C 2.32308 28.50088 0.01707
C 3.67513 27.81266 0.02769
C 3.63009 26.34842 -0.03291
C 2.464 25.63346 -0.04999
C 2.41733 24.10258 0.04505
C 3.66521 23.46202 0.03284
C 3.74652 22.07017 -0.04307
C 2.42392 21.3304 0.03189
C 2.47356 19.87671 0.00031
C 3.68948 19.10988 -0.003
C 3.6662 17.69788 0.01402
C 2.38638 17.03241 0.02379
C 2.3843 15.58967 0.00907
C 3.69744 14.91744 0.00643
C 3.71523 13.45847 -0.01509
C 2.3668 12.77594 0.03267
C 2.38576 11.42172 0.02374
C 3.63503 10.63329 0.00402
C 3.57064 9.21628 0.0073
C 5.00035 17.0609 0.03368
C 4.89804 15.6215 -0.02929
C 6.19211 14.89662 -0.00966
C 6.17556 13.42985 -0.03337
C 7.30383 19.98167 0.02888
C 8.55887 19.16781 -0.00482
C 8.61677 17.62104 -0.01384
C 7.40298 17.01502 0.03693
C 7.42766 15.55064 0.01745
C 8.62018 14.86566 0.00488
C 8.67292 13.40211 -0.01004
C 7.37418 12.76924 -0.02896
C 7.34911 11.3299 -0.00131
C 8.50163 10.63233 -0.01118
C 8.55592 9.26687 -0.014
C 7.28701 8.55924 0.02147
C 7.39536 7.13813 0.00373
C 8.68287 6.51858 -0.00191
C 8.63545 5.15247 0.00438
C 7.38763 4.40984 0.01291
C 7.3886 3.01078 0.00093
C 8.62885 2.23016 0.00057
C 8.5227 0.86704 -0.01634
C 7.29128 0.06889 -0.00334
C 9.81483 32.76607 0.02339
C 7.30499 21.32558 0.00685
C 20.88735 26.2445 -0.0054
C 8.64496 21.97552 0.00895
C 7.30449 24.13639 0.0288
C 4.92453 12.75188 0.01227
C 4.8531 11.38338 0.00873
C 6.12413 10.7023 -0.00049
C 6.04863 9.33395 0.00848
C 4.78871 8.57464 -0.01303
C 4.8521 7.1841 -0.01378
C 6.1309 6.42845 0.02635
C 6.0423 5.10586 0.0127
C 4.85285 4.34536 0.01396
C 4.80773 2.90427 0.01849
C 6.06522 2.30107 -0.01142
C 6.04904 0.80416 -0.00562
C 4.81498 0.10793 -0.00494
C 7.36158 32.75279 0.00054
C 8.61172 32.04943 0.03007
C 8.5779 30.62587 -0.00095
C 7.34991 29.86129 0.01572
C 7.41895 28.48051 -0.04848
C 8.60975 27.7707 -0.00892
C 8.55148 26.30795 -0.01362
C 7.27351 25.55449 -0.0008
C 8.61484 23.4282 0.00393
C 19.61139 25.57871 0.00667
C 19.68259 24.20265 0.00143
C 20.94787 23.42893 -0.017
C 30.62241 6.34431 0.01908
C 30.65591 4.97296 0.07705
C 29.44544 4.19191 0.0103
C 29.46569 2.85765 0.02108
C 30.6969 2.14683 0.00716
C 30.74738 0.73044 0.00307
C 29.58266 34.05864 0.00346
C 31.89516 32.65733 0.01713
C 33.11993 31.99227 -0.01694
C 29.41614 7.17947 0.01518
C 33.17493 30.55614 0.01428
C 31.91676 28.41483 0.0544
C 33.13959 27.67337 0.00026
C 33.18129 26.27514 0.00682
C 32.00942 25.61705 -0.01779
C 31.95022 24.1544 0.03794
C 33.18034 23.42369 0.01927
C 33.1365 22.00687 0.01574
C 31.9099 21.29112 -0.02383
C 31.94966 19.86405 -0.01429
C 31.96116 29.82953 -0.02142
C 29.44438 8.56277 -0.00971
C 30.69178 9.20165 -0.03735
C 30.65246 10.64524 -0.00944
C 29.50982 32.68501 0.01177
C 30.75496 31.93116 0.04266
C 30.73354 30.58715 0.01324
C 29.53479 29.82209 0.0014
C 29.46902 28.41767 0.00924
C 30.69242 27.7382 0.02326
C 30.76349 26.28045 0.00261
C 29.58971 25.48197 0.03265
C 29.49282 24.12629 -0.02049
C 30.77008 23.46722 -0.01854
C 30.78287 22.02437 -0.01415
C 29.50771 21.35464 -0.03039
C 29.55904 19.93584 0.01836
C 30.75967 19.22174 0.03531
C 30.67722 17.75244 -0.00669
C 29.4636 17.03581 0.0101
C 29.46226 15.56408 0.01705
C 30.66903 14.91535 -0.0405
C 30.60363 13.4548 -0.01303
C 29.36594 12.78515 -0.01461
C 29.4659 11.33378 -0.02155
C 33.21575 19.20192 -0.0136
C 33.17819 17.69032 0.00594
C 31.88649 17.00345 -0.02474
C 31.9102 15.6314 0.00369
C 1.17059 22.01361 0.02712
C 34.41732 21.21418 -0.02213
C 34.42636 19.77621 0.01951
C 1.23704 19.18075 -0.01678
C 1.19134 17.78901 0.01223
C 0.02859 17.07056 0.00648
C 34.36471 15.67158 0.02114
C 1.20188 14.94475 -0.02957
C 1.21933 13.5386 0.00343
C 34.35873 12.8858 -0.02656
C 34.33487 11.4008 -0.02442
C 1.14207 10.71853 -0.00027
C 1.17204 9.23371 -0.00583
C 34.35339 8.57268 -0.02302
C 34.38303 7.1349 -0.02849
C 1.18888 6.39471 0.02931
C 1.17915 5.01146 0.00628
C 0.00773 4.24375 -0.0345
C 34.42238 2.84541 -0.00931
C 1.13588 2.13466 -0.00939
C 1.14367 0.72253 -0.00468
C 1.23508 23.41015 0.00723
C 27.01603 34.02242 -0.00416
C 0.04545 24.11003 0.03076
C 1.16735 26.24274 -0.00598
C 33.18195 14.9594 0.00455
C 33.10998 13.50917 -0.00644
C 31.87256 12.78599 -0.01839
C 31.85994 11.39926 0.00137
C 33.09717 10.6968 0.00199
C 33.09761 9.31811 0.04381
C 31.86485 8.54891 0.02806
C 31.85454 7.05609 0.01504
C 33.1206 6.39706 -0.00069
C 33.1642 4.95953 0.04926
C 31.98697 4.28883 -0.03838
C 31.93656 2.87489 0.00349
C 33.1524 2.12468 -0.00323
C 33.29573 0.70492 -0.00841
C 31.98677 34.06682 0.0001
C 34.36457 32.59285 -0.02927
C 1.1814 31.97768 -0.01404
C 1.19514 30.54452 0.01027
C 34.37228 29.9108 0.01831
C 34.34662 28.4882 -0.01037
C 1.07327 27.69765 -0.00439
C 34.40361 25.5337 -0.05239
C 3.66169 32.02635 -0.01977
C 28.23871 0.72353 0.01699
C 27.01867 2.79214 0.01259
C 23.34376 17.76825 -0.01662
C 22.07679 17.07013 -0.01185
C 22.06057 15.60028 0.01126
C 23.32524 14.95251 0.01852
C 23.26554 13.52528 -0.00381
C 22.93631 4.26278 0.03046
C 22.32025 3.10116 0.0296
C 23.40127 2.06393 0.03374
C 23.30357 0.69066 -0.02845
C 23.43673 19.13799 -0.00478
C 22.09406 0.02714 -0.03213
C 25.78219 31.91626 0.01153
C 25.85425 30.54609 0.02734
C 24.63518 29.83653 -0.0055
C 24.57793 28.4055 0.01515
C 25.82549 27.67004 -0.00225
C 25.84789 26.23397 0.00071
C 24.60324 25.60203 -0.01107
C 24.60588 24.16541 -0.01586
C 25.83761 23.44095 -0.01971
C 24.52716 32.64235 0.02239
C 22.08914 19.93404 0.01511
C 22.09251 21.39553 0.00199
C 23.30484 22.10447 0.01087
C 20.83791 21.9984 0.00364
C 19.67993 21.36328 -0.00831
C 19.64081 19.97989 -0.02957
C 20.91686 19.24116 -0.04422
C 20.88338 17.71457 0.00654
C 19.55846 17.00594 -0.00703
C 19.73914 15.64963 -0.04076
C 20.84609 14.96718 -0.00652
C 21.07403 2.36849 0.0058
C 20.89707 0.86035 -0.00865
C 19.69906 0.12891 0.00675
C 22.04605 32.66804 -0.00311
C 23.30575 31.94813 0.00742
C 23.3736 30.56782 -0.01594
C 22.08112 29.80216 0.0106
C 22.13368 28.34847 -0.01154
C 23.35629 27.68014 -0.01721
C 23.38074 26.27972 -0.02422
C 22.1886 25.51755 0.01277
C 22.17533 24.20016 0.00096
C 23.35682 23.45418 -0.01527
C 25.83757 21.98261 -0.02118
C 24.51824 21.33227 0.00733
C 24.64574 19.867 -0.00178
C 25.84305 19.20888 0.00768
C 27.06899 25.53782 -0.00218
C 26.99461 24.09858 -0.01654
C 28.32653 23.36305 -0.00037
C 28.22965 21.92154 -0.0032
C 27.0335 21.25597 0.00622
C 27.15258 19.85787 -0.02815
C 28.32162 19.13749 -0.00942
C 28.21729 17.70451 0.00487
C 26.98705 16.99294 0.00826
C 26.97091 15.59299 -0.00294
C 28.27892 14.97004 0.00152
C 28.03526 13.51145 0.01257
C 26.92005 12.72654 0.02316
C 26.95642 11.3896 0.04185
C 28.1591 10.61844 0.00194
C 28.19706 9.21446 -0.00621
C 26.89579 8.53043 0.02611
C 26.94177 7.04461 0.02198
C 28.20303 6.53 0.01094
C 28.17236 4.97974 0.00235
C 26.96841 4.20484 0.01495
C 28.30784 26.17996 -0.00802
C 28.13472 2.05004 0.01799
C 28.26041 27.62775 0.00195
C 27.08007 29.86419 0.04306
C 25.83517 17.84392 -0.0276
C 24.5947 17.07818 0.03005
C 24.65824 15.64542 -0.04078
C 25.80341 14.80662 0.02117
C 25.68361 13.35952 0.02737
C 24.31333 12.59169 -0.00498
C 24.56246 11.26084 0.00135
C 25.75149 10.65206 0.03102
C 25.66209 9.18123 0.02555
C 24.57562 8.40322 0.01423
C 24.58566 7.03591 -0.00285
C 25.70555 6.27139 -0.009
C 25.63763 4.87309 -0.01199
C 24.36345 4.14564 -0.00229
C 24.64254 2.73222 -0.00938
C 25.80862 2.09036 -0.0264
C 25.81541 0.67295 -0.01154
C 24.53148 34.03785 0.00684
C 27.04541 32.63426 -0.01052
C 28.25525 31.94055 -0.01679
C 28.21418 30.5018 0.00367
C 27.02285 28.39888 0.00996
C 2.40131 32.71431 0.02784
