363
Graphene
C 34.37582 0.01258 0.01295
C 13.46013 0.62691 -0.03682
C 12.27195 0.01294 0.01965
C 14.76418 32.63489 0.02058
C 15.96587 31.9709 -0.01957
C 16.053 30.45149 -0.0108
C 14.77885 29.98824 -0.00368
C 14.70521 11.29824 -0.02696
C 15.94703 10.75368 -0.00114
C 13.50714 2.12792 0.00052
C 16.05812 9.20147 0.00228
C 14.85682 6.93302 0.00422
C 16.07489 6.34614 0.0351
C 16.08697 4.92872 -0.03113
C 14.8107 4.26029 0.02098
C 14.72637 2.76114 0.01848
C 15.93013 2.06046 -0.00619
C 15.97822 0.64356 -0.02162
C 14.78556 34.03303 0.00889
C 14.84775 8.46369 0.00798
C 12.30993 2.8198 0.00374
C 12.2988 4.24476 -0.02813
C 13.58072 4.94546 -0.01952
C 9.74569 8.54624 -0.01789
C 9.64921 7.21812 0.00444
C 10.88137 6.39745 -0.00925
C 11.06368 4.98711 0.01877
C 9.89071 2.96417 0.01363
C 10.98562 2.20281 -0.02162
C 11.06092 0.75727 0.00415
C 9.91343 0.00664 -0.0014
C 12.24323 32.71039 0.02162
C 13.48508 32.07255 0.0076
C 13.54812 30.44652 0.01241
C 12.23785 30.02079 -0.01454
C 12.35258 12.62021 0.01945
C 12.28215 11.21799 0.01416
C 13.50202 10.54081 0.03542
C 13.56057 9.15531 0.02299
C 12.30907 8.54791 0.00244
C 12.29487 7.03823 -0.01717
C 13.55555 6.33752 0.05265
C 17.25146 32.64299 -0.00481
C 18.41654 31.96575 0.00979
C 18.45594 30.52428 0.01443
C 17.35366 29.93888 0.03505
C 20.8239 9.31648 0.03754
C 19.68709 8.57874 0.01739
C 19.69932 7.17076 0.00755
C 20.82167 6.31308 -0.0054
C 20.97708 4.84422 0.00667
C 19.68361 4.22394 0.00143
C 19.62761 2.84658 -0.017
C 20.89953 2.08697 0.00364
C 20.90439 0.68569 -0.00831
C 19.67597 34.07472 -0.02957
C 22.14696 32.60207 -0.04422
C 23.39806 31.94176 0.00654
C 23.3236 30.54721 -0.00703
C 22.088 29.82915 -0.04076
C 22.07532 28.41124 -0.00652
C 23.36399 27.62749 0.0058
C 23.33925 26.25159 -0.00865
C 22.02884 25.36455 0.00675
C 22.21895 24.00834 -0.00311
C 20.83876 10.72033 -0.03557
C 11.04619 9.21724 0.02894
C 19.54282 11.41446 -0.00111
C 20.77038 13.48056 0.01452
C 17.16767 11.39455 -0.02815
C 18.32196 10.66544 -0.04147
C 18.39856 9.27199 -0.05302
C 17.26376 8.52888 0.00213
C 17.24618 7.11217 -0.00066
C 18.47526 6.45247 -0.00289
C 18.44617 5.02337 0.00028
C 17.30612 4.21514 -0.02213
C 17.20653 2.77573 0.03698
C 18.45763 2.10876 -0.00109
C 18.48082 0.68432 -0.00491
C 17.21156 34.03314 0.03338
C 19.64154 32.67461 -0.0258
C 20.9131 31.99625 -0.0331
C 20.94211 30.51348 -0.00316
C 19.70252 29.77989 0.02188
C 19.58788 28.41956 -0.01979
C 20.79869 27.60158 0.02691
C 21.096 26.3368 -0.01581
C 19.71927 12.78062 0.04892
C 23.35907 23.36884 0.00742
C 11.02521 10.60531 -0.02971
C 9.84531 12.79246 0.02819
C 3.69379 6.40508 -0.01378
C 3.72008 5.03169 0.02635
C 2.46634 4.3086 0.0127
C 2.53095 2.87092 0.01396
C 3.69175 2.15308 0.01849
C 3.65137 0.69658 -0.01142
C 2.44776 34.05142 -0.00562
C 4.86962 32.72988 -0.00494
C 2.4021 7.09448 -0.01303
C 4.81389 29.91482 0.00054
C 6.04052 27.82708 -0.00095
C 6.16259 26.36856 0.01572
C 4.99136 25.59971 -0.04848
C 4.92314 24.1767 -0.00892
C 6.27897 23.50922 -0.01362
C 6.22572 22.04009 -0.0008
C 4.9357 21.35603 0.0288
C 4.97691 19.87227 0.00393
C 4.86649 28.52276 0.03007
C 2.4519 8.5197 0.00848
C 3.66598 9.26547 -0.00049
C 3.62804 10.65442 0.00873
C 3.67625 30.54634 -0.00643
C 2.44678 29.81093 0.017
C 2.47067 28.37072 -0.03113
C 3.7013 27.65951 -0.02566
C 3.67556 26.26114 -0.00094
C 2.44954 25.61436 0.02322
C 2.39326 24.25473 -0.00725
C 3.65993 23.48529 -0.05697
C 3.73155 22.09397 0.01087
C 2.48307 21.39196 -0.01343
C 2.52122 19.8985 0.00988
C 3.72502 19.15463 0.0276
C 3.75498 17.75136 0.01305
C 2.45938 16.97549 -0.00077
C 2.42977 15.61567 0.03368
C 3.63227 15.00915 -0.02929
C 3.645 13.60797 -0.00966
C 2.45969 12.84899 -0.03337
C 2.43878 11.4195 0.01227
C 6.20213 19.16823 0.00895
C 6.20827 17.7323 0.00685
C 4.95533 17.09945 0.02888
C 4.92232 15.70969 -0.00482
C 8.55515 14.88788 -0.00033
C 8.62472 13.49071 0.03589
C 7.35946 12.77048 -0.02759
C 7.38945 11.35632 0.0402
C 8.61501 10.69834 0.00572
C 8.5639 9.29506 0.03592
C 7.35184 8.56686 0.00406
C 7.30918 7.21227 0.00943
C 8.7054 0.54349 0.02841
C 7.48809 0.26643 -0.01111
C 10.00289 32.69425 -0.01275
C 10.99163 31.9635 0.00985
C 10.98031 30.41462 -0.02245
C 9.93129 29.60946 -0.00428
C 9.57085 28.52607 0.03101
C 9.63424 17.083 -0.01536
C 9.91368 15.68213 -0.02689
C 10.98211 14.8513 -0.01046
C 11.1966 13.52715 -0.00891
C 7.38798 15.65274 -0.01062
C 9.83447 11.34469 0.00165
C 7.42716 17.12114 0.01364
C 7.27064 19.91366 0.01641
C 6.15175 15.00128 -0.01384
C 6.13179 13.52775 0.03693
C 4.87647 12.90765 0.01745
C 4.91718 11.40256 0.00488
C 6.1693 10.74351 -0.01004
C 6.15839 9.28058 -0.02896
C 4.93003 8.59297 -0.00131
C 4.84835 7.20423 -0.01118
C 6.16824 6.51276 -0.014
C 4.96667 4.36582 0.02147
C 5.02097 3.00801 0.00373
C 5.99322 2.04248 -0.00191
C 6.20487 0.75959 0.00438
C 4.96948 34.05663 0.01291
C 7.27072 28.12071 0.00093
C 8.47647 27.86299 0.00057
C 7.20077 25.5426 -0.01634
C 7.32145 24.32902 -0.00334
C 7.18803 21.14788 0.02339
C 8.63214 17.78718 -0.00719
C 3.6815 31.99376 0.0086
C 23.30153 21.97805 -0.01594
C 22.10382 19.99737 -0.01154
C 29.47223 0.00096 0.00346
C 32.0395 32.69558 0.01713
C 33.21216 31.95897 -0.01694
C 33.13947 30.48802 0.01428
C 31.8984 29.87218 -0.02142
C 31.9052 28.46209 0.0544
C 33.18753 27.67101 0.00026
C 33.11351 26.28008 0.00682
C 30.68533 0.71995 0.00307
C 31.85985 25.55028 -0.01779
C 33.12998 23.42849 0.01927
C 33.21425 22.07204 0.01574
C 31.98578 21.22869 -0.02383
C 31.99086 19.86999 -0.01429
C 33.24445 19.18728 -0.0136
C 33.2846 17.74028 0.00594
C 31.9911 17.09514 -0.02474
C 32.00124 15.67253 0.00369
C 31.92503 24.08854 0.03794
C 30.67481 2.12972 0.00716
C 29.47585 2.8847 0.02108
C 29.49153 4.28016 0.0103
C 29.51892 24.15796 -0.02049
C 30.76197 23.36049 -0.01854
C 30.74643 21.96137 -0.01415
C 29.47871 21.33426 -0.03039
C 29.53466 19.95919 0.01836
C 30.74599 19.17295 0.03531
C 30.73233 17.75199 -0.00669
C 29.49353 17.05229 0.0101
C 29.51779 15.58975 0.01705
C 30.73435 14.92167 -0.0405
C 30.77462 13.50402 -0.01303
C 29.53684 12.76964 -0.01461
C 29.54136 11.34905 -0.02155
C 30.74109 10.61226 -0.00944
C 30.72809 9.16757 -0.03735
C 29.5192 8.49133 -0.00971
C 29.52558 7.14297 0.01518
C 30.71848 6.34715 0.01908
C 30.67594 4.91613 0.07705
C 33.19727 14.92623 0.00455
C 33.14044 13.46734 -0.00644
C 31.98545 12.69712 -0.01839
C 31.9541 11.35876 0.00137
C 0.00721 19.93637 0.01951
C 1.25392 19.14474 -0.01678
C 1.26967 17.73909 0.01223
C 0.04321 17.05619 0.00648
C 0.00618 15.5353 0.02114
C 1.15546 14.82887 -0.02957
C 1.18449 13.44339 0.00343
C 34.34018 12.8015 -0.02656
C 34.3903 11.33228 -0.02442
C 1.24796 10.72467 -0.00027
C 1.2456 9.29821 -0.00583
C 0.05359 8.60768 -0.02302
C 34.37335 7.14723 -0.02849
C 1.20118 6.41691 0.02931
C 1.24147 5.0195 0.00628
C 0.02116 4.31751 -0.0345
C 0.05454 2.85968 -0.00931
C 1.24729 2.11563 -0.00939
C 1.22094 0.7215 -0.00468
C 0.04121 21.37475 -0.02213
C 29.47658 25.57056 0.03265
C 1.26995 22.05853 0.02712
C 34.38821 24.21242 0.03076
C 33.21382 10.61874 0.00199
C 33.23208 9.20565 0.04381
C 31.91951 8.46563 0.02806
C 31.94318 7.0449 0.01504
C 33.16819 6.36896 -0.00069
C 33.14282 4.95628 0.04926
C 31.89 4.21657 -0.03838
C 31.92677 2.82227 0.00349
C 33.25856 2.20818 -0.00323
C 33.21388 0.8302 -0.00841
C 31.97176 0.08446 0.0001
C 34.42095 32.67262 -0.02927
C 1.21027 31.93324 -0.01404
C 1.20856 30.49746 0.01027
C 34.38983 29.78293 0.01831
C 0.01133 28.37151 -0.01037
C 1.27697 27.73368 -0.00439
C 1.20117 26.27821 -0.00598
C 34.31796 25.55904 -0.05239
C 1.15706 23.45298 0.00723
C 22.1728 21.31692 0.0106
C 30.70661 26.30322 0.00261
C 29.44501 28.42121 0.00924
C 24.53797 28.34752 0.01515
C 25.76663 27.63606 -0.00225
C 25.82524 26.21014 0.00071
C 24.54497 25.56236 -0.01107
C 24.51316 24.14002 -0.01586
C 25.71487 23.37479 -0.01971
C 25.7849 22.02106 -0.02118
C 24.58852 21.24812 0.00733
C 24.53887 29.78741 -0.0055
C 24.51783 19.82402 -0.00178
C 25.78292 17.68112 -0.0276
C 24.53395 17.00497 0.03005
C 24.49288 15.5523 -0.04078
C 25.80433 14.87723 0.02117
C 25.78956 13.4849 0.02737
C 24.50628 12.7339 -0.00498
C 24.61212 11.33775 0.00135
C 25.85925 10.6059 0.03102
C 25.8146 19.13204 0.00768
C 25.72929 30.51481 0.02734
C 25.77684 31.93605 0.01153
C 24.64786 32.59802 0.02239
C 23.19932 19.19085 -0.01721
C 23.2748 17.76818 -0.02422
C 22.26919 16.95635 0.01277
C 22.09161 15.65358 0.00096
C 23.16787 14.82586 -0.01527
C 23.23043 13.46843 0.01087
C 21.9925 12.80408 0.00199
C 22.13998 11.34386 0.01511
C 23.37736 10.62476 -0.00478
C 23.31092 9.18356 -0.01662
C 22.09053 8.46325 -0.01185
C 22.05037 7.05692 0.01126
C 23.40177 6.34367 0.01852
C 23.44144 4.91966 -0.00381
C 22.20391 4.16824 0.03046
C 22.1496 2.76062 0.0296
C 23.37019 2.06083 0.03374
C 23.46631 0.66711 -0.02845
C 22.17658 0.07025 -0.03213
C 25.806 9.21655 0.02555
C 24.57109 8.41145 0.01423
C 24.66979 7.04011 -0.00285
C 25.96367 6.36291 -0.009
C 28.29507 14.88137 0.00152
C 28.29904 13.42717 0.01257
C 27.05964 12.73628 0.02316
C 27.10066 11.33933 0.04185
C 28.29981 10.65124 0.00194
C 28.26407 9.24938 -0.00621
C 27.0078 8.49247 0.02611
C 27.17586 7.12236 0.02198
C 28.34205 6.44377 0.01094
C 28.26006 5.03879 0.00235
C 27.14405 4.23913 0.01495
C 27.07782 2.86046 0.01259
C 28.32115 2.12056 0.01799
C 28.26415 0.73963 0.01699
C 27.08522 0.03552 -0.00416
C 29.51745 32.67452 0.01177
C 30.74019 32.04106 0.04266
C 30.69627 30.58363 0.01324
C 29.46953 29.86104 0.0014
C 27.05469 15.55897 -0.00294
C 30.69159 27.72915 0.02326
C 27.07772 17.06351 0.00826
C 28.26745 19.22534 -0.00942
C 25.89827 4.93325 -0.01199
C 24.66191 4.19291 -0.00229
C 24.63987 2.81018 -0.00938
C 25.83784 2.13998 -0.0264
C 25.90327 0.80827 -0.01154
C 24.61166 34.03201 0.00684
C 27.0437 32.70782 -0.01052
C 28.20329 31.94123 -0.01679
C 28.19205 30.4891 0.00367
C 26.95484 29.79428 0.04306
C 26.98774 28.41759 0.00996
C 28.20255 27.722 0.00195
C 28.22687 26.2567 -0.00802
C 26.97944 25.4992 -0.00218
C 27.04238 24.1275 -0.01654
C 28.24232 23.45117 -0.00037
C 28.22102 22.00413 -0.0032
C 27.01986 21.33189 0.00622
C 27.05616 19.90073 -0.02815
C 28.28306 17.81399 0.00487
C 2.43846 32.63067 -0.00518
