390
Graphene
C 0.01328 0.02501 0.01295
C 14.81565 12.75825 0.01363
C 14.73057 11.39064 -0.02162
C 15.96162 10.67986 0.00415
C 16.01194 9.22352 -0.0014
C 14.80079 8.5602 0.02162
C 14.77327 7.09921 0.0076
C 15.94564 6.35935 0.01241
C 15.96643 4.93402 -0.01454
C 14.72759 4.19451 0.01945
C 15.98476 13.4758 0.01877
C 14.78172 2.88676 0.01416
C 16.04663 0.68233 0.02299
C 14.79559 34.06351 0.00244
C 17.25798 32.64081 -0.01717
C 18.43783 31.98782 0.05265
C 18.44026 30.48474 -0.01952
C 17.20304 29.76043 -0.02813
C 17.17681 28.36174 0.00374
C 18.46961 27.63327 0.00052
C 18.42976 26.26402 -0.03682
C 15.95812 2.15609 0.03542
C 17.22914 25.53081 0.01965
C 15.95409 14.94505 -0.00925
C 14.69505 17.10647 -0.01789
C 12.31983 4.296 0.0402
C 12.29959 2.85007 0.00572
C 13.51692 2.16825 0.03592
C 13.53053 0.72667 0.00406
C 12.27708 34.07984 0.00943
C 14.75425 32.6693 0.02841
C 15.99879 31.96713 -0.01111
C 15.99849 30.6199 -0.01275
C 14.74513 29.83431 0.00985
C 14.72573 15.67595 0.00444
C 14.77384 28.37097 -0.02245
C 15.99495 26.26337 0.03101
C 14.76309 25.56893 -0.01536
C 14.80241 24.1233 -0.02689
C 15.99659 23.40878 -0.01046
C 16.01341 22.03207 -0.00891
C 14.79763 21.24101 0.02819
C 14.71672 19.90717 0.00165
C 16.00058 19.17357 -0.02971
C 16.03627 17.74734 0.02894
C 15.97222 27.71885 -0.00428
C 17.23729 24.12845 0.02058
C 18.41135 23.49463 -0.01957
C 18.43641 22.03839 -0.0108
C 19.66025 28.36027 0.03698
C 20.90526 27.62384 -0.00109
C 20.90869 26.27286 -0.00491
C 19.66053 25.5335 0.03338
C 19.65957 24.15089 -0.0258
C 20.88704 23.4371 -0.0331
C 20.88844 22.01642 -0.00316
C 19.70983 21.34925 0.02188
C 19.70267 19.8501 -0.01979
C 19.70876 29.81719 -0.02213
C 20.92114 19.19082 0.02691
C 19.70427 17.01035 0.01452
C 19.64504 15.6038 0.04892
C 20.91268 14.90294 -0.00111
C 20.90941 13.44226 -0.03557
C 19.70869 12.75792 0.03754
C 19.67374 11.37539 0.01739
C 20.86115 10.63493 0.00755
C 20.89145 9.22653 -0.0054
C 19.62206 8.55866 0.00667
C 20.90424 17.77664 -0.01581
C 20.93046 30.54264 0.00028
C 20.933 31.92641 -0.00289
C 19.6797 32.64507 -0.00066
C 17.23928 21.31455 -0.00368
C 17.22484 19.88324 -0.02696
C 18.48354 19.17678 -0.00114
C 18.44828 17.77037 0.00228
C 17.22093 17.00401 0.00798
C 17.16352 15.62085 0.00422
C 18.44305 14.88438 0.0351
C 18.46882 13.48451 -0.03113
C 17.19307 12.76862 0.02098
C 17.19344 11.34957 0.01848
C 18.42419 10.67351 -0.00619
C 18.43418 9.24109 -0.02162
C 17.17158 8.53278 0.00889
C 17.19292 7.12679 -0.00481
C 18.45733 6.37194 0.00979
C 18.44038 4.97577 0.01443
C 17.2 4.1992 0.03505
C 17.182 2.81776 -0.02815
C 18.47169 2.13442 -0.04147
C 18.41168 0.71693 -0.05302
C 17.23234 34.05521 0.00213
C 13.55992 4.97226 -0.02759
C 13.49207 6.42862 0.03589
C 12.30249 7.07779 -0.00033
C 12.29253 8.56768 -0.01062
C 6.14818 27.70894 -0.00518
C 4.94396 12.83002 0.0086
C 4.924 11.3182 -0.00643
C 6.13097 10.68352 0.017
C 6.13949 9.24582 -0.03113
C 4.90248 8.52453 -0.02566
C 4.90847 7.10901 -0.00094
C 6.12981 6.41049 0.02322
C 6.17732 4.90917 -0.00725
C 4.92929 28.41497 -0.00074
C 4.9293 4.28362 -0.05697
C 6.15999 2.13346 -0.01343
C 6.09224 0.76272 0.00988
C 4.90491 0.04774 0.0276
C 7.36775 32.65428 0.01305
C 8.58282 31.96446 -0.00077
C 8.57833 30.57319 0.03368
C 7.42921 29.77033 -0.02929
C 7.42442 28.414 -0.00966
C 8.58072 27.6812 -0.03337
C 4.97154 2.84195 0.01087
C 4.94052 29.81277 0.01465
C 6.10959 30.5171 -0.03996
C 6.13561 32.02357 0.01996
C 3.7277 30.51805 -0.03291
C 2.50525 29.79592 -0.04999
C 2.45878 28.40048 0.04505
C 3.72218 27.65469 0.03284
C 3.62529 26.21287 -0.04307
C 2.49027 25.53197 0.03189
C 3.64876 13.43561 0.00031
C 2.43855 12.86248 -0.003
C 2.41034 11.40596 0.01402
C 3.66561 10.67758 0.02379
C 3.72018 9.28616 0.00907
C 2.45863 8.46955 0.00643
C 2.47071 7.10875 -0.01509
C 3.71536 6.40962 0.03267
C 3.7053 5.01227 0.02374
C 2.48688 4.25934 0.00402
C 2.44206 2.80539 0.0073
C 3.67641 2.11836 0.0174
C 3.6985 0.70819 0.03828
C 2.47999 34.04049 0.01226
C 4.87909 32.72078 -0.00279
C 7.38707 12.82451 0.01227
C 19.65575 7.09206 0.00143
C 7.45099 11.39109 0.00873
C 8.64717 9.22145 0.00848
C 9.84679 4.27505 0.01745
C 9.79416 2.77715 0.00488
C 11.0221 2.12621 -0.01004
C 11.02391 0.7511 -0.02896
C 9.80061 34.05979 -0.00131
C 12.31238 32.63242 -0.01118
C 13.50473 31.96941 -0.014
C 13.50718 30.55343 0.02147
C 12.32179 29.78952 0.00373
C 11.0616 4.9896 0.03693
C 12.2999 28.43695 -0.00191
C 13.52778 26.2945 0.01291
C 12.29061 25.56567 0.00093
C 13.54541 23.42658 0.00057
C 13.55832 14.94916 -0.01634
C 13.54735 13.5102 -0.00334
C 12.27808 12.83681 0.02339
C 12.33655 11.37126 0.01641
C 13.56055 10.6965 -0.00719
C 13.5219 9.27176 0.01364
C 13.58158 27.72202 0.00438
C 11.02027 6.42495 -0.01384
C 9.82028 7.12782 -0.00482
C 9.85669 8.51383 0.02888
C 7.3575 8.52475 -0.01303
C 7.38851 7.15528 -0.01378
C 8.63372 6.37743 0.02635
C 8.62827 4.96853 0.0127
C 7.36528 4.27929 0.01396
C 7.36906 2.89343 0.01849
C 8.63862 2.14386 -0.01142
C 8.55239 0.6911 -0.00562
C 7.34328 0.00244 -0.00494
C 9.84887 32.63679 0.00054
C 11.08521 31.91575 0.03007
C 11.03573 30.54985 -0.00095
C 9.78949 29.84734 0.01572
C 9.83842 28.43399 -0.04848
C 11.08892 27.64626 -0.00892
C 11.05909 26.27494 -0.01362
C 10.99875 13.50295 -0.0008
C 9.87832 12.79058 0.0288
C 9.82702 11.41107 0.00393
C 11.01619 10.66514 0.00895
C 11.03148 9.25373 0.00685
C 8.60307 10.59742 -0.00049
C 20.91723 6.42454 -0.017
C 20.87821 5.0023 0.00364
C 19.70229 4.30137 -0.00831
C 29.52438 8.50417 0.07705
C 29.48998 7.08683 0.0103
C 30.74508 6.42214 0.02108
C 30.77285 4.95359 0.00716
C 29.53576 4.27927 0.00307
C 29.49809 2.80944 0.00346
C 30.71261 2.12526 0.01713
C 30.73788 0.70581 -0.01694
C 29.48133 0.03452 0.01428
C 30.78451 9.24638 0.01908
C 31.99101 32.61197 -0.02142
C 33.24736 30.52035 0.00026
C 31.95794 29.83332 0.00682
C 31.96367 28.40348 -0.01779
C 33.22094 27.70881 0.03794
C 33.2068 26.25559 0.01927
C 31.97941 25.5354 0.01574
C 31.98882 24.16227 -0.02383
C 33.23815 23.46661 -0.01429
C 33.21267 21.96401 -0.0136
C 33.24813 31.91708 0.0544
C 30.76445 10.66019 0.01518
C 29.4961 11.38635 -0.00971
C 29.52101 12.77848 -0.03735
C 28.26842 0.70504 0.04266
C 27.09156 34.04649 0.01324
C 29.48621 32.61949 0.0014
C 30.72142 31.94844 0.00924
C 30.73645 30.48921 0.02326
C 29.46595 29.8318 0.00261
C 29.49733 28.38387 0.03265
C 30.7513 27.6062 -0.02049
C 30.77676 26.26232 -0.01854
C 29.51186 25.60468 -0.01415
C 29.59149 24.14505 -0.03039
C 30.7507 23.36062 0.01836
C 30.74159 22.00441 0.03531
C 29.55744 21.2619 -0.00669
C 29.47725 19.867 0.0101
C 30.7573 19.14747 0.01705
C 30.77709 17.76669 -0.0405
C 29.50719 17.05274 -0.01303
C 29.51939 15.6785 -0.01461
C 30.74579 14.91439 -0.02155
C 30.78041 13.50975 -0.00944
C 31.92717 21.32444 0.00594
C 28.25963 2.12705 0.01177
C 31.97501 19.88514 -0.02474
C 33.25825 17.75647 0.00455
C 0.02509 24.13223 -0.02213
C 1.1965 23.4051 0.01951
C 0.01246 21.32087 -0.01678
C 34.42671 19.90418 0.01223
C 0.02562 17.05279 0.00648
C 34.39566 15.55669 0.02114
C 1.19447 14.88445 -0.02957
C 1.2211 13.50417 0.00343
C 0.0453 12.75559 -0.02656
C 34.37284 25.54876 0.02712
C 34.37706 11.38166 -0.02442
C 1.22359 9.19532 -0.00583
C 34.40233 8.52194 -0.02302
C 34.42151 7.06361 -0.02849
C 1.2131 6.41185 0.02931
C 1.22955 4.98261 0.00628
C 0.00412 4.22809 -0.0345
C 0.01113 2.81909 -0.00931
C 1.22114 2.11788 -0.00939
C 1.21443 0.71725 -0.00468
C 1.21734 10.69408 -0.00027
C 1.25418 26.24728 0.00723
C 1.22545 27.69228 0.03076
C 34.40432 28.45408 -0.05239
C 32.0047 17.04927 -0.00644
C 31.95106 15.66855 -0.01839
C 33.16799 14.89411 0.00137
C 33.16594 13.47549 0.00199
C 31.95545 12.81209 0.04381
C 31.9934 11.35241 0.02806
C 33.19685 10.66911 0.01504
C 33.18097 9.21534 -0.00069
C 31.9602 8.51693 0.04926
C 31.96415 7.11513 -0.03838
C 33.19518 6.46916 0.00349
C 33.20235 4.91945 -0.00323
C 31.97075 4.21719 -0.00841
C 31.93311 2.83132 0.0001
C 33.19638 2.14307 -0.02927
C 33.23399 0.72619 -0.01404
C 31.93176 34.02747 0.01027
C 34.40355 32.65453 0.01831
C 1.24615 31.97274 -0.01037
C 1.22902 30.46766 -0.00439
C 34.42196 29.8403 -0.00598
C 33.24994 19.11705 0.00369
C 3.71123 31.98041 0.02769
C 27.07587 2.8406 -0.00416
C 28.2719 4.94841 0.01799
C 23.40541 10.58501 0.01126
C 23.34528 9.18878 0.01852
C 22.11565 8.49172 -0.00381
C 22.14589 7.08575 0.03046
C 23.4064 6.36665 0.0296
C 23.34893 4.97885 0.03374
C 22.0805 4.24821 -0.02845
C 22.08435 2.81492 -0.03213
C 23.36824 2.12922 0.02239
C 22.09768 11.35876 -0.01185
C 23.41532 0.69889 0.01153
C 24.6107 32.6539 -0.0055
C 25.75681 31.96863 0.01515
C 25.76815 30.49815 -0.00225
C 24.58471 29.83851 0.00071
C 24.59696 28.37374 -0.01107
C 25.859 27.65276 -0.01586
C 25.85405 26.25026 -0.01971
C 24.60784 25.54772 -0.02118
C 24.5636 24.156 0.00733
C 22.11824 34.01223 0.02734
C 22.0937 12.7561 -0.01662
C 23.34936 13.50835 -0.00478
C 23.39057 14.86456 0.01511
C 19.73738 2.83255 -0.02957
C 20.8825 2.11454 -0.04422
C 20.89585 0.72226 0.00654
C 19.6683 34.06206 -0.00703
C 22.15432 32.635 -0.04076
C 23.4272 31.97019 -0.00652
C 23.34624 30.52151 0.0058
C 22.13679 29.82539 -0.00865
C 22.18043 28.39345 0.00675
C 23.3998 27.70197 -0.00311
C 23.39463 26.29221 0.00742
C 22.16228 25.54646 -0.01594
C 22.16813 24.06678 0.0106
C 23.35066 23.44666 -0.01154
C 23.36955 22.0253 -0.01721
C 22.0915 21.34483 -0.02422
C 22.11586 19.87069 0.01277
C 23.34068 19.16696 0.00096
C 23.33179 17.77504 -0.01527
C 22.14154 17.00477 0.01087
C 22.1706 15.61614 0.00199
C 25.80682 23.45212 -0.00178
C 27.0431 4.22012 0.01699
C 25.8201 22.05174 0.00768
C 24.61304 19.8952 0.03005
C 28.31786 26.23967 -0.00037
C 27.02533 25.54456 -0.0032
C 27.06453 24.15295 0.00622
C 28.27711 23.39053 -0.02815
C 28.38962 22.02714 -0.00942
C 27.02316 21.31076 0.00487
C 27.03926 19.86742 0.00826
C 28.27788 19.1701 -0.00294
C 28.2228 17.74641 0.00152
C 28.23048 27.70296 -0.01654
C 27.0327 17.04432 0.01257
C 28.26927 14.89769 0.04185
C 28.31079 13.46492 0.00194
C 26.99211 12.76157 -0.00621
C 27.06353 11.37527 0.02611
C 28.25529 10.66071 0.02198
C 28.27929 9.20022 0.01094
C 27.03892 8.53876 0.00235
C 27.042 7.10128 0.01495
C 28.28216 6.38475 0.01259
C 27.0312 15.61245 0.02316
C 27.07034 28.3651 -0.00218
C 27.07493 29.8304 -0.00802
C 28.27651 30.51786 0.00195
C 25.79381 19.15533 -0.04078
C 25.86976 17.81465 0.02117
C 24.61399 17.06254 0.02737
C 24.59413 15.60742 -0.00498
C 25.81728 14.90639 0.00135
C 25.81986 13.50525 0.03102
C 24.54517 12.77502 0.02555
C 24.60066 11.34645 0.01423
C 25.87283 10.66223 -0.00285
C 25.84912 9.23945 -0.009
C 24.59981 8.50694 -0.01199
C 24.55862 7.08025 -0.00229
C 25.84136 6.43616 -0.00938
C 25.82064 4.9865 -0.0264
C 24.59542 4.26228 -0.01154
C 24.56493 2.82932 0.00684
C 25.81611 2.07895 -0.01052
C 25.83725 0.68706 -0.01679
C 24.59659 0.01073 0.00367
C 27.08712 32.65685 0.04306
C 28.26644 31.98917 0.00996
C 24.6236 21.3484 -0.0276
C 2.43755 32.66668 0.01707
