365
Graphene
C 0.01152 34.05611 0.01295
C 10.99874 10.63223 0.00052
C 11.00746 9.14584 -0.03682
C 9.76725 8.48074 0.01965
C 9.79351 7.11922 0.02058
C 10.99559 6.3345 -0.01957
C 11.06054 4.9706 -0.0108
C 9.86333 4.32057 -0.00368
C 9.73083 2.90104 -0.02696
C 9.85576 11.44301 0.00374
C 10.95895 2.21814 -0.00114
C 9.80585 0.01382 0.00798
C 12.23999 32.75005 0.00422
C 13.46013 31.97129 0.0351
C 13.40696 30.59233 -0.03113
C 12.25349 29.82009 0.02098
C 12.16543 28.45123 0.01848
C 13.39386 27.70708 -0.00619
C 13.55713 26.2422 -0.02162
C 10.96796 0.8023 0.00228
C 9.83509 12.80605 -0.02813
C 11.13582 13.46404 -0.01952
C 11.17375 14.91659 0.05265
C 8.59111 0.75685 0.02894
C 7.37454 0.03312 -0.01789
C 9.76367 32.66347 0.00444
C 11.02586 31.98828 -0.00925
C 11.02815 30.56808 0.01877
C 9.83077 29.84124 0.01363
C 9.81037 28.45557 -0.02162
C 11.00014 27.7121 0.00415
C 11.03918 26.32578 -0.0014
C 9.87128 25.57333 0.02162
C 9.81038 24.16236 0.0076
C 11.11817 23.38102 0.01241
C 11.16082 22.02842 -0.01454
C 9.87982 21.34837 0.01945
C 9.90875 19.8799 0.01416
C 11.13545 19.12617 0.03542
C 11.19179 17.71269 0.02299
C 9.96422 17.01781 0.00244
C 9.95756 15.65578 -0.01717
C 12.26629 25.67444 0.00889
C 12.3047 24.23449 -0.00481
C 13.49305 23.33794 0.00979
C 13.53672 21.87544 0.01443
C 15.923 30.45316 -0.03557
C 14.69512 29.8123 0.03754
C 14.67002 28.38696 0.01739
C 15.95399 27.66289 0.00755
C 15.95134 26.18095 -0.0054
C 14.73514 25.47022 0.00667
C 14.74508 24.11591 0.00143
C 15.93946 23.34495 -0.017
C 15.96909 21.86359 0.00364
C 14.73067 21.21228 -0.00831
C 14.91407 19.7075 -0.02957
C 16.09662 19.12427 -0.04422
C 14.89561 17.08091 0.00654
C 14.74954 15.68652 -0.00703
C 14.81609 10.92886 -0.04076
C 15.70019 9.77778 -0.00652
C 14.78091 8.695 0.0058
C 14.71763 7.23278 -0.00865
C 15.92917 6.41903 0.00675
C 15.96002 31.82374 -0.00111
C 8.51286 2.18344 -0.02971
C 14.76522 32.60121 0.04892
C 13.43943 0.71426 -0.01581
C 12.34599 21.25062 0.03505
C 12.34522 19.88463 -0.02815
C 13.50565 19.09419 -0.04147
C 13.65707 17.67659 -0.05302
C 12.42222 16.88388 0.00213
C 12.46967 15.48354 -0.00066
C 13.73192 14.7799 -0.00289
C 13.65628 13.30084 0.00028
C 12.33912 12.72252 -0.02213
C 12.29408 11.29688 0.03698
C 13.49181 10.68136 -0.00109
C 13.34882 9.17362 -0.00491
C 12.17837 8.42919 0.03338
C 12.19747 7.03321 -0.0258
C 13.49154 6.42425 -0.0331
C 13.5058 4.99702 -0.00316
C 12.28558 4.31589 0.02188
C 12.19739 2.8796 -0.01979
C 13.48436 2.15836 0.02691
C 12.19719 0.08966 0.01452
C 7.30139 2.8603 0.00165
C 7.33697 4.28489 0.02819
C 8.51279 5.02622 -0.00891
C 3.64266 6.4586 0.00848
C 3.57367 5.05077 -0.01303
C 2.36336 4.31424 -0.01378
C 2.36195 2.90231 0.02635
C 3.59559 2.19462 0.0127
C 3.67013 0.71581 0.01396
C 2.40267 0.05392 0.01849
C 4.84336 32.65404 -0.01142
C 6.10533 32.01266 -0.00562
C 6.08025 30.53609 -0.00494
C 4.86164 29.83567 0.00054
C 4.93413 28.47871 0.03007
C 6.12404 27.76731 -0.00095
C 6.07677 26.24004 0.01572
C 4.80704 25.62587 -0.04848
C 4.81554 24.11661 -0.00892
C 6.12498 23.467 -0.01362
C 6.20888 22.05066 -0.0008
C 4.99972 21.30413 0.0288
C 2.42225 7.1634 -0.00049
C 4.94811 19.93108 0.00393
C 2.37977 8.62423 0.00873
C 3.69802 10.72415 -0.03337
C 3.63262 30.51878 -0.00518
C 2.38238 29.81369 0.0086
C 2.39199 28.43443 -0.00643
C 3.61272 27.7355 0.017
C 3.62784 26.33474 -0.03113
C 2.43256 25.65072 -0.02566
C 2.47163 24.12934 -0.00094
C 3.65479 23.39757 0.02322
C 3.64308 22.04754 -0.00725
C 2.39726 21.38231 -0.05697
C 2.42236 20.01963 0.01087
C 3.72434 19.30275 -0.01343
C 3.65124 17.86241 0.00988
C 2.52067 17.1623 0.0276
C 2.44253 15.69784 0.01305
C 3.70692 14.96816 -0.00077
C 3.69977 13.5607 0.03368
C 2.36912 12.82826 -0.02929
C 2.38908 11.46176 -0.00966
C 3.60727 9.33361 0.01227
C 15.98492 4.93385 -0.00311
C 6.19631 19.20699 0.00895
C 4.93635 17.11192 0.02888
C 7.36702 25.60302 -0.01062
C 7.34883 24.16392 -0.00033
C 8.51909 23.39749 0.03589
C 8.59946 22.02474 -0.02759
C 7.42412 21.28447 0.0402
C 7.46366 19.86763 0.00572
C 8.73716 19.14206 0.03592
C 8.68015 17.73105 0.00406
C 7.40271 17.06318 0.00943
C 7.37825 15.63538 0.02841
C 8.69898 15.10822 -0.01111
C 8.60122 13.58587 -0.01275
C 7.38096 12.81523 0.00985
C 7.36968 11.44682 -0.02245
C 8.55174 10.63807 -0.00428
C 8.56327 9.226 0.03101
C 7.32373 8.57226 -0.01536
C 7.26305 7.15583 -0.02689
C 8.54507 6.39328 -0.01046
C 8.64824 26.29573 0.01364
C 6.17504 17.7955 0.00685
C 8.57031 27.75922 -0.00719
C 7.33115 29.89449 0.02339
C 4.9292 15.64891 -0.00482
C 6.17612 14.92548 -0.01384
C 6.17536 13.50011 0.03693
C 4.88964 12.79221 0.01745
C 4.88624 11.37282 0.00488
C 6.05733 10.67161 -0.01004
C 6.06361 9.24402 -0.02896
C 4.8726 8.51976 -0.00131
C 4.8146 7.11164 -0.01118
C 6.06653 6.38316 -0.014
C 6.10322 4.98886 0.02147
C 4.77055 4.32606 0.00373
C 4.85243 2.87882 -0.00191
C 6.07884 2.15933 0.00438
C 6.08489 0.72104 0.01291
C 4.88593 34.07496 0.00093
C 7.30372 32.67445 0.00057
C 8.56409 31.97728 -0.01634
C 8.60548 30.51814 -0.00334
C 7.33475 28.46867 0.01641
C 3.64349 31.94513 -0.00074
C 14.77001 4.24071 0.00742
C 15.97173 2.13125 0.0106
C 29.44236 0.02314 0.00346
C 32.00094 32.80412 0.01713
C 33.16212 32.05231 -0.01694
C 33.12426 30.66661 0.01428
C 31.9116 29.87286 -0.02142
C 31.96359 28.44321 0.0544
C 33.20708 27.72081 0.00026
C 33.15253 26.3421 0.00682
C 30.74505 0.81522 0.00307
C 31.8989 25.55185 -0.01779
C 33.15043 23.43231 0.01927
C 33.15257 22.04562 0.01574
C 31.98801 21.38329 -0.02383
C 31.88011 19.92706 -0.01429
C 33.09771 19.17877 -0.0136
C 33.21553 17.76511 0.00594
C 31.87731 16.94683 -0.02474
C 31.89617 15.43288 0.00369
C 31.91632 24.14384 0.03794
C 30.79552 2.1906 0.00716
C 29.53605 2.77709 0.02108
C 29.53245 4.22676 0.0103
C 30.68775 30.6095 -0.02049
C 29.38185 29.87159 -0.01854
C 29.4182 28.44004 -0.01415
C 30.64875 27.78012 -0.03039
C 30.6363 26.3241 0.01836
C 29.41306 25.52321 0.03531
C 29.41708 24.15242 -0.00669
C 30.71406 23.50791 0.0101
C 30.8127 22.08176 0.01705
C 29.45236 21.30271 -0.0405
C 29.47417 19.90337 -0.01303
C 30.65832 19.19448 -0.01461
C 30.88867 17.83967 -0.02155
C 30.69082 10.72772 -0.00944
C 30.60601 9.2019 -0.03735
C 29.42523 8.46225 -0.00971
C 29.26157 7.16636 0.01518
C 30.62202 6.3779 0.01908
C 30.77565 5.01535 0.07705
C 33.26087 14.88725 0.00455
C 33.17423 13.46519 -0.00644
C 31.97225 12.89421 -0.01839
C 31.82392 11.48815 0.00137
C 34.35904 19.88858 0.01951
C 1.19676 19.17944 -0.01678
C 1.21389 17.79225 0.01223
C 0.0096 17.08525 0.00648
C 0.00322 15.73819 0.02114
C 1.2537 15.04701 -0.02957
C 1.15402 13.62119 0.00343
C 34.42641 12.75815 -0.02656
C 34.37539 11.3464 -0.02442
C 1.15742 10.61279 -0.00027
C 1.14187 9.31608 -0.00583
C 34.34752 8.58398 -0.02302
C 34.39016 7.1446 -0.02849
C 1.20108 6.47857 0.02931
C 1.18955 5.0492 0.00628
C 34.3402 4.28441 -0.0345
C 34.37231 2.8819 -0.00931
C 1.11434 2.21486 -0.00939
C 1.17418 0.77175 -0.00468
C 34.35468 21.34811 -0.02213
C 30.75901 31.9976 0.03265
C 1.17717 22.082 0.02712
C 34.37397 24.21098 0.03076
C 33.14452 10.68236 0.00199
C 33.10306 9.28617 0.04381
C 31.91817 8.57027 0.02806
C 31.88898 7.09196 0.01504
C 33.13619 6.45178 -0.00069
C 33.17465 5.03169 0.04926
C 31.97666 4.3718 -0.03838
C 32.0149 2.89977 0.00349
C 33.23568 2.15263 -0.00323
C 33.19964 0.75199 -0.00841
C 31.93363 0.05488 0.0001
C 0.02526 32.66563 -0.02927
C 1.2095 31.9658 -0.01404
C 1.23184 30.57077 0.01027
C 34.36817 29.93454 0.01831
C 34.3977 28.38853 -0.01037
C 1.19937 27.6532 -0.00439
C 1.15247 26.28116 -0.00598
C 34.38243 25.58234 -0.05239
C 1.20413 23.45961 0.00723
C 29.53466 32.72491 0.00261
C 26.99001 34.06394 0.02326
C 28.19927 0.69742 0.00924
C 20.89707 31.92347 -0.0055
C 20.78043 30.4422 0.01515
C 19.58739 29.70609 -0.00225
C 19.57397 28.31448 0.00071
C 20.77811 27.59091 -0.01107
C 20.79646 26.18307 -0.01586
C 19.53209 25.46778 -0.01971
C 19.63047 24.04229 -0.02118
C 20.79323 23.28718 0.00733
C 20.84267 4.91009 -0.00178
C 19.74394 4.18684 0.00768
C 19.7015 2.693 -0.0276
C 20.93468 2.07186 0.03005
C 20.90532 0.70669 -0.04078
C 19.66455 34.0203 0.02117
C 22.10585 32.60565 0.02737
C 23.33013 31.90529 -0.00498
C 23.29733 30.48619 0.00135
C 22.059 29.68735 0.03102
C 19.63894 32.68849 0.02734
C 22.06176 28.26965 0.02555
C 17.22655 34.05896 0.01153
C 18.40001 2.09411 -0.03213
C 15.94367 0.74829 -0.01154
C 14.74652 34.06393 -0.01721
C 17.16927 32.62247 -0.02422
C 18.38814 31.90606 0.01277
C 18.38631 30.46762 0.00096
C 17.1917 29.75689 -0.01527
C 17.10687 28.38557 0.01087
C 18.32808 27.68149 0.00199
C 18.34476 26.21639 0.01511
C 17.16681 25.49454 -0.00478
C 17.13813 24.08547 -0.01662
C 18.37275 23.3931 -0.01185
C 18.31739 21.94884 0.01126
C 17.20974 21.11545 0.01852
C 17.18393 6.94154 -0.00381
C 18.40012 6.32076 0.03046
C 18.39531 4.97317 0.0296
C 17.24795 4.23384 0.03374
C 17.16562 2.80736 -0.02845
C 18.3741 0.67932 0.02239
C 14.67688 2.88631 -0.01594
C 23.32163 27.61066 0.01423
C 22.09473 25.47712 -0.009
C 25.73063 0.67904 0.00152
C 24.57828 34.05535 0.01257
C 26.99247 32.66371 0.02316
C 28.29366 31.99348 0.04185
C 28.19309 30.54203 0.00194
C 26.99861 29.86106 -0.00621
C 27.00896 28.43325 0.02611
C 28.23807 27.7152 0.02198
C 28.17812 26.2737 0.01094
C 26.95134 25.60291 0.00235
C 27.01698 24.12241 0.01495
C 28.18113 23.48253 0.01259
C 28.24359 22.08682 0.01799
C 26.98009 21.44817 0.01699
C 28.08776 6.20824 -0.00416
C 28.34062 4.87112 0.01177
C 27.06555 4.16674 0.04266
C 27.02608 2.70185 0.01324
C 28.28205 2.00093 0.0014
C 25.83661 2.13868 -0.00294
C 23.26779 26.22365 -0.00285
C 24.59425 2.91517 0.00826
C 25.94937 5.04845 -0.00942
C 22.04094 23.96599 -0.01199
C 23.29599 23.37488 -0.00229
C 23.39835 4.91208 -0.00938
C 22.13385 4.32083 -0.0264
C 22.09186 2.82248 -0.01154
C 23.38151 2.14718 0.00684
C 23.37292 0.71149 -0.01052
C 22.12533 33.99781 -0.01679
C 24.57164 32.61884 0.00367
C 25.75587 31.95075 0.04306
C 25.78713 30.52723 0.00996
C 24.51437 29.83051 0.00195
C 24.51412 28.39417 -0.00802
C 25.72851 27.68866 -0.00218
C 25.6914 26.19747 -0.01654
C 24.42735 25.61424 -0.00037
C 24.49591 24.11288 -0.0032
C 25.74326 23.46703 0.00622
C 25.84054 22.13085 -0.02815
C 24.60151 4.51219 0.00487
C 2.35876 32.76128 0.01465
