298
Graphene
C 0.03465 34.0725 0.01295
C 12.19429 7.09854 0.03754
C 13.5922 6.38306 0.01739
C 13.55307 4.98296 0.00755
C 12.31855 4.32466 -0.0054
C 12.33495 2.86063 0.00667
C 13.55214 2.09793 0.00143
C 12.39439 8.60015 -0.03557
C 13.49911 0.72853 -0.017
C 14.70947 32.6504 -0.00831
C 15.93442 31.94503 -0.02957
C 15.98687 30.45843 -0.04422
C 14.82119 29.79818 0.00654
C 14.79501 28.36112 -0.00703
C 16.0186 27.67284 -0.04076
C 12.25808 0.02116 0.00364
C 13.57138 9.08645 -0.00111
C 12.28418 25.4331 0.04892
C 13.4944 26.18531 0.01452
C 9.78042 8.507 -0.00066
C 9.86469 7.0103 -0.00289
C 11.04839 6.31031 0.00028
C 11.06764 4.98044 -0.02213
C 9.84081 4.29901 0.03698
C 9.87461 2.90545 -0.00109
C 11.06898 2.29212 -0.00491
C 11.00656 0.87607 0.03338
C 9.83437 0.05176 -0.0258
C 12.28002 32.71776 -0.0331
C 13.49732 31.89334 -0.00316
C 13.59415 30.50805 0.02188
C 12.32229 29.90949 -0.01979
C 12.31668 28.43297 0.02691
C 13.52679 27.66116 -0.01581
C 16.01268 26.12855 -0.00652
C 11.07272 8.94913 0.00213
C 14.72639 25.47229 0.0058
C 16.1927 23.72739 0.00675
C 17.39114 24.12637 0.03046
C 18.46319 8.91149 0.0296
C 17.21715 8.55247 0.03374
C 17.18559 7.14163 -0.02845
C 18.52148 6.41793 -0.03213
C 18.383 4.94825 0.02239
C 17.23766 25.50942 -0.00381
C 17.16321 4.22069 0.01153
C 18.47922 2.24004 -0.0055
C 18.42832 0.74555 0.01515
C 17.14637 0.08322 -0.00225
C 19.62545 32.64604 0.00071
C 20.8868 31.98471 -0.01107
C 20.80174 30.49303 -0.01586
C 17.25881 2.90892 0.02734
C 18.5194 26.32446 0.01852
C 18.46862 27.72889 0.01126
C 17.2217 28.45353 -0.01185
C 16.1373 10.62144 -0.00311
C 15.98055 9.40831 0.00742
C 14.75578 8.51621 -0.01594
C 14.81554 7.07853 0.0106
C 15.95312 6.33668 -0.01154
C 15.97439 4.88687 -0.01721
C 14.73656 4.23501 -0.02422
C 14.78787 2.8492 0.01277
C 16.0213 2.13874 0.00096
C 15.88062 0.65837 -0.01527
C 14.66758 34.01293 0.01087
C 17.12118 32.76969 0.00199
C 18.35091 31.98241 0.01511
C 18.36221 30.57163 -0.00478
C 17.23965 29.80534 -0.01662
C 14.95255 24.11826 -0.00865
C 9.86175 25.77233 -0.05302
C 11.12025 26.16019 -0.04147
C 11.12539 27.74923 -0.02815
C 2.46027 7.08295 -0.02689
C 3.72654 6.33173 -0.01046
C 3.65293 4.9605 -0.00891
C 2.46089 4.26001 0.02819
C 2.4962 2.82584 0.00165
C 3.654 2.07255 -0.02971
C 2.42129 8.5327 -0.01536
C 3.67596 0.66566 0.02894
C 4.88456 32.61846 0.00444
C 6.11778 31.99788 -0.00925
C 6.18986 30.55291 0.01877
C 4.92647 29.77245 0.01363
C 4.91795 28.39946 -0.02162
C 6.2184 27.67995 0.00415
C 2.45597 34.07415 -0.01789
C 3.69344 9.21452 0.03101
C 3.64487 10.65757 -0.00428
C 2.43631 11.33121 -0.02245
C 3.69451 30.51334 -0.00719
C 2.42882 29.8324 0.01364
C 2.52754 28.41258 -0.01062
C 3.6759 27.73523 -0.00033
C 3.6999 26.32415 0.03589
C 2.471 25.5767 -0.02759
C 2.47804 24.1145 0.0402
C 3.81262 23.37747 0.00572
C 3.5588 22.00719 0.03592
C 2.42084 21.24248 0.00406
C 2.40635 19.90788 0.00943
C 2.30926 17.09381 0.02841
C 2.33211 15.71243 -0.01111
C 3.7559 13.29966 -0.01275
C 2.46134 12.80514 0.00985
C 6.22004 26.22508 -0.0014
C 4.9157 25.65847 0.02162
C 4.70634 24.30936 0.0076
C 4.81187 11.38891 0.01241
C 8.62922 9.10933 -0.00114
C 7.40005 8.55659 0.00228
C 7.42085 7.07852 0.00798
C 8.55839 6.41392 0.00422
C 8.54884 4.93368 0.0351
C 7.40356 4.27084 -0.03113
C 7.34585 2.83831 0.02098
C 8.62108 2.13531 0.01848
C 8.63904 0.73076 -0.00619
C 7.34903 34.06914 -0.02162
C 9.87246 32.70433 0.00889
C 11.09088 32.03586 -0.00481
C 11.11221 30.5634 0.00979
C 9.8128 29.86039 0.01443
C 9.8918 28.45564 0.03505
C 7.37804 25.60102 -0.02696
C 19.64231 29.889 -0.01971
C 8.63511 26.19584 -0.00368
C 7.41988 28.41772 -0.01957
C 6.02182 10.68428 -0.01454
C 6.12995 9.29564 0.01945
C 4.93853 8.57826 0.01416
C 4.91405 7.06704 0.03542
C 6.17465 6.37917 0.02299
C 6.15996 4.94997 0.00244
C 4.92911 4.23343 -0.01717
C 4.97268 2.85777 0.05265
C 6.18009 2.15533 -0.01952
C 6.06326 0.72327 -0.02813
C 4.86215 0.02734 0.00374
C 7.33427 32.71839 0.00052
C 8.58503 32.00213 -0.03682
C 8.64708 30.60229 0.01965
C 7.34241 29.90622 0.02058
C 8.56171 27.7426 -0.0108
C 19.64635 28.33382 -0.02118
C 20.87237 27.60452 0.00733
C 20.85339 26.01631 -0.00178
C 31.77537 21.15673 -0.02383
C 31.94448 19.82907 -0.01429
C 33.14585 19.20259 -0.0136
C 33.0838 17.75628 0.00594
C 32.01777 16.97932 -0.02474
C 32.0598 15.65435 0.00369
C 33.09918 22.08732 0.01574
C 33.15288 14.88237 0.00455
C 32.02367 12.75378 -0.01839
C 31.91227 11.47615 0.00137
C 33.13164 10.6898 0.00199
C 33.14201 9.26879 0.04381
C 31.91843 8.62066 0.02806
C 31.90548 7.1691 0.01504
C 33.10959 13.53636 -0.00644
C 33.17474 23.50197 0.01927
C 31.95976 24.23915 0.03794
C 31.94746 25.63597 -0.01779
C 29.44636 7.13866 0.01518
C 30.65683 6.44217 0.01908
C 30.70037 5.00442 0.07705
C 29.50764 4.32106 0.0103
C 29.46305 2.83036 0.02108
C 30.71726 2.16808 0.00716
C 30.69404 0.76339 0.00307
C 29.48729 34.07186 0.00346
C 32.01424 32.68553 0.01713
C 33.17798 32.00715 -0.01694
C 33.15063 30.58563 0.01428
C 31.88416 29.81929 -0.02142
C 31.91347 28.46448 0.0544
C 33.18199 27.75071 0.00026
C 33.26578 26.29174 0.00682
C 33.18184 6.49382 -0.00069
C 33.1697 5.02762 0.04926
C 31.99541 4.32176 -0.03838
C 32.03349 2.78338 0.00349
C 34.42774 15.65191 0.02114
C 1.21781 14.96298 -0.02957
C 1.1909 13.52158 0.00343
C 0.02888 12.80183 -0.02656
C 34.40573 11.36735 -0.02442
C 1.17165 10.6841 -0.00027
C 1.16222 9.19081 -0.00583
C 34.42975 8.55021 -0.02302
C 34.41518 7.11465 -0.02849
C 1.24996 6.44004 0.02931
C 1.24096 4.99217 0.00628
C 0.00931 4.29852 -0.0345
C 34.42889 2.87911 -0.00931
C 1.24004 2.10749 -0.00939
C 1.27716 0.73425 -0.00468
C 34.32568 17.08099 0.00648
C 29.45201 8.61202 -0.00971
C 1.1977 17.72458 0.01223
C 34.40336 19.90915 0.01951
C 33.26608 2.13872 -0.00323
C 33.20879 0.72926 -0.00841
C 31.99082 0.0454 0.0001
C 0.01792 32.67035 -0.02927
C 1.18102 31.942 -0.01404
C 1.22909 30.55865 0.01027
C 34.38987 29.87191 0.01831
C 0.02625 28.42046 -0.01037
C 1.21155 27.71639 -0.00439
C 1.2162 26.3632 -0.00598
C 34.41185 25.60849 -0.05239
C 0.01933 24.16115 0.03076
C 1.26013 23.40566 0.00723
C 1.14718 22.07233 0.02712
C 34.38551 21.33805 -0.02213
C 1.1969 19.21311 -0.01678
C 3.68244 31.92343 0.01641
C 30.68818 9.25786 -0.03735
C 29.34667 11.20758 -0.02155
C 23.40722 6.6025 -0.01052
C 23.3344 4.97113 -0.01679
C 22.12542 4.22818 0.00367
C 22.07056 2.72197 0.04306
C 23.36129 2.08364 0.00996
C 23.33381 0.69803 0.00195
C 22.08741 6.85404 0.00684
C 22.12486 34.06808 -0.00802
C 25.786 31.91256 -0.01654
C 25.79522 30.50384 -0.00037
C 24.50729 29.83596 -0.0032
C 24.56203 28.41548 0.00622
C 25.83564 27.72571 -0.02815
C 25.79111 26.16234 -0.00942
C 24.5637 32.53388 -0.00218
C 22.12056 25.75909 -0.01154
C 23.4434 26.24837 -0.0264
C 23.3326 27.72245 -0.00938
C 19.57925 25.53346 0.00768
C 19.71507 8.52223 -0.0276
C 19.66353 7.18889 0.03005
C 20.87062 6.39754 -0.04078
C 20.94694 4.90191 0.02117
C 19.69618 4.26637 0.02737
C 19.69529 2.83041 -0.00498
C 20.8834 2.10039 0.00135
C 20.86673 0.63738 0.03102
C 19.56796 34.04581 0.02555
C 22.07473 32.67111 0.01423
C 23.35605 31.89242 -0.00285
C 23.27772 30.44224 -0.009
C 22.00639 29.78324 -0.01199
C 22.04582 28.28113 -0.00229
C 24.61252 25.54201 0.00487
C 24.60447 7.20941 0.00826
C 25.70906 6.37719 -0.00294
C 25.75947 4.98485 0.00152
C 26.99103 2.86839 0.02326
C 28.2726 2.16925 0.00261
C 28.28292 0.71618 0.03265
C 27.00682 34.06677 -0.02049
C 29.49081 32.69714 -0.01854
C 30.75843 32.01026 -0.01415
C 30.69694 30.56709 -0.03039
C 29.43169 29.88213 0.01836
C 29.51067 28.45654 0.03531
C 30.71742 27.74427 -0.00669
C 30.75353 26.35594 0.0101
C 29.51957 25.58158 0.01705
C 29.57604 24.24958 -0.0405
C 30.675 23.40287 -0.01303
C 30.70781 22.05899 -0.01461
C 27.00227 4.3043 0.00924
C 30.61595 10.75654 -0.00944
C 28.23477 4.97698 0.0014
C 26.92804 7.15261 0.04266
C 24.55253 4.2999 0.01257
C 24.6186 2.85093 0.02316
C 25.77431 2.11622 0.04185
C 25.73221 0.69048 0.00194
C 24.6362 34.01428 -0.00621
C 27.07901 32.64088 0.02611
C 28.26002 31.90469 0.02198
C 28.21379 30.55386 0.01094
C 27.02003 29.7721 0.00235
C 27.04772 28.41436 0.01495
C 28.30805 27.72683 0.01259
C 28.26135 26.28094 0.01799
C 27.10445 25.64702 0.01699
C 28.22689 9.12707 -0.00416
C 27.11107 8.39961 0.01177
C 28.21154 6.4793 0.01324
C 2.42536 32.58174 0.02339
