304
Graphene
C 34.32744 34.07238 0.01295
C 13.55128 19.0899 -0.01581
C 13.58969 0.80565 0.01452
C 12.39429 0.19473 0.04892
C 14.75391 32.57789 -0.00111
C 16.05036 31.89487 -0.03557
C 15.92551 30.5071 0.03754
C 14.74114 29.80013 0.01739
C 14.75327 28.42528 0.00755
C 15.95269 27.70927 -0.0054
C 15.93803 26.20398 0.00667
C 14.634 25.60309 0.00143
C 14.75243 24.10692 -0.017
C 15.97575 23.32404 0.00364
C 16.05017 21.85695 -0.00831
C 14.84597 21.04408 -0.02957
C 12.31045 19.55025 0.02691
C 14.8044 19.54242 -0.04422
C 12.27294 21.12314 -0.01979
C 13.58979 23.33535 -0.00316
C 10.96816 21.81505 0.03505
C 9.73898 21.21146 -0.02815
C 9.84448 19.67999 -0.04147
C 11.05674 18.99424 -0.05302
C 11.13018 0.7074 0.00213
C 9.92312 0.25389 -0.00066
C 12.30329 32.70819 -0.00289
C 13.50279 31.97188 0.00028
C 13.52665 30.55906 -0.02213
C 12.26416 29.86478 0.03698
C 12.3062 28.43837 -0.00109
C 13.54503 27.69746 -0.00491
C 13.49143 26.25811 0.03338
C 12.2064 25.49061 -0.0258
C 12.25596 24.11151 -0.0331
C 13.62586 21.82973 0.02188
C 11.04567 23.31165 0.01443
C 16.2749 18.92902 0.00654
C 16.02595 0.66815 -0.04076
C 16.9175 2.79849 -0.01185
C 18.29442 2.11037 0.01126
C 18.51997 0.66105 0.01852
C 17.26513 34.05645 -0.00381
C 19.72193 32.63829 0.03046
C 20.91959 31.94675 0.0296
C 21.02851 30.45627 0.03374
C 19.67623 29.72701 -0.02845
C 19.69727 28.35129 -0.03213
C 20.90198 27.57001 0.02239
C 20.92577 26.17327 0.01153
C 19.79931 25.3784 0.02734
C 19.49736 23.99531 -0.0055
C 19.76184 21.36952 0.01515
C 19.93785 19.78937 -0.00225
C 17.01239 4.24853 -0.01662
C 15.89191 2.02945 -0.00703
C 18.12719 5.04407 -0.00478
C 17.85485 17.86235 0.00199
C 14.79191 34.02297 -0.00652
C 17.19045 32.62673 0.0058
C 18.47356 31.89318 -0.00865
C 18.41003 30.44557 0.00675
C 17.16708 29.88253 -0.00311
C 17.2775 28.33397 0.00742
C 18.52207 27.6025 -0.01594
C 18.47499 26.16299 0.0106
C 17.19278 25.55072 -0.01154
C 17.15151 24.15043 -0.01721
C 18.3973 23.37552 -0.02422
C 18.51099 21.94418 0.01277
C 17.33992 21.24271 0.00096
C 17.29322 19.80124 -0.01527
C 18.56479 19.03554 0.01087
C 18.34532 6.35057 0.01511
C 21.16568 19.09806 0.00071
C 9.77979 24.05618 0.00979
C 11.06588 26.24744 0.00889
C 2.45241 8.28236 -0.01275
C 2.49178 7.00477 0.00985
C 3.11373 5.81695 -0.02245
C 2.42635 4.52111 -0.00428
C 2.42113 3.00181 0.03101
C 3.58439 2.19926 -0.01536
C 3.68798 0.80543 -0.02689
C 2.4506 34.06677 -0.01046
C 4.76841 32.68424 -0.00891
C 6.04973 31.98882 0.02819
C 6.13471 30.5828 0.00165
C 4.91039 29.85851 -0.02971
C 4.8352 28.50122 0.02894
C 6.0784 27.76657 -0.01789
C 6.20354 26.38036 0.00444
C 2.46473 11.42728 -0.01111
C 4.86938 25.61051 -0.00925
C 2.3823 12.82282 0.02841
C 3.81172 14.88971 0.00406
C 3.64279 30.56015 0.00093
C 2.29722 29.85809 0.00057
C 2.39422 28.45033 -0.01634
C 3.65247 27.72435 -0.00334
C 3.61682 26.35335 0.02339
C 2.39947 25.66341 0.01641
C 2.33387 24.30565 -0.00719
C 3.57332 23.51104 0.01364
C 3.48025 22.01087 -0.01062
C 2.23817 21.42697 -0.00033
C 2.22482 19.9654 0.03589
C 3.4546 19.27748 -0.02759
C 3.4985 17.86184 0.0402
C 2.37897 17.07712 0.00572
C 2.50618 15.58712 0.03592
C 3.57535 13.63005 0.00943
C 9.7931 25.56437 -0.00481
C 4.85524 24.16398 0.01877
C 6.06959 22.0199 -0.02162
C 8.50033 23.3754 0.02058
C 8.56159 21.9364 -0.01957
C 7.30799 21.26277 -0.0108
C 7.33917 19.88376 -0.00368
C 8.55923 19.20772 -0.02696
C 8.27799 17.84093 -0.00114
C 7.28372 17.0331 0.00228
C 8.53921 0.80364 0.00798
C 7.36653 0.05468 0.00422
C 9.81617 32.84158 0.0351
C 11.04336 32.04369 -0.03113
C 11.01425 30.63211 0.02098
C 9.7986 29.9073 0.01848
C 9.80113 28.4889 -0.00619
C 11.03565 27.72606 -0.02162
C 7.28496 24.14706 0.01965
C 6.05063 23.50213 0.01363
C 7.36458 25.61485 -0.03682
C 8.58822 27.70071 0.00374
C 4.8126 21.3035 0.00415
C 4.76278 19.92596 -0.0014
C 6.07867 19.17584 0.02162
C 6.16155 17.73781 0.0076
C 4.80567 17.1659 0.01241
C 4.82802 15.82675 -0.01454
C 4.88815 2.77956 0.01945
C 6.02752 2.07797 0.01416
C 6.11086 0.76631 0.03542
C 4.89379 0.09392 0.02299
C 7.25202 32.74774 0.00244
C 8.58597 32.09169 -0.01717
C 8.63135 30.63168 0.05265
C 7.36492 29.94126 -0.01952
C 7.36615 28.43724 -0.02813
C 8.62618 26.29735 0.00052
C 22.19027 18.26948 -0.01107
C 18.42164 16.52453 -0.01586
C 19.30672 15.69097 -0.01971
C 33.0504 30.58882 0.01574
C 33.1708 23.5401 -0.02383
C 33.03625 22.15399 -0.01429
C 33.05267 19.17352 -0.0136
C 32.87446 17.8351 0.00594
C 31.78577 17.06548 -0.02474
C 31.8558 15.77057 0.00369
C 33.08722 15.01719 0.00455
C 33.11517 13.51153 -0.00644
C 31.91015 12.83408 -0.01839
C 31.95972 11.42879 0.00137
C 33.24954 10.70489 0.00199
C 33.10252 9.27376 0.04381
C 31.8684 8.55796 0.02806
C 31.94478 7.13398 0.01504
C 32.97523 31.94892 0.01927
C 33.08758 6.4352 -0.00069
C 31.80423 32.70684 0.03794
C 30.68979 0.85614 0.00682
C 30.27981 32.08242 -0.00971
C 29.48287 15.67178 0.01518
C 30.68304 14.96198 0.01908
C 30.68256 13.60702 0.07705
C 29.49566 12.95714 0.0103
C 29.53412 11.45178 0.02108
C 30.7189 10.72324 0.00716
C 30.64273 9.28031 0.00307
C 29.38976 8.66826 0.00346
C 29.41522 7.19029 0.01713
C 30.61161 6.48488 -0.01694
C 30.62459 5.04094 0.01428
C 29.39036 4.40538 -0.02142
C 29.42394 2.95869 0.0544
C 30.623 2.23453 0.00026
C 29.47495 0.19331 -0.01779
C 29.21048 32.80062 -0.03735
C 33.10392 5.08416 0.04926
C 31.85273 2.92118 0.00349
C 34.29284 15.69185 0.02114
C 1.25411 14.94619 -0.02957
C 1.15387 13.54056 0.00343
C 34.3064 12.81504 -0.02656
C 0.05277 11.34422 -0.02442
C 1.37244 10.65946 -0.00027
C 1.25919 9.21242 -0.00583
C 34.35426 8.59114 -0.02302
C 34.34876 7.15446 -0.02849
C 1.12781 6.43284 0.02931
C 1.078 5.0134 0.00628
C 34.29284 4.33977 -0.0345
C 34.36131 2.90673 -0.00931
C 1.20524 2.25921 -0.00939
C 1.21606 0.7761 -0.00468
C 34.20624 17.12335 0.00648
C 31.90903 4.31447 -0.03838
C 1.03814 17.83246 0.01223
C 34.11703 19.95861 0.01951
C 33.12483 2.15774 -0.00323
C 33.12863 0.73924 -0.00841
C 31.85678 0.01418 0.0001
C 34.219 32.72418 -0.02927
C 1.06162 32.0429 -0.01404
C 1.03328 30.53508 0.01027
C 34.20863 29.77276 0.01831
C 34.41844 28.45168 -0.01037
C 1.09884 27.71454 -0.00439
C 1.154 26.27888 -0.00598
C 34.3166 25.66729 -0.05239
C 34.21994 24.3699 0.03076
C 1.08576 23.57075 0.00723
C 1.00209 22.15916 0.02712
C 34.13814 21.438 -0.02213
C 0.96372 19.23096 -0.01678
C 27.11145 34.05715 -0.00944
C 28.23418 0.89176 -0.02155
C 28.22988 2.24582 -0.01461
C 22.24097 28.31071 -0.0264
C 23.40301 27.65334 -0.01154
C 22.76623 17.00403 0.00684
C 21.8997 15.72112 -0.01052
C 23.09461 14.93326 -0.01679
C 23.23889 13.46613 0.00367
C 21.94956 12.76032 0.04306
C 22.0922 11.35566 0.00996
C 23.2913 10.67365 0.00195
C 23.31837 9.21246 -0.00802
C 22.04074 8.50109 -0.00218
C 22.03274 7.07165 -0.01654
C 23.26507 6.48146 -0.00037
C 23.22045 4.95894 -0.0032
C 22.07266 4.27013 0.00622
C 22.22032 29.70468 -0.00938
C 21.984 2.79618 -0.02815
C 23.50593 30.43437 -0.00229
C 22.18289 32.69239 -0.009
C 20.53795 15.10234 -0.02118
C 20.68207 13.58588 0.00733
C 19.56072 12.69118 -0.00178
C 19.80871 11.37763 0.00768
C 20.88959 10.55617 -0.0276
C 20.81218 9.16842 0.03005
C 19.44001 8.56515 -0.04078
C 19.47592 7.07768 0.02117
C 20.81114 6.42002 0.02737
C 20.69703 4.98815 -0.00498
C 19.48114 4.1909 0.00135
C 19.50523 2.83896 0.03102
C 20.80853 2.07538 0.02555
C 20.89335 0.67372 0.01423
C 19.71978 34.0431 -0.00285
C 23.48667 31.97755 -0.01199
C 23.29337 2.09908 -0.00942
C 23.31468 0.6736 0.00487
C 22.10751 34.07958 0.00826
C 24.62453 0.00279 0.00924
C 27.5088 32.7298 0.02326
C 26.85051 15.66531 0.00261
C 28.16522 15.17257 0.03265
C 28.22666 13.6231 -0.02049
C 26.93805 12.96412 -0.01854
C 26.97808 11.50296 -0.01415
C 28.23799 10.82449 -0.03039
C 28.17706 9.37937 0.01836
C 26.98145 8.68705 0.03531
C 26.94346 7.29216 -0.00669
C 28.14713 6.52112 0.0101
C 28.18265 5.14578 0.01705
C 26.94835 4.35113 -0.0405
C 26.96671 2.96988 -0.01303
C 25.82514 0.69971 0.0014
C 25.80821 2.17437 0.01324
C 24.54007 2.83326 0.04266
C 24.53447 4.21634 0.01177
C 24.80456 32.65399 -0.00294
C 26.28121 31.89382 0.00152
C 26.01751 30.45432 0.01257
C 24.9167 29.7504 0.02316
C 24.40951 28.43172 0.04185
C 24.16306 15.8667 0.00194
C 25.56474 15.22428 -0.00621
C 3.59403 31.9503 0.01291
C 25.6912 13.72383 0.02611
C 24.57361 11.35524 0.01094
C 25.79043 10.69059 0.00235
C 25.81115 9.30409 0.01495
C 24.6101 8.58093 0.01259
C 24.50739 7.15342 0.01799
C 25.7511 6.46991 0.01699
C 25.68955 4.9824 -0.00416
C 24.53176 12.8342 0.02198
C 2.2846 32.68357 0.00438
