387
Graphene
C 0.0137 0.02913 0.01295
C 9.8681 4.24719 0.00415
C 9.81422 2.90481 -0.0014
C 11.07504 2.16524 0.02162
C 11.09005 0.6738 0.0076
C 9.869 0.03602 0.01241
C 12.3176 32.65718 -0.01454
C 13.47933 31.92943 0.01945
C 13.47706 30.54096 0.01416
C 12.26419 29.72864 0.03542
C 11.06528 4.93963 -0.02162
C 12.37374 28.41755 0.02299
C 13.56094 26.23991 -0.01717
C 12.34293 25.53338 0.05265
C 12.32356 24.10052 -0.01952
C 13.49546 23.4793 -0.02813
C 13.50846 21.95557 0.00374
C 12.2976 21.24258 0.00052
C 12.26678 12.75109 -0.03682
C 12.3561 11.31165 0.01965
C 13.49573 10.60842 0.02058
C 13.52157 27.7129 0.00244
C 13.52294 9.18733 -0.01957
C 11.0536 6.43253 0.01363
C 9.76684 8.5709 -0.00925
C 9.83838 29.87457 0.03592
C 9.85168 28.42633 0.00406
C 11.08248 27.70242 0.00943
C 11.07744 26.28796 0.02841
C 9.81372 25.57688 -0.01111
C 9.85053 24.15775 -0.01275
C 11.09344 23.45765 0.00985
C 11.07478 22.08198 -0.02245
C 9.80174 21.32248 -0.00428
C 9.82604 7.16377 0.01877
C 9.85772 19.83239 0.03101
C 11.08136 17.77399 -0.02689
C 9.89042 17.07624 -0.01046
C 9.95055 15.60829 -0.00891
C 11.05562 14.8557 0.02819
C 11.08184 13.53381 0.00165
C 9.85225 12.7594 -0.02971
C 9.78352 11.34883 0.02894
C 11.07773 10.65383 -0.01789
C 11.12669 9.23674 0.00444
C 11.04783 19.1465 -0.01536
C 12.3153 8.53761 -0.0108
C 12.27508 7.17712 -0.00368
C 13.51883 6.39551 -0.02696
C 15.96882 2.05772 -0.00491
C 15.97659 0.6734 0.03338
C 14.76778 0.03529 -0.0258
C 17.20578 32.63294 -0.0331
C 18.39752 31.98333 -0.00316
C 18.44039 30.56056 0.02188
C 17.25197 29.80462 -0.01979
C 17.26989 28.47286 0.02691
C 18.45534 27.66055 -0.01581
C 14.76488 2.80883 -0.00109
C 18.45382 26.27021 0.01452
C 17.25215 24.09747 -0.00111
C 17.16335 11.32979 -0.03557
C 18.44315 10.65611 0.03754
C 18.4655 9.17488 0.01739
C 17.21995 8.48813 0.00755
C 17.21728 7.12825 -0.0054
C 18.4103 6.38379 0.00667
C 18.425 4.96708 0.00143
C 17.17041 4.29583 -0.017
C 17.20894 25.56855 0.04892
C 14.74498 4.2752 0.03698
C 16.02278 4.9418 -0.02213
C 16.03322 6.38488 0.00028
C 13.53741 4.98599 -0.00114
C 12.30004 4.30132 0.00228
C 12.32603 2.86032 0.00798
C 13.50426 2.14757 0.00422
C 13.53296 0.65721 0.0351
C 12.27062 34.02933 -0.03113
C 14.74776 32.64801 0.02098
C 16.02266 31.95427 0.01848
C 15.97149 30.5328 -0.00619
C 14.71972 29.85361 -0.02162
C 14.71469 28.43181 0.00889
C 15.96702 27.69641 -0.00481
C 15.9279 26.27018 0.00979
C 14.76585 25.5871 0.01443
C 14.78472 24.10567 0.03505
C 15.98615 23.43061 -0.02815
C 14.75043 11.31657 -0.04147
C 15.94598 10.66475 -0.05302
C 15.98354 9.19203 0.00213
C 14.71091 8.49162 -0.00066
C 14.78341 7.07653 -0.00289
C 11.10177 30.53735 0.00572
C 17.19414 2.91077 0.00364
C 11.09336 31.9188 0.0402
C 7.34662 0.01901 0.03589
C 3.6707 4.98124 -0.00643
C 2.46149 4.31508 0.017
C 2.48539 2.78958 -0.03113
C 3.67524 2.14435 -0.02566
C 3.646 0.7327 -0.00094
C 2.42167 34.05734 0.02322
C 4.92226 32.64593 -0.00725
C 6.14839 32.01086 -0.05697
C 6.16432 30.5062 0.01087
C 3.71848 6.41723 0.0086
C 4.93715 29.82912 -0.01343
C 6.13975 27.72239 0.0276
C 6.08656 26.34455 0.01305
C 4.92619 25.60202 -0.00077
C 4.9198 24.13788 0.03368
C 6.14306 23.41594 -0.02929
C 6.11272 22.04138 -0.00966
C 4.93409 21.25702 -0.03337
C 4.97192 19.90003 0.01227
C 6.16013 19.18489 0.00873
C 4.97217 28.3898 0.00988
C 6.16368 17.74456 -0.00049
C 2.4184 7.07973 -0.00518
C 3.67204 9.30574 0.01465
C 3.68245 30.50808 0.03284
C 2.47338 29.78114 -0.04307
C 2.42601 28.39263 0.03189
C 3.73195 27.68097 0.00031
C 3.65648 26.25592 -0.003
C 2.48489 25.55295 0.01402
C 2.37653 24.11659 0.02379
C 3.67404 23.52136 0.00907
C 3.65143 22.05766 0.00643
C 2.43806 8.52871 -0.00074
C 2.46989 21.34465 -0.01509
C 3.70955 19.11575 0.02374
C 3.75305 17.76433 0.00402
C 2.49426 17.08333 0.0073
C 2.45393 15.65577 0.0174
C 3.66792 14.89664 0.03828
C 3.65543 13.43504 0.01226
C 2.41297 12.78466 -0.00279
C 2.4957 11.37333 0.01996
C 3.69861 10.62913 -0.03996
C 2.47558 19.89182 0.03267
C 4.93255 17.08394 0.00848
C 4.90003 15.62745 -0.01303
C 6.19385 14.92042 -0.01378
C 7.39571 21.31173 -0.01004
C 7.39557 19.94738 -0.02896
C 8.57825 19.09405 -0.00131
C 8.60801 17.71733 -0.01118
C 7.33095 17.04876 -0.014
C 7.33188 15.57972 0.02147
C 8.6191 14.91973 0.00373
C 8.60868 13.53523 -0.00191
C 7.38836 12.80607 0.00438
C 8.61738 21.96851 0.00488
C 7.35438 11.4002 0.01291
C 8.60119 9.2573 0.00057
C 7.40974 8.55496 -0.01634
C 7.38597 7.10251 -0.00334
C 8.626 6.41204 0.02339
C 8.64946 5.02013 0.01641
C 7.39544 4.27598 -0.00719
C 7.34118 2.89222 0.01364
C 8.65388 2.15545 -0.01062
C 8.61289 0.76383 -0.00033
C 8.60817 10.67685 0.00093
C 8.63358 23.46046 0.01745
C 7.35075 24.20058 0.03693
C 7.33516 25.58195 -0.01384
C 6.18013 13.50028 0.02635
C 4.87448 12.78577 0.0127
C 4.9293 11.38601 0.01396
C 6.1662 10.65934 0.01849
C 6.18345 9.22499 -0.01142
C 4.89134 8.5432 -0.00562
C 4.90612 7.1191 -0.00494
C 6.17809 6.39209 0.00054
C 6.10102 4.95152 0.03007
C 4.88013 4.28074 -0.00095
C 4.89461 2.82314 0.01572
C 6.13861 2.11456 -0.04848
C 6.10409 0.74584 -0.00892
C 4.86955 0.01612 -0.01362
C 7.41362 32.73478 -0.0008
C 8.62732 31.91762 0.0288
C 8.60475 30.56454 0.00393
C 7.34217 29.82708 0.00895
C 7.38462 28.41757 0.00685
C 8.59052 27.71178 0.02888
C 8.52771 26.26815 -0.00482
C 9.79989 32.65591 -0.02759
C 3.68047 31.88265 0.04505
C 18.46282 2.18551 -0.00831
C 17.16545 0.00596 -0.04422
C 30.74037 5.00753 0.07705
C 29.508 4.23244 0.0103
C 29.50906 2.84954 0.02108
C 30.74156 2.14096 0.00716
C 30.78352 0.69508 0.00307
C 29.53975 0.02158 0.00346
C 31.93579 32.63449 0.01713
C 33.19198 31.95234 -0.01694
C 33.19657 30.52736 0.01428
C 29.47961 12.86333 0.01908
C 32.02231 29.8007 -0.02142
C 33.22001 27.65655 0.00026
C 33.24324 26.24486 0.00682
C 31.96382 25.57237 -0.01779
C 31.97486 24.16723 0.03794
C 33.22934 23.42444 0.01927
C 33.20207 21.99328 0.01574
C 31.99192 21.29096 -0.02383
C 31.9612 19.91119 -0.01429
C 33.24638 19.2168 -0.0136
C 32.00318 28.33531 0.0544
C 33.22324 17.73259 0.00594
C 30.75416 13.50169 0.01518
C 29.50683 15.67429 -0.03735
C 27.06352 2.801 0.01324
C 28.24527 2.12546 0.0014
C 28.3272 0.65822 0.00924
C 27.03825 34.02152 0.02326
C 29.46272 32.66922 0.00261
C 30.70328 31.9037 0.03265
C 30.71517 30.51272 -0.02049
C 29.50028 29.8331 -0.01854
C 29.52435 28.37292 -0.01415
C 30.76138 14.90557 -0.00971
C 30.76883 27.73095 -0.03039
C 29.55906 25.53147 0.03531
C 29.51578 24.06183 -0.00669
C 30.75002 23.43049 0.0101
C 30.79051 21.98286 0.01705
C 29.51159 21.29965 -0.0405
C 29.52374 19.86535 -0.01303
C 30.73412 19.19058 -0.01461
C 30.74606 17.76458 -0.02155
C 29.54213 17.09129 -0.00944
C 30.73421 26.26007 0.01836
C 32.01129 17.0925 -0.02474
C 31.95765 15.62179 0.00369
C 33.21822 14.8931 0.00455
C 34.42286 21.29112 -0.02213
C 0.04237 19.92352 0.01951
C 1.27157 19.17476 -0.01678
C 1.20406 17.70605 0.01223
C 34.42674 17.04256 0.00648
C 34.42941 15.6225 0.02114
C 1.25175 14.96136 -0.02957
C 1.1826 13.43739 0.00343
C 34.404 12.73731 -0.02656
C 1.19907 22.02366 0.02712
C 0.03723 11.36717 -0.02442
C 1.1743 9.1963 -0.00583
C 34.37145 8.53148 -0.02302
C 34.41383 7.06937 -0.02849
C 1.19029 6.3669 0.02931
C 1.21068 4.90823 0.00628
C 34.42815 4.28694 -0.0345
C 0.01379 2.86441 -0.00931
C 1.25666 2.13673 -0.00939
C 1.24774 0.69732 -0.00468
C 1.18775 10.64611 -0.00027
C 1.17043 23.45894 0.00723
C 34.42662 24.17023 0.03076
C 0.03189 25.54229 -0.05239
C 33.22726 13.46374 -0.00644
C 31.9324 12.81214 -0.01839
C 31.9691 11.37027 0.00137
C 33.16921 10.69934 0.00199
C 33.1522 9.25399 0.04381
C 31.95735 8.47256 0.02806
C 31.96305 7.17541 0.01504
C 33.20119 6.39474 -0.00069
C 33.22138 4.974 0.04926
C 31.95181 4.24719 -0.03838
C 31.95822 2.85056 0.00349
C 33.18636 2.13673 -0.00323
C 33.18834 0.75594 -0.00841
C 31.98055 34.03108 0.0001
C 34.42661 32.63651 -0.02927
C 1.18628 31.95002 -0.01404
C 1.2308 30.54428 0.01027
C 0.02783 29.81839 0.01831
C 34.3805 28.36428 -0.01037
C 1.19805 27.66503 -0.00439
C 1.25397 26.27252 -0.00598
C 27.04867 4.20775 0.04266
C 18.41378 0.74596 -0.02957
C 27.04078 12.75169 0.01177
C 28.29175 14.90514 0.01699
C 23.39027 30.52144 0.01852
C 22.13044 29.78205 -0.00381
C 22.15324 28.33695 0.03046
C 23.35801 27.66188 0.0296
C 23.33025 26.24513 0.03374
C 22.13878 25.54586 -0.02845
C 22.16787 24.10214 -0.03213
C 23.36323 23.49465 0.02239
C 23.32871 22.02145 0.01153
C 23.33585 31.9134 0.01126
C 23.34193 19.07992 0.02734
C 23.30116 13.52208 0.01515
C 22.16725 12.76286 -0.00225
C 22.1344 11.39941 0.00071
C 23.30324 10.63854 -0.01107
C 23.30371 9.1744 -0.01586
C 22.14835 8.52337 -0.01971
C 22.12731 7.07304 -0.02118
C 23.36617 6.35304 0.00733
C 23.39342 4.91092 -0.00178
C 23.39861 14.88696 -0.0055
C 22.09818 4.27057 0.00768
C 22.14628 32.58763 -0.01185
C 20.87171 0.68597 -0.00478
C 19.65271 32.70531 0.00654
C 20.93113 31.88156 -0.00703
C 20.99084 30.48587 -0.04076
C 19.68152 29.79758 -0.00652
C 19.67792 28.38744 0.0058
C 20.91568 27.68688 -0.00865
C 20.92227 26.25056 0.00675
C 19.70592 25.56618 -0.00311
C 19.68139 24.11674 0.00742
C 19.66454 0.02542 -0.01662
C 20.94255 23.39359 -0.01594
C 20.94229 10.6815 -0.01154
C 20.91656 9.27201 -0.01721
C 19.66386 8.5456 -0.02422
C 19.6965 7.02243 0.01277
C 20.86906 6.37153 0.00096
C 20.91147 4.98658 -0.01527
C 19.66237 4.29159 0.01087
C 19.66039 2.82797 0.00199
C 20.902 2.13991 0.01511
C 19.66543 11.35993 0.0106
C 22.12482 2.84749 -0.0276
C 23.38642 2.15659 0.03005
C 23.32479 0.75113 -0.04078
C 25.83499 2.10215 -0.0032
C 25.8446 0.74971 0.00622
C 24.62629 34.0708 -0.02815
C 27.10134 32.63055 -0.00942
C 28.21662 31.90432 0.00487
C 28.29402 30.54719 0.00826
C 27.029 29.8067 -0.00294
C 27.16795 28.43108 0.00152
C 28.27475 27.71797 0.01257
C 24.60647 2.8184 -0.00037
C 28.2859 26.23856 0.02316
C 26.97851 24.15116 0.00194
C 28.21931 23.44963 -0.00621
C 28.25914 22.01834 0.02611
C 27.03398 21.29571 0.02198
C 27.08968 19.8396 0.01094
C 28.22245 19.12945 0.00235
C 28.27231 17.74412 0.01495
C 27.02681 17.06065 0.01259
C 27.03104 15.58812 0.01799
C 27.02993 25.56824 0.04185
C 24.59597 4.26683 -0.01654
C 25.85749 4.96065 -0.00218
C 24.57206 11.39508 -0.00802
C 22.12781 34.00911 0.02117
C 24.6345 32.66165 0.02737
C 25.8442 31.95566 -0.00498
C 25.82804 30.54829 0.00135
C 24.66906 29.87447 0.03102
C 24.59275 28.39141 0.02555
C 25.79346 27.6409 0.01423
C 25.82011 26.23558 -0.00285
C 24.58953 25.5881 -0.009
C 24.56859 24.15151 -0.01199
C 25.8092 23.42873 -0.00229
C 25.89088 22.06223 -0.00938
C 24.60486 21.32939 -0.0264
C 24.59643 19.89507 -0.01154
C 25.80041 19.12456 0.00684
C 25.80726 17.75179 -0.01052
C 24.63657 17.03879 -0.01679
C 24.54035 15.62407 0.00367
C 25.81667 14.89982 0.04306
C 25.82125 13.47127 0.00996
C 24.5791 12.75603 0.00195
C 28.29205 13.46156 -0.00416
C 2.4901 32.62833 -0.04999
