388
Graphene
C 0.01373 0.03633 0.01295
C 16.04204 10.61703 -0.02162
C 15.93317 9.28597 0.00415
C 14.74587 8.5626 -0.0014
C 14.79112 7.07997 0.02162
C 16.03336 6.42797 0.0076
C 15.99264 4.98964 0.01241
C 14.70603 4.22371 -0.01454
C 14.70391 2.82108 0.01945
C 15.94629 2.03888 0.01416
C 14.76507 11.34236 0.01363
C 16.0458 0.73494 0.03542
C 17.28016 32.6182 0.00244
C 18.50185 31.918 -0.01717
C 18.50758 30.49758 0.05265
C 17.1637 29.8614 -0.01952
C 17.23736 28.35737 -0.02813
C 18.42826 27.5923 0.00374
C 18.37403 26.20222 0.00052
C 18.54625 23.34431 -0.03682
C 18.36041 21.99424 0.01965
C 14.75425 0.03026 0.02299
C 17.24051 21.2179 0.02058
C 14.73299 12.81996 0.01877
C 15.90803 14.97041 0.00444
C 12.30127 11.40356 0.00572
C 13.54433 10.68391 0.03592
C 13.53757 9.26018 0.00406
C 12.31067 8.53651 0.00943
C 12.28459 7.12302 0.02841
C 13.54244 6.40083 -0.01111
C 13.5594 5.005 -0.01275
C 12.30982 4.35949 0.00985
C 12.27032 2.87234 -0.02245
C 15.94898 13.57057 -0.00925
C 13.52649 2.07292 -0.00428
C 12.32194 34.04691 -0.01536
C 14.78648 32.70926 -0.02689
C 16.06126 31.93214 -0.01046
C 15.99621 30.49145 -0.00891
C 14.70986 19.8705 0.02819
C 16.0052 19.14429 0.00165
C 15.92072 17.74033 -0.02971
C 14.77651 17.03941 0.02894
C 14.81076 15.63808 -0.01789
C 13.5332 0.73604 0.03101
C 17.22879 19.9008 -0.01957
C 18.40281 19.25936 -0.0108
C 18.44209 17.78765 -0.00368
C 19.6605 24.05539 -0.00109
C 20.90709 23.37475 -0.00491
C 20.91499 22.04068 0.03338
C 19.68477 21.27016 -0.0258
C 19.62569 19.89693 -0.0331
C 20.87774 19.21091 -0.00316
C 20.93628 17.74574 0.02188
C 19.74183 17.11238 -0.01979
C 19.69369 15.60541 0.02691
C 19.68307 25.55993 0.03698
C 20.907 14.90186 -0.01581
C 19.71578 12.731 0.04892
C 19.6267 11.34809 -0.00111
C 20.87404 10.61823 -0.03557
C 20.93142 9.17673 0.03754
C 19.70875 8.48083 0.01739
C 19.64966 7.12979 0.00755
C 20.86143 6.37616 -0.0054
C 20.86466 4.974 0.00667
C 19.60452 4.31033 0.00143
C 20.89589 13.52185 0.01452
C 20.90358 26.28402 -0.02213
C 20.96681 27.65894 0.00028
C 19.71153 28.37733 -0.00289
C 17.23194 17.05812 -0.02696
C 17.21751 15.65176 -0.00114
C 18.49483 14.9385 0.00228
C 18.44473 13.4947 0.00798
C 17.20307 12.7475 0.00422
C 17.1924 11.31919 0.0351
C 18.43388 10.63449 -0.03113
C 18.4928 9.23571 0.02098
C 17.18116 8.52341 0.01848
C 17.18394 7.11951 -0.00619
C 18.39513 6.41955 -0.02162
C 18.42202 4.97024 0.00889
C 17.14789 4.26422 -0.00481
C 17.19984 2.85976 0.00979
C 18.48462 2.11733 0.01443
C 18.4103 0.69145 0.03505
C 17.2056 34.00867 -0.02815
C 19.64887 32.65798 -0.04147
C 20.91128 31.93395 -0.05302
C 20.86338 30.50615 0.00213
C 19.69724 29.78071 -0.00066
C 12.34096 12.79639 0.0402
C 19.64794 2.90004 -0.017
C 13.54788 13.45237 -0.02759
C 12.25742 15.64482 -0.00033
C 2.46533 4.27719 0.0086
C 2.47783 2.89187 -0.00643
C 3.70541 2.08586 0.017
C 3.67993 0.72842 -0.03113
C 2.4435 0.01999 -0.02566
C 4.89482 32.65191 -0.00094
C 6.18319 31.98839 0.02322
C 4.91246 21.33728 -0.00725
C 4.95145 19.84482 -0.05697
C 3.71915 5.00515 -0.00518
C 6.1684 19.18107 0.01087
C 4.92896 17.06281 0.00988
C 4.84749 15.70506 0.0276
C 6.15133 14.94926 0.01305
C 6.13564 13.4802 -0.00077
C 4.88792 12.78072 0.03368
C 4.88596 11.39091 -0.02929
C 6.1809 10.59689 -0.00966
C 6.19575 9.25445 -0.03337
C 4.90337 8.51529 0.01227
C 6.22457 17.74348 -0.01343
C 4.94293 7.10373 0.00873
C 3.63362 6.37694 -0.00074
C 2.43138 8.61563 -0.03996
C 3.69235 30.53128 0.04505
C 2.51241 29.7912 0.03284
C 2.43661 28.38177 -0.04307
C 3.71135 27.64261 0.03189
C 2.41903 25.54342 0.00031
C 2.51429 24.15204 -0.003
C 3.54772 23.37867 0.01402
C 3.69703 22.11717 0.02379
C 2.40646 21.36999 0.00907
C 2.42905 7.11399 0.01465
C 2.49994 19.94466 0.00643
C 3.69539 17.68323 0.03267
C 2.50443 17.05278 0.02374
C 2.5048 15.67404 0.00402
C 3.68905 14.94563 0.0073
C 3.66098 13.48817 0.0174
C 2.40519 12.71587 0.03828
C 2.42575 11.33167 0.01226
C 3.72492 10.66113 -0.00279
C 3.69411 9.21146 0.01996
C 3.67645 19.18791 -0.01509
C 6.16507 6.45218 -0.00049
C 6.12359 4.98507 0.00848
C 4.98578 4.26105 -0.01303
C 9.87461 15.6034 0.00488
C 11.07022 14.96156 -0.01004
C 11.02545 13.40628 -0.02896
C 9.81756 12.76259 -0.00131
C 9.77949 11.3682 -0.01118
C 11.00056 10.58893 -0.014
C 11.06571 9.22051 0.02147
C 9.82195 8.55919 0.00373
C 9.82528 7.14695 -0.00191
C 9.87194 17.00389 0.01745
C 11.05275 6.43735 0.00438
C 9.82735 4.29229 0.00093
C 9.86246 2.86197 0.00057
C 11.05658 2.13689 -0.01634
C 11.07586 0.71262 -0.00334
C 9.88176 0.08186 0.02339
C 12.31512 32.67971 0.01641
C 13.58296 19.25388 -0.00719
C 13.57363 17.7713 0.01364
C 12.30996 17.12805 -0.01062
C 11.0594 5.01611 0.01291
C 11.11872 17.7893 0.03693
C 7.33602 0.06783 -0.01384
C 8.5858 0.73845 -0.00482
C 4.94038 2.86467 -0.01378
C 6.08687 2.14664 0.02635
C 6.14713 0.75009 0.0127
C 4.94202 34.07031 0.01396
C 7.33186 32.62755 0.01849
C 8.59019 17.78394 -0.01142
C 7.36975 17.07799 -0.00562
C 7.39713 15.6176 -0.00494
C 8.55395 14.89538 0.00054
C 8.55986 13.5189 0.03007
C 7.36619 12.74947 -0.00095
C 7.37952 11.34621 0.01572
C 8.5416 10.69709 -0.04848
C 8.57426 9.26 -0.00892
C 7.41727 8.58269 -0.01362
C 7.39727 7.07283 -0.0008
C 8.60818 6.42518 0.0288
C 8.56786 4.97987 0.00393
C 7.387 4.27762 0.00895
C 7.34956 2.88934 0.00685
C 8.52314 2.13704 0.02888
C 13.46749 14.91719 0.03589
C 20.88183 2.09529 0.00364
C 20.92496 0.7683 -0.00831
C 19.62481 0.01299 -0.02957
C 30.75234 5.02387 0.07705
C 29.51109 4.2325 0.0103
C 29.50581 2.83064 0.02108
C 30.73966 2.15074 0.00716
C 30.79104 0.69856 0.00307
C 29.53699 0.04063 0.00346
C 31.94706 32.6304 0.01713
C 33.18503 31.9529 -0.01694
C 33.19615 30.52782 0.01428
C 30.69225 6.46309 0.01908
C 32.02559 29.79551 -0.02142
C 33.21759 27.6389 0.00026
C 33.2559 26.23505 0.00682
C 31.95674 25.58781 -0.01779
C 31.97579 24.16994 0.03794
C 33.22377 23.42889 0.01927
C 33.19822 21.99786 0.01574
C 31.97539 21.28956 -0.02383
C 31.9619 19.91279 -0.01429
C 33.25634 19.22535 -0.0136
C 31.99229 28.30959 0.0544
C 33.24128 17.73435 0.00594
C 29.52024 7.12112 0.01518
C 30.73201 9.27847 -0.03735
C 30.75059 30.4609 0.01324
C 29.45958 29.82053 0.0014
C 29.56625 28.34177 0.00924
C 30.71854 27.62626 0.02326
C 30.68963 26.26996 0.00261
C 29.47312 25.505 0.03265
C 29.47317 24.14227 -0.02049
C 30.73547 23.44572 -0.01854
C 30.77443 21.97474 -0.01415
C 29.53996 8.52063 -0.00971
C 29.53326 21.33979 -0.03039
C 30.80129 19.13862 0.03531
C 30.74639 17.66506 -0.00669
C 29.52038 17.03424 0.0101
C 29.55783 15.58897 0.01705
C 30.73213 14.90099 -0.0405
C 30.75079 13.48073 -0.01303
C 29.50766 12.79775 -0.01461
C 29.50018 11.37567 -0.02155
C 30.76675 10.72287 -0.00944
C 29.50394 19.87013 0.01836
C 32.02124 17.08576 -0.02474
C 31.95738 15.63829 0.00369
C 33.21702 14.89402 0.00455
C 34.42384 21.29197 -0.02213
C 0.05853 19.92928 0.01951
C 1.2739 19.17074 -0.01678
C 1.20652 17.70577 0.01223
C 34.42212 17.05375 0.00648
C 0.00584 15.62584 0.02114
C 1.27168 14.97511 -0.02957
C 1.17889 13.41178 0.00343
C 34.39739 12.7441 -0.02656
C 1.19964 22.03215 0.02712
C 0.04669 11.35598 -0.02442
C 1.14952 9.19948 -0.00583
C 34.35888 8.533 -0.02302
C 34.40955 7.0614 -0.02849
C 1.18912 6.36986 0.02931
C 1.22238 4.89976 0.00628
C 34.42706 4.30354 -0.0345
C 0.01228 2.87194 -0.00931
C 1.24725 2.13749 -0.00939
C 1.24557 0.70257 -0.00468
C 1.17553 10.62196 -0.00027
C 1.1544 23.46108 0.00723
C 34.43189 24.17429 0.03076
C 0.0379 25.5296 -0.05239
C 33.21475 13.46544 -0.00644
C 31.93435 12.82121 -0.01839
C 31.97458 11.39124 0.00137
C 33.17999 10.71251 0.00199
C 33.15759 9.257 0.04381
C 31.93393 8.53103 0.02806
C 31.96638 7.15108 0.01504
C 33.20607 6.39528 -0.00069
C 33.21909 4.97699 0.04926
C 31.95091 4.24758 -0.03838
C 31.95185 2.83797 0.00349
C 33.18405 2.14897 -0.00323
C 33.1873 0.77373 -0.00841
C 31.98086 34.01876 0.0001
C 34.42456 32.638 -0.02927
C 1.18515 31.94489 -0.01404
C 1.23023 30.5534 0.01027
C 0.04058 29.82265 0.01831
C 34.37151 28.34217 -0.01037
C 1.18202 27.67768 -0.00439
C 1.265 26.25519 -0.00598
C 30.72663 31.88235 0.04266
C 29.47673 32.67631 0.01177
C 27.08781 34.02322 -0.00416
C 28.29933 0.69839 0.01699
C 23.39561 6.38796 0.01852
C 23.33591 4.94561 -0.00381
C 22.15127 4.19535 0.03046
C 22.12484 2.80999 0.0296
C 23.33574 2.10971 0.03374
C 23.36891 0.70747 -0.02845
C 22.18229 34.05681 -0.03213
C 24.58581 32.72505 0.02239
C 25.74581 31.93879 0.01153
C 22.07928 7.06341 0.01126
C 25.81631 30.45436 0.02734
C 24.55374 28.40796 0.01515
C 25.84797 27.68899 -0.00225
C 25.8338 26.27643 0.00071
C 24.49918 25.55941 -0.01107
C 24.53252 24.0816 -0.01586
C 25.83773 23.42208 -0.01971
C 25.8242 21.98721 -0.02118
C 24.63843 21.23358 0.00733
C 24.61843 19.82008 -0.00178
C 24.61641 29.78958 -0.0055
C 22.12412 8.50843 -0.01185
C 23.37567 9.16306 -0.01662
C 23.32653 10.62558 -0.00478
C 22.1184 32.68596 -0.04422
C 23.41569 31.91108 0.00654
C 23.43946 30.48612 -0.00703
C 22.11434 29.7787 -0.04076
C 22.16088 28.38822 -0.00652
C 23.38995 27.69537 0.0058
C 23.36525 26.24753 -0.00865
C 22.18105 25.56588 0.00675
C 22.10139 24.12599 -0.00311
C 23.36168 23.43209 0.00742
C 23.42178 21.98145 -0.01594
C 22.20463 21.31711 0.0106
C 22.15497 19.9297 -0.01154
C 23.35804 19.19771 -0.01721
C 23.38473 17.66949 -0.02422
C 22.11562 17.03136 0.01277
C 22.14298 15.63047 0.00096
C 23.31948 14.9599 -0.01527
C 23.34443 13.48211 0.01087
C 22.13958 12.79642 0.00199
C 22.08754 11.37471 0.01511
C 25.81861 19.15878 0.00768
C 3.733 31.94458 -0.04999
C 25.79618 17.81673 -0.0276
C 24.57901 15.57267 -0.04078
C 28.32554 22.06299 -0.0032
C 27.09913 21.29598 0.00622
C 27.09603 19.84618 -0.02815
C 28.22102 19.11922 -0.00942
C 28.30047 17.75973 0.00487
C 27.02564 17.02843 0.00826
C 27.1814 15.67356 -0.00294
C 28.26875 14.9353 0.00152
C 28.27331 13.48027 0.01257
C 28.28837 23.41054 -0.00037
C 26.96753 12.77656 0.02316
C 28.22577 10.66811 0.00194
C 28.23719 9.2325 -0.00621
C 27.02191 8.51427 0.02611
C 27.08099 7.06383 0.02198
C 28.20982 6.33851 0.01094
C 28.27462 4.96244 0.00235
C 27.01844 4.26788 0.01495
C 27.01693 2.81525 0.01259
C 28.24517 2.15255 0.01799
C 27.04072 11.35753 0.04185
C 27.04813 24.13305 -0.01654
C 27.03621 25.58747 -0.00218
C 28.2987 26.18878 -0.00802
C 25.84851 14.91917 0.02117
C 25.82387 13.49202 0.02737
C 24.61113 12.80239 -0.00498
C 24.6889 11.45041 0.00135
C 25.83022 10.64545 0.03102
C 25.77207 9.15954 0.02555
C 24.57014 8.48084 0.01423
C 24.58672 7.12364 -0.00285
C 25.78702 6.40624 -0.009
C 25.82398 4.95081 -0.01199
C 24.64311 4.30238 -0.00229
C 24.62398 2.87301 -0.00938
C 25.81286 2.14508 -0.0264
C 25.81749 0.66274 -0.01154
C 24.59565 0.06374 0.00684
C 27.06045 32.63256 -0.01052
C 28.25371 31.9228 -0.01679
C 28.25318 30.50834 0.00367
C 27.04813 29.7962 0.04306
C 27.03098 28.39082 0.00996
C 28.29767 27.68036 0.00195
C 24.61093 17.01769 0.03005
C 2.46181 32.70708 -0.03291
