384
Graphene
C 34.41708 0.08385 0.01295
C 14.75709 28.42295 0.02162
C 16.07508 27.68771 0.0076
C 16.05928 26.25239 0.01241
C 14.90033 25.56277 -0.01454
C 16.14053 14.95627 0.01945
C 16.22941 13.73888 0.01416
C 15.77973 4.78633 0.03542
C 14.59832 2.7093 0.02299
C 15.93279 2.16945 0.00244
C 14.76358 29.82894 -0.0014
C 15.95229 0.61811 -0.01717
C 17.25967 32.65867 -0.01952
C 18.50296 31.90902 -0.02813
C 18.43038 30.51975 0.00374
C 17.20447 29.88274 0.00052
C 17.21238 28.43803 -0.03682
C 18.40179 27.6026 0.01965
C 18.464 26.17119 0.02058
C 17.16234 25.47517 -0.01957
C 17.10153 24.067 -0.0108
C 14.74169 0.07138 0.05265
C 18.28827 23.43036 -0.00368
C 15.94817 30.64104 0.00415
C 14.66947 32.75864 0.01363
C 9.91079 17.02037 0.00943
C 9.82132 15.66092 0.02841
C 11.13837 15.24503 -0.01111
C 9.92395 2.79203 -0.01275
C 11.00909 2.13479 0.00985
C 11.1952 0.80094 -0.02245
C 9.93449 0.08796 -0.00428
C 12.33059 32.69439 0.03101
C 13.51282 31.96485 -0.01536
C 15.89858 32.07676 -0.02162
C 13.51151 30.53152 -0.02689
C 12.33546 28.39827 -0.00891
C 13.59203 27.66198 0.02819
C 13.57064 26.04219 0.00165
C 12.25196 25.52052 -0.02971
C 12.38644 15.37924 0.02894
C 13.52414 14.96977 -0.01789
C 13.4875 2.20347 0.00444
C 13.55592 0.83377 -0.00925
C 12.35374 0.09248 0.01877
C 12.26678 29.78999 -0.01046
C 9.80223 24.33737 0.00406
C 18.46786 21.99438 -0.02696
C 17.23967 15.7256 0.00228
C 20.89899 21.96571 0.03338
C 19.48009 21.22407 -0.0258
C 19.69489 19.80593 -0.0331
C 20.89154 19.19146 -0.00316
C 20.92251 17.75357 0.02188
C 19.57685 17.11379 -0.01979
C 19.72025 15.62984 0.02691
C 20.97353 14.89272 -0.01581
C 20.97979 13.47835 0.01452
C 20.88959 23.32633 -0.00491
C 19.67968 12.81268 0.04892
C 20.87711 10.626 -0.03557
C 20.87622 9.13927 0.03754
C 19.62615 8.44919 0.01739
C 19.78494 7.06581 0.00755
C 20.97315 6.34601 -0.0054
C 20.87794 4.87667 0.00667
C 19.55867 4.31628 0.00143
C 19.58527 2.87015 -0.017
C 20.87631 2.13064 0.00364
C 19.65218 11.28014 -0.00111
C 18.42021 17.81086 -0.00114
C 19.69121 24.14175 -0.00109
C 20.92928 26.16837 -0.02213
C 18.43607 15.01739 0.00798
C 18.50717 13.55122 0.00422
C 17.15936 12.7737 0.0351
C 17.30606 11.40573 -0.03113
C 18.33915 10.51394 0.02098
C 18.36782 9.02804 0.01848
C 17.30483 7.18263 -0.00619
C 18.4288 6.41059 -0.02162
C 18.32043 5.01793 0.00889
C 19.71687 25.47419 0.03698
C 17.05871 4.2574 -0.00481
C 18.36953 2.11017 0.01443
C 18.41535 0.70585 0.03505
C 17.23643 33.99956 -0.02815
C 19.65525 32.64802 -0.04147
C 20.88743 31.81613 -0.05302
C 20.88853 30.42066 0.00213
C 19.68166 29.68925 -0.00066
C 19.61097 28.27651 -0.00289
C 20.85553 27.575 0.00028
C 17.12936 2.80648 0.00979
C 20.82463 0.71864 -0.00831
C 9.7904 25.65297 0.03592
C 11.14912 27.70515 0.0402
C 3.61685 4.98894 -0.02566
C 2.41003 4.28747 -0.00094
C 2.48398 2.89561 0.02322
C 3.65116 2.2252 -0.00725
C 3.62785 0.70566 -0.05697
C 2.40651 0.01997 0.01087
C 4.84929 32.7487 -0.01343
C 6.10182 32.05621 0.00988
C 6.14299 30.59148 0.0276
C 3.59185 6.42918 -0.03113
C 4.87971 29.90106 0.01305
C 6.07876 27.73733 0.03368
C 6.02997 26.34728 -0.02929
C 4.90717 25.5737 -0.00966
C 4.88013 24.18457 -0.03337
C 6.13347 23.45825 0.01227
C 6.13937 21.9985 0.00873
C 4.89612 21.30049 -0.00049
C 4.99193 19.91714 0.00848
C 6.24423 19.19437 -0.01303
C 4.89978 28.47527 -0.00077
C 6.19528 17.79928 -0.01378
C 2.38118 7.05839 0.017
C 3.67107 9.22238 0.0086
C 3.65534 30.5495 0.00031
C 2.45729 29.81827 -0.003
C 2.4463 28.44238 0.01402
C 3.6952 27.68861 0.02379
C 3.58936 26.2931 0.00907
C 2.46002 25.54077 0.00643
C 2.35091 24.10325 -0.01509
C 3.70942 23.49515 0.03267
C 3.60572 21.97085 0.02374
C 2.41547 8.48218 -0.00643
C 2.39522 21.25747 0.00402
C 3.76713 19.12346 0.0174
C 3.77203 17.82375 0.03828
C 2.49543 17.08738 0.01226
C 2.47422 15.65343 -0.00279
C 3.68725 14.94126 0.01996
C 3.65734 13.51052 -0.03996
C 2.46144 12.7634 0.01465
C 2.44314 11.31257 -0.00074
C 3.64252 10.61146 -0.00518
C 2.4945 19.8864 0.0073
C 11.08895 26.2496 0.00572
C 5.00448 17.0795 0.02635
C 6.07244 14.89109 0.01396
C 8.71108 22.05746 -0.00131
C 7.48418 21.40255 -0.01118
C 7.53494 19.94534 -0.014
C 8.42351 19.02513 0.02147
C 8.67737 17.6602 0.00373
C 7.41592 16.9037 -0.00191
C 7.32837 15.58426 0.00438
C 8.64405 14.85107 0.01291
C 8.41575 13.52929 0.00093
C 8.75896 23.42631 -0.02896
C 7.41468 12.7621 0.00057
C 7.3428 2.96218 -0.00334
C 8.63502 2.28229 0.02339
C 8.64202 0.80757 0.01641
C 7.38969 0.06214 -0.00719
C 9.91175 32.73778 0.01364
C 11.0907 32.00069 -0.01062
C 11.08616 30.60089 -0.00033
C 9.8974 29.8215 0.03589
C 9.90537 28.42883 -0.02759
C 7.35491 4.31126 -0.01634
C 4.88029 15.69693 0.0127
C 7.38744 24.15351 -0.01004
C 8.50044 26.34777 0.01745
C 6.17462 13.39899 0.01849
C 4.86492 12.79498 -0.01142
C 4.98568 11.40599 -0.00562
C 6.07938 10.59274 -0.00494
C 6.09503 9.38417 0.00054
C 4.93193 8.59 0.03007
C 4.86717 7.12832 -0.00095
C 6.044 6.44384 0.01572
C 6.26461 5.16261 -0.04848
C 7.32712 25.64452 0.00488
C 4.86734 4.30219 -0.00892
C 6.14174 2.16146 -0.0008
C 6.1059 0.74168 0.0288
C 4.8781 0.00323 0.00393
C 7.39343 32.70343 0.00895
C 8.614 31.96219 0.00685
C 8.57692 30.61906 0.02888
C 7.33513 29.87665 -0.00482
C 7.3781 28.49802 -0.01384
C 8.57496 27.82425 0.03693
C 4.9291 2.86167 -0.01362
C 19.66684 0.00705 -0.02957
C 22.08567 32.55309 -0.04422
C 23.28819 31.91601 0.00654
C 29.41139 4.29596 0.0103
C 29.47444 2.85954 0.02108
C 30.69544 2.16638 0.00716
C 30.67811 0.76435 0.00307
C 29.45891 0.01796 0.00346
C 31.98405 32.6317 0.01713
C 33.19208 32.01011 -0.01694
C 33.20748 30.53569 0.01428
C 31.97054 29.88699 -0.02142
C 30.70726 4.95105 0.07705
C 31.87048 28.43578 0.0544
C 33.15939 26.3196 0.00682
C 31.9307 25.53725 -0.01779
C 31.98533 24.10483 0.03794
C 33.20516 23.46784 0.01927
C 33.15785 22.02208 0.01574
C 31.91186 21.31506 -0.02383
C 31.96124 19.90137 -0.01429
C 33.21689 19.16605 -0.0136
C 33.31398 17.7476 0.00594
C 33.10197 27.73145 0.00026
C 32.00396 16.99697 -0.02474
C 30.69472 6.42856 0.01908
C 29.48888 8.50077 -0.00971
C 29.53388 29.88154 0.0014
C 29.51376 28.43415 0.00924
C 30.66416 27.70279 0.02326
C 30.7547 26.17642 0.00261
C 29.42602 25.51574 0.03265
C 29.44845 24.12222 -0.02049
C 30.72304 23.37326 -0.01854
C 30.68592 22.00231 -0.01415
C 29.44148 21.24423 -0.03039
C 29.4676 7.04439 0.01518
C 29.49959 19.92068 0.01836
C 30.78246 17.77848 -0.00669
C 29.59895 17.01299 0.0101
C 29.57371 15.60845 0.01705
C 30.78167 14.88778 -0.0405
C 30.79401 13.39202 -0.01303
C 29.52258 12.73368 -0.01461
C 29.5888 11.34432 -0.02155
C 30.74594 10.67409 -0.00944
C 30.72061 9.21042 -0.03735
C 30.79241 19.17884 0.03531
C 30.75054 30.55901 0.01324
C 31.96918 15.63112 0.00369
C 33.2028 13.50357 -0.00644
C 34.37116 21.24605 -0.02213
C 34.40108 19.86063 0.01951
C 1.24252 19.20205 -0.01678
C 1.26779 17.76589 0.01223
C 0.07014 17.06507 0.00648
C 0.03151 15.65671 0.02114
C 1.27165 14.9406 -0.02957
C 1.26751 13.52882 0.00343
C 0.018 12.83402 -0.02656
C 1.17151 21.96707 0.02712
C 0.03693 11.41024 -0.02442
C 1.19094 9.24891 -0.00583
C 34.37058 8.4998 -0.02302
C 34.37547 7.11663 -0.02849
C 1.15986 6.35797 0.02931
C 1.12625 4.95873 0.00628
C 34.32595 4.21172 -0.0345
C 34.31054 2.80185 -0.00931
C 1.20642 2.19295 -0.00939
C 1.19073 0.8124 -0.00468
C 1.17952 10.63202 -0.00027
C 33.17106 14.95593 0.00455
C 1.20981 23.36033 0.00723
C 34.39678 25.61709 -0.05239
C 32.06495 12.74182 -0.01839
C 31.97839 11.40225 0.00137
C 33.23437 10.66332 0.00199
C 33.26482 9.2187 0.04381
C 31.95565 8.58231 0.02806
C 31.9103 7.12024 0.01504
C 33.10349 6.40909 -0.00069
C 33.14737 5.01094 0.04926
C 31.93417 4.24964 -0.03838
C 0.00379 24.18021 0.03076
C 31.93115 2.84184 0.00349
C 33.1426 0.66587 -0.00841
C 31.91365 34.04182 0.0001
C 0.01252 32.76158 -0.02927
C 1.18737 31.93173 -0.01404
C 1.20052 30.56473 0.01027
C 34.42249 29.82109 0.01831
C 34.41415 28.38553 -0.01037
C 1.2087 27.72821 -0.00439
C 1.16927 26.28427 -0.00598
C 33.14746 2.06254 -0.00323
C 30.78222 32.00423 0.04266
C 29.52686 32.69315 0.01177
C 26.93894 34.07873 -0.00416
C 23.37701 4.91206 -0.00381
C 22.07567 4.25615 0.03046
C 22.11719 2.81785 0.0296
C 23.31972 2.07524 0.03374
C 23.36959 0.68467 -0.02845
C 22.0886 0.0054 -0.03213
C 24.52923 32.55311 0.02239
C 25.81018 31.93818 0.01153
C 25.81412 30.54676 0.02734
C 23.44263 6.3641 0.01852
C 24.57594 29.84742 -0.0055
C 25.76474 27.66824 -0.00225
C 25.76637 26.24927 0.00071
C 24.58851 25.4824 -0.01107
C 24.58897 24.02663 -0.01586
C 25.75711 23.35622 -0.01971
C 25.78592 21.94218 -0.02118
C 24.59971 21.22673 0.00733
C 24.53332 19.87034 -0.00178
C 25.81849 19.13486 0.00768
C 24.49253 28.45587 0.01515
C 25.82136 17.73436 -0.0276
C 22.20735 7.07027 0.01126
C 23.38559 9.204 -0.01662
C 23.32325 30.48661 -0.00703
C 22.07932 29.73397 -0.04076
C 22.06468 28.28027 -0.00652
C 23.33115 27.60629 0.0058
C 23.39722 26.23653 -0.00865
C 22.14825 25.47398 0.00675
C 22.15221 24.07116 -0.00311
C 23.34309 23.41557 0.00742
C 23.32747 22.04089 -0.01594
C 22.15946 8.46494 -0.01185
C 22.10015 21.32494 0.0106
C 23.25337 19.17359 -0.01721
C 23.35106 17.77167 -0.02422
C 22.12341 17.11025 0.01277
C 22.23318 15.68977 0.00096
C 23.43623 14.93074 -0.01527
C 23.3826 13.49461 0.01087
C 22.16437 12.78229 0.00199
C 22.20486 11.28012 0.01511
C 23.41087 10.60978 -0.00478
C 22.09139 19.87351 -0.01154
C 24.59756 17.0916 0.03005
C 24.636 15.69159 -0.04078
C 25.88763 14.95975 0.02117
C 27.01471 21.28862 0.00622
C 27.01033 19.87828 -0.02815
C 28.29441 19.15507 -0.00942
C 28.34987 17.82127 0.00487
C 27.10612 17.00496 0.00826
C 27.13913 15.61687 -0.00294
C 28.3461 14.90846 0.00152
C 28.38657 13.49676 0.01257
C 27.03286 12.81199 0.02316
C 28.19478 21.99539 -0.0032
C 27.06972 11.38148 0.04185
C 28.32105 9.1958 -0.00621
C 27.08461 8.53597 0.02611
C 27.07255 7.17446 0.02198
C 28.26541 6.38893 0.01094
C 28.18912 4.98871 0.00235
C 26.97848 4.25592 0.01495
C 27.05399 2.80926 0.01259
C 28.20093 2.07556 0.01799
C 28.23508 0.66187 0.01699
C 28.3511 10.63732 0.00194
C 28.18468 23.3981 -0.00037
C 26.99199 24.17486 -0.01654
C 26.95942 25.54776 -0.00218
C 25.80447 13.53251 0.02737
C 24.58622 12.78103 -0.00498
C 24.6736 11.30473 0.00135
C 25.91701 10.6772 0.03102
C 25.84971 9.18213 0.02555
C 24.61467 8.48496 0.01423
C 24.67323 7.08563 -0.00285
C 25.82439 6.39319 -0.009
C 25.74034 5.02079 -0.01199
C 24.57248 4.24915 -0.00229
C 24.57865 2.80932 -0.00938
C 25.79901 2.10131 -0.0264
C 25.75415 0.69626 -0.01154
C 24.54456 34.04403 0.00684
C 27.02875 32.63189 -0.01052
C 28.28656 31.94869 -0.01679
C 28.27957 30.50347 0.00367
C 27.01746 29.82414 0.04306
C 26.99139 28.32815 0.00996
C 28.26454 27.69435 0.00195
C 28.24263 26.24029 -0.00802
C 3.63819 32.07743 0.03189
C 2.3882 32.74474 -0.04307
