416
Graphene
C 34.39991 34.03101 0.01295
C 12.2242 28.48417 -0.01111
C 13.506 27.68198 -0.01275
C 13.51036 26.32094 0.00985
C 12.32244 25.62884 -0.02245
C 12.32098 24.13917 -0.00428
C 13.47979 23.36957 0.03101
C 13.4566 21.97609 -0.01536
C 12.25858 21.19369 -0.02689
C 12.30372 19.77744 -0.01046
C 13.54217 19.07428 -0.00891
C 12.32406 29.85879 0.02841
C 13.55502 17.70345 0.02819
C 12.308 15.66192 -0.02971
C 13.52092 14.95065 0.02894
C 13.54587 13.41454 -0.01789
C 12.31857 12.70519 0.00444
C 12.28281 11.23466 -0.00925
C 13.51647 10.48019 0.01877
C 13.49889 9.11341 0.01363
C 12.28967 8.48623 -0.02162
C 12.24066 7.06102 0.00415
C 13.42745 6.44855 -0.0014
C 12.3462 17.03901 0.00165
C 13.53139 5.00139 0.02162
C 13.56413 30.60481 0.00943
C 12.33808 32.711 0.03592
C 11.05761 22.01169 -0.00131
C 9.81376 21.38035 -0.01118
C 9.86716 19.95315 -0.014
C 11.02904 19.16716 0.02147
C 11.0932 17.78701 0.00373
C 9.87804 17.1014 -0.00191
C 9.82731 15.75863 0.00438
C 11.11925 14.92415 0.01291
C 11.08257 13.49063 0.00093
C 9.86994 12.74671 0.00057
C 13.52622 32.00142 0.00406
C 9.87605 11.29812 -0.01634
C 11.02662 9.14335 0.02339
C 9.76092 8.48099 0.01641
C 9.76567 7.14246 -0.00719
C 11.05093 6.37009 0.01364
C 11.06653 4.96719 -0.01062
C 9.81164 4.32318 -0.00033
C 9.85134 2.92993 0.03589
C 11.06198 2.26972 -0.02759
C 11.02899 0.78454 0.0402
C 9.79977 0.08687 0.00572
C 11.07031 10.52308 -0.00334
C 11.08313 23.46599 -0.02896
C 12.30035 4.29218 0.0076
C 13.53927 2.16053 -0.01454
C 14.73079 7.01941 -0.00619
C 16.0233 6.39568 -0.02162
C 16.02534 5.02045 0.00889
C 14.75239 4.27741 -0.00481
C 14.79756 2.88202 0.00979
C 15.99327 2.07915 0.01443
C 16.01956 0.69684 0.03505
C 14.79009 34.07647 -0.02815
C 17.15455 32.62262 -0.04147
C 18.37562 31.92331 -0.05302
C 14.78822 8.45468 0.01848
C 18.42801 30.56515 0.00213
C 17.16459 28.44154 -0.00289
C 18.35148 27.70225 0.00028
C 18.35832 26.3002 -0.02213
C 17.20337 25.56718 0.03698
C 17.15333 24.20147 -0.00109
C 18.4009 23.42671 -0.00491
C 18.50349 21.94064 0.03338
C 17.24045 21.25949 -0.0258
C 17.26554 19.9177 -0.0331
C 17.15672 17.03284 -0.00316
C 17.18473 29.87637 -0.00066
C 12.34703 2.90058 0.01241
C 16.0227 9.17177 0.02098
C 14.69838 11.26478 0.0351
C 13.59263 0.68084 0.01945
C 12.26594 0.04097 0.01416
C 14.75738 32.67642 0.03542
C 15.89068 31.94534 0.02299
C 15.97176 30.54738 0.00244
C 14.73799 29.85184 -0.01717
C 14.71181 28.44686 0.05265
C 15.94401 27.74091 -0.01952
C 15.90534 26.31955 -0.02813
C 14.70968 25.59132 0.00374
C 15.95906 10.60715 -0.03113
C 14.73521 24.14172 0.00052
C 15.93401 21.9824 0.01965
C 14.7096 21.28479 0.02058
C 14.78028 19.85884 -0.01957
C 16.06253 19.22233 -0.0108
C 16.01347 17.79937 -0.00368
C 14.80856 17.06447 -0.02696
C 14.80855 15.6081 -0.00114
C 16.02248 14.90947 0.00228
C 16.01781 13.48147 0.00798
C 14.79273 12.72863 0.00422
C 15.92575 23.39554 -0.03682
C 17.05094 15.80043 0.02188
C 9.85599 24.14539 -0.01004
C 11.072 26.28534 0.01745
C 2.45498 2.80061 -0.03291
C 3.66176 2.16019 -0.04999
C 3.66397 0.68218 0.04505
C 2.43325 0.03835 0.03284
C 4.84878 32.68272 -0.04307
C 6.12588 32.00061 0.03189
C 6.12047 30.56573 0.00031
C 4.91381 29.85412 -0.003
C 4.92649 28.44892 0.01402
C 6.14211 27.72927 0.02379
C 2.45582 4.27413 0.02769
C 6.19198 26.31668 0.00907
C 4.94701 24.09106 -0.01509
C 6.11446 23.45125 0.03267
C 6.0636 22.02927 0.02374
C 4.86554 21.37948 0.00402
C 4.88916 19.89929 0.0073
C 6.11811 19.22056 0.0174
C 6.18016 17.81502 0.03828
C 4.9342 17.10143 0.01226
C 4.98943 15.62369 -0.00279
C 6.16282 14.84476 0.01996
C 5.00344 25.54523 0.00643
C 6.12477 13.42455 -0.03996
C 3.67317 4.97301 0.01707
C 2.40242 7.09059 -0.00561
C 3.64573 30.59366 -0.00407
C 2.36434 29.803 0.01138
C 2.42485 28.39314 0.03278
C 3.69318 27.69132 -0.00177
C 3.78631 26.24679 0.04421
C 2.48821 25.60183 0.00088
C 2.42613 24.15154 0.00828
C 3.65508 23.40058 -0.02375
C 3.63621 22.02176 0.00558
C 2.43095 21.30575 -0.0059
C 3.64262 6.47641 0.00208
C 2.40314 19.93134 -0.01386
C 3.67351 17.81874 0.00081
C 2.52608 17.04719 0.00245
C 2.51238 15.62329 0.02728
C 3.79463 14.88385 -0.00039
C 3.70919 13.42312 0.0064
C 2.42257 12.8135 0.00211
C 2.39899 11.32873 -0.00449
C 3.6286 10.56829 -0.01979
C 3.70099 9.19817 0.02784
C 2.41132 8.50083 -0.01977
C 3.68104 19.27644 -0.02805
C 9.86761 25.55754 0.00488
C 4.84023 12.68926 0.01465
C 6.17502 10.67647 -0.00518
C 7.37856 15.61982 0.0127
C 8.5997 14.96257 0.01396
C 8.64008 13.48648 0.01849
C 7.34329 12.81059 -0.01142
C 7.42213 11.42337 -0.00562
C 8.66171 10.74053 -0.00494
C 8.60548 9.28581 0.00054
C 7.35643 8.60734 0.03007
C 7.36188 7.16416 -0.00095
C 8.59209 6.45631 0.01572
C 7.42643 17.07225 0.02635
C 8.61393 5.04621 -0.04848
C 7.31271 2.89536 -0.01362
C 8.56137 2.18937 -0.0008
C 8.54835 0.78958 0.0288
C 7.25009 0.01894 0.00393
C 9.86019 32.72017 0.00895
C 11.10939 32.00388 0.00685
C 11.07507 30.58429 0.02888
C 9.83481 29.89074 -0.00482
C 9.8081 28.50484 -0.01384
C 11.03455 27.72135 0.03693
C 7.29794 4.34669 -0.00892
C 4.86106 11.26895 -0.00074
C 8.64473 17.85979 -0.01378
C 7.33324 19.97377 0.00848
C 6.16031 9.29455 0.0086
C 4.91429 8.52822 -0.00643
C 4.93095 7.12928 0.017
C 6.14474 6.41842 -0.03113
C 6.07244 5.02724 -0.02566
C 4.84671 4.31758 -0.00094
C 4.84823 2.89753 0.02322
C 6.05029 2.18953 -0.00725
C 6.04937 0.70098 -0.05697
C 4.8741 34.07064 0.01087
C 8.53994 19.27775 -0.01303
C 7.32839 32.73745 -0.01343
C 8.60001 30.56701 0.0276
C 7.3735 29.87059 0.01305
C 7.34419 28.42321 -0.00077
C 8.59735 27.73862 0.03368
C 8.60724 26.37142 -0.02929
C 7.42907 25.60876 -0.00966
C 7.41091 24.21535 -0.03337
C 8.57498 23.43704 0.01227
C 8.56159 22.01687 0.00873
C 7.35871 21.35142 -0.00049
C 8.58999 32.0272 0.00988
C 18.53573 13.31889 -0.01979
C 17.23808 12.82302 0.02691
C 17.17521 11.35706 -0.01581
C 30.7804 10.65921 -0.00944
C 30.74236 9.19541 -0.03735
C 29.55216 8.49728 -0.00971
C 29.49128 7.09542 0.01518
C 30.71919 6.40088 0.01908
C 30.71285 4.99568 0.07705
C 29.59926 4.20811 0.0103
C 29.51094 2.78128 0.02108
C 30.72384 2.11761 0.00716
C 30.70815 0.73209 0.00307
C 29.50675 11.3437 -0.02155
C 29.51116 0.14648 0.00346
C 33.23382 31.86773 -0.01694
C 33.12993 30.44932 0.01428
C 31.85913 29.78994 -0.02142
C 31.86313 28.39436 0.0544
C 33.14785 27.67343 0.00026
C 33.13637 26.2829 0.00682
C 31.95061 25.55981 -0.01779
C 31.99419 24.10573 0.03794
C 33.23382 23.41335 0.01927
C 33.19614 22.06879 0.01574
C 32.01368 32.58519 0.01713
C 31.95904 21.35336 -0.02383
C 29.56954 12.71477 -0.01461
C 30.67567 14.85874 -0.0405
C 27.05843 4.23038 0.01495
C 27.09692 2.84464 0.01259
C 28.2944 2.18572 0.01799
C 28.2448 0.77346 0.01699
C 27.07195 0.04795 -0.00416
C 29.57423 32.79322 0.01177
C 30.73341 31.95822 0.04266
C 30.67044 30.56555 0.01324
C 29.50783 29.86048 0.0014
C 29.51544 28.41498 0.00924
C 30.76473 13.45257 -0.01303
C 30.69498 27.65619 0.02326
C 29.44197 25.60365 0.03265
C 29.52824 24.22927 -0.02049
C 30.74131 23.39714 -0.01854
C 30.71884 21.99462 -0.01415
C 29.4143 21.25686 -0.03039
C 29.48324 19.88048 0.01836
C 30.75586 19.16166 0.03531
C 30.67238 17.73609 -0.00669
C 29.3598 16.9948 0.0101
C 29.39196 15.56985 0.01705
C 30.73472 26.19707 0.00261
C 28.3404 4.84425 0.00235
C 32.01255 19.90411 -0.01429
C 33.21608 17.76518 0.00594
C 1.19023 23.42012 0.00723
C 1.24873 21.99192 0.02712
C 0.04115 21.30461 -0.02213
C 0.02791 19.85888 0.01951
C 1.20508 19.15795 -0.01678
C 1.22885 17.77511 0.01223
C 34.41669 17.11126 0.00648
C 34.41164 15.64597 0.02114
C 1.24834 14.98047 -0.02957
C 1.21779 13.48702 0.00343
C 34.42233 24.12387 0.03076
C 0.01583 12.82614 -0.02656
C 1.17634 10.60917 -0.00027
C 1.1969 9.26812 -0.00583
C 0.02749 8.47939 -0.02302
C 34.42884 7.08106 -0.02849
C 1.20738 6.39345 0.02931
C 1.25066 4.9592 0.00628
C 0.0011 4.23955 -0.0345
C 34.36571 2.79789 -0.00931
C 1.19814 2.11781 -0.00939
C 1.22518 0.714 -0.00468
C 34.41083 11.3371 -0.02442
C 33.17069 19.21387 -0.0136
C 34.3689 25.56176 -0.05239
C 1.21151 27.66416 -0.00439
C 31.95094 16.99456 -0.02474
C 31.91473 15.62438 0.00369
C 33.1803 14.88171 0.00455
C 33.1766 13.50634 -0.00644
C 32.04579 12.75852 -0.01839
C 31.9901 11.36824 0.00137
C 33.2317 10.59571 0.00199
C 33.21747 9.16967 0.04381
C 31.96281 8.48828 0.02806
C 31.99255 7.05909 0.01504
C 1.1491 26.2397 -0.00598
C 33.16545 6.36372 -0.00069
C 31.95365 4.29773 -0.03838
C 31.9438 2.86918 0.00349
C 33.12853 2.08107 -0.00323
C 33.1198 0.67154 -0.00841
C 31.91528 33.97066 0.0001
C 0.04037 32.64401 -0.02927
C 1.22397 31.90208 -0.01404
C 1.15026 30.4855 0.01027
C 34.36032 29.75797 0.01831
C 34.37512 28.32522 -0.01037
C 33.19476 4.97087 0.04926
C 28.32119 6.26999 0.01094
C 27.15217 7.04728 0.02198
C 27.08945 8.45158 0.02611
C 20.91628 9.18053 -0.01154
C 19.68373 8.47562 -0.01721
C 19.69646 7.02017 -0.02422
C 20.89923 6.34799 0.01277
C 20.95702 4.98861 0.00096
C 19.73547 4.20313 -0.01527
C 19.8088 2.85306 0.01087
C 20.95954 2.13025 0.00199
C 20.89026 0.71892 0.01511
C 19.63112 0.0284 -0.00478
C 20.94046 10.70465 0.0106
C 22.06901 32.68845 -0.01662
C 23.35595 30.55212 0.01126
C 22.12659 29.87645 0.01852
C 22.14178 28.42106 -0.00381
C 23.35527 27.69 0.03046
C 23.30824 26.27063 0.0296
C 22.13886 25.53067 0.03374
C 22.15799 24.03149 -0.02845
C 23.36544 23.47938 -0.03213
C 22.06237 11.48671 0.02239
C 23.21099 10.79996 0.01153
C 23.33257 31.98723 -0.01185
C 23.35962 9.27244 0.02734
C 19.72133 11.40105 -0.01594
C 19.68629 21.37274 -0.00311
C 18.45719 10.66508 0.01452
C 18.50131 9.27934 0.04892
C 17.26854 8.47665 -0.00111
C 17.27732 7.11826 -0.03557
C 18.40021 6.29046 0.03754
C 18.50694 4.9012 0.01739
C 17.20583 4.20163 0.00755
C 17.27166 2.83523 -0.0054
C 18.44489 2.109 0.00667
C 18.46363 0.74089 0.00143
C 19.61471 12.69686 0.00742
C 17.21208 0.02088 -0.017
C 20.80114 31.94037 -0.00831
C 20.84485 30.51401 -0.02957
C 19.6516 29.75983 -0.04422
C 19.66634 28.31961 0.00654
C 20.9267 27.67472 -0.00703
C 20.89904 26.20357 -0.04076
C 19.52053 25.53089 -0.00652
C 19.60629 24.11164 0.0058
C 20.89336 23.43119 -0.00865
C 20.80337 22.12614 0.00675
C 19.53964 32.65002 0.00364
C 22.1084 8.51918 -0.0055
C 22.1089 7.0507 0.01515
C 23.34534 6.36844 -0.00225
C 25.81454 0.74013 -0.01679
C 24.66799 34.07535 0.00367
C 27.09291 32.67732 0.04306
C 28.34774 31.99829 0.00996
C 28.27874 30.57319 0.00195
C 27.03969 29.82095 -0.00802
C 27.05656 28.37263 -0.00218
C 28.31358 27.73288 -0.01654
C 28.24509 26.34402 -0.00037
C 26.99804 25.55441 -0.0032
C 25.85987 2.17314 -0.01052
C 27.02016 24.11769 0.00622
C 28.19606 21.97225 -0.00942
C 26.98141 21.25894 0.00487
C 28.31758 19.14292 0.00826
C 28.30762 17.93975 -0.00294
C 28.26771 14.84368 0.00152
C 28.12969 13.46779 0.01257
C 27.07153 12.64904 0.02316
C 27.01176 11.32173 0.04185
C 28.27538 10.6072 0.00194
C 28.31287 9.21067 -0.00621
C 28.28518 23.42805 -0.02815
C 24.64255 2.84567 0.00684
C 24.59032 4.24229 -0.01154
C 25.84137 4.94262 -0.0264
C 23.36888 4.89767 0.00071
C 22.18322 4.21279 -0.01107
C 22.15803 2.82545 -0.01586
C 23.44897 2.11181 -0.01971
C 23.40121 0.68912 -0.02118
C 22.18469 34.07489 0.00733
C 24.59638 32.68552 -0.00178
C 25.86498 31.93859 0.00768
C 25.80397 30.47893 -0.0276
C 24.59596 29.77294 0.03005
C 24.69386 28.36533 -0.04078
C 25.83914 27.62075 0.02117
C 25.79291 26.23644 0.02737
C 24.54217 25.56635 -0.00498
C 24.55096 24.14488 0.00135
C 25.78737 23.38246 0.03102
C 25.99447 22.02965 0.02555
C 24.53478 11.12186 0.01423
C 25.7715 10.65976 -0.00285
C 25.83641 9.18123 -0.009
C 24.54091 8.54325 -0.01199
C 24.63479 7.02609 -0.00229
C 25.84955 6.31382 -0.00938
C 3.6567 31.99535 -0.01299
C 2.47271 32.70003 -0.0154
