414
Graphene
C 0.01211 0.02733 0.01295
C 14.8122 29.80686 0.00985
C 14.71463 28.46748 -0.02245
C 15.96849 27.73363 -0.00428
C 16.00515 26.2535 0.03101
C 14.7886 25.58914 -0.01536
C 14.77593 24.15735 -0.02689
C 15.96087 23.41562 -0.01046
C 15.98438 21.9909 -0.00891
C 14.74947 21.20534 0.02819
C 14.75846 19.86577 0.00165
C 16.03237 19.20433 -0.02971
C 16.02016 17.71392 0.02894
C 14.78059 17.03912 -0.01789
C 14.78972 15.61073 0.00444
C 15.93717 14.97165 -0.00925
C 15.99545 13.4704 0.01877
C 16.00943 10.54562 0.01363
C 15.93978 9.20347 -0.02162
C 14.75698 7.02321 0.00415
C 15.94738 6.3878 -0.0014
C 15.96528 5.01025 0.02162
C 15.99608 30.52216 -0.01275
C 15.94643 31.993 -0.01111
C 14.67454 32.73003 0.02841
C 12.30642 0.02945 0.00943
C 12.30572 32.6757 -0.014
C 13.53384 31.97304 0.02147
C 13.54988 30.54993 0.00373
C 12.29468 29.85119 -0.00191
C 12.32969 28.39714 0.00438
C 13.54173 27.72034 0.01291
C 13.55247 26.34388 0.00093
C 12.28361 25.57572 0.00057
C 12.2892 24.21292 -0.01634
C 13.56238 23.39187 -0.00334
C 14.77698 4.23052 0.0076
C 13.5626 22.04641 0.02339
C 12.38323 19.88676 -0.00719
C 13.5083 19.14274 0.01364
C 13.52793 17.80688 -0.01062
C 12.32113 17.01827 -0.00033
C 13.48456 6.38782 0.03589
C 13.54423 4.95151 -0.02759
C 12.35915 4.27573 0.0402
C 12.28208 2.86412 0.00572
C 13.52187 2.16434 0.03592
C 13.47984 0.80127 0.00406
C 12.29812 21.34355 0.01641
C 14.73959 2.78084 0.01241
C 15.99365 2.08304 -0.01454
C 15.98498 0.75297 0.01945
C 18.44002 6.38175 -0.02162
C 18.40886 4.98742 0.00889
C 17.18505 4.29311 -0.00481
C 17.22065 2.81627 0.00979
C 18.50646 2.20252 0.01443
C 18.44178 0.66923 0.03505
C 17.2214 34.07649 -0.02815
C 19.70587 32.67543 -0.04147
C 20.9294 31.92485 -0.05302
C 20.85434 30.52533 0.00213
C 17.20813 7.08763 -0.00619
C 19.68196 29.77316 -0.00066
C 20.96171 27.66805 0.00028
C 20.90491 26.29974 -0.02213
C 19.63451 25.55973 0.03698
C 19.64198 24.1202 -0.00109
C 20.84367 23.44599 -0.00491
C 20.87881 22.0329 0.03338
C 19.66718 21.30778 -0.0258
C 19.68975 19.84078 -0.0331
C 20.89828 19.18249 -0.00316
C 20.92005 17.7717 0.02188
C 19.68153 28.41843 -0.00289
C 9.89132 34.0791 -0.01118
C 17.21092 8.50949 0.01848
C 18.44547 10.59393 -0.03113
C 14.71644 0.01291 0.01416
C 17.20328 32.65254 0.03542
C 18.5183 31.97184 0.02299
C 18.43318 30.52425 0.00244
C 17.19713 29.83369 -0.01717
C 17.18881 28.40663 0.05265
C 18.43091 27.66073 -0.01952
C 18.38895 26.25872 -0.02813
C 17.21385 25.56323 0.00374
C 17.24322 24.11676 0.00052
C 18.4263 9.20472 0.02098
C 18.45249 23.37987 -0.03682
C 17.19247 21.26307 0.02058
C 17.21881 19.85936 -0.01957
C 18.40845 19.15039 -0.0108
C 18.48042 17.73444 -0.00368
C 17.26881 17.03275 -0.02696
C 17.19472 15.66219 -0.00114
C 18.46927 14.88898 0.00228
C 18.42192 13.4954 0.00798
C 17.16871 12.81078 0.00422
C 17.22497 11.38475 0.0351
C 18.46403 21.95529 0.01965
C 11.0556 0.75265 -0.00131
C 11.02262 2.18307 -0.02896
C 9.78288 2.84995 -0.01004
C 2.46917 2.83856 0.04505
C 3.67901 2.1531 0.03284
C 3.69117 0.65296 -0.04307
C 2.461 34.07987 0.03189
C 4.93699 32.67761 0.00031
C 6.14779 31.98261 -0.003
C 6.07731 30.60838 0.01402
C 4.9318 29.85497 0.02379
C 4.91392 28.39837 0.00907
C 6.12126 27.6892 0.00643
C 2.43782 4.28012 -0.04999
C 6.17058 26.22096 -0.01509
C 4.98249 24.1632 0.02374
C 6.16217 23.41986 0.00402
C 6.22789 21.99372 0.0073
C 4.93183 21.28779 0.0174
C 4.8561 19.85609 0.03828
C 6.13049 19.24549 0.01226
C 6.11851 17.78353 -0.00279
C 4.95379 17.02619 0.01996
C 4.90794 15.6319 -0.03996
C 6.23005 14.9205 0.01465
C 4.9032 25.51889 0.03267
C 4.96396 12.72914 -0.00074
C 3.64498 4.91813 -0.03291
C 2.44986 7.16361 0.01707
C 3.68266 30.55447 0.03278
C 2.44101 29.81646 -0.00177
C 2.4821 28.43307 0.04421
C 3.68933 27.63047 0.00088
C 3.72661 26.28449 0.00828
C 2.48074 25.62576 -0.02375
C 2.46949 24.17367 0.00558
C 3.67846 23.43567 -0.0059
C 3.67122 21.94968 -0.01386
C 2.43579 21.27289 -0.02805
C 3.72622 6.41908 0.02769
C 2.46792 19.84897 0.00081
C 3.69511 17.77149 0.02728
C 2.44904 17.09734 -0.00039
C 2.41006 15.61699 0.0064
C 3.73618 14.88934 0.00211
C 3.76315 13.4702 -0.00449
C 2.4934 12.7988 -0.01979
C 2.40806 11.27632 0.02784
C 3.65686 10.62743 -0.01977
C 3.65872 9.22984 -0.00561
C 2.41597 8.47745 0.00208
C 3.69046 19.15407 0.00245
C 19.68962 17.0618 -0.01979
C 4.90558 11.41903 -0.00518
C 4.95712 7.06322 -0.00643
C 7.36859 2.87883 0.01849
C 8.60817 2.15513 -0.01142
C 8.63067 0.71166 -0.00562
C 7.37165 34.05097 -0.00494
C 9.85699 32.65003 0.00054
C 11.09838 31.9612 0.03007
C 11.06076 30.52042 -0.00095
C 9.78104 29.86256 0.01572
C 9.84766 28.38911 -0.04848
C 11.08862 27.72732 -0.00892
C 7.37936 4.28662 0.01396
C 11.0787 26.31305 -0.01362
C 9.80305 24.21348 0.0288
C 11.05667 23.48857 0.00393
C 11.08567 22.03789 0.00895
C 9.78936 21.31159 0.00685
C 9.85084 19.89864 0.02888
C 11.08847 19.16641 -0.00482
C 11.07001 17.69291 -0.01384
C 9.81458 17.07952 0.03693
C 11.04303 4.98422 0.01745
C 9.83544 4.29813 0.00488
C 9.77632 25.5868 -0.0008
C 4.90183 8.56894 0.0086
C 8.6008 4.95269 0.0127
C 7.40059 17.04937 -0.01378
C 6.09983 6.44228 0.017
C 6.14011 4.99529 -0.03113
C 4.96996 4.30932 -0.02566
C 4.92576 2.79826 -0.00094
C 6.13084 2.12571 0.02322
C 6.11722 0.67975 -0.00725
C 4.9219 0.00507 -0.05697
C 7.35928 32.69797 0.01087
C 8.53778 31.94968 -0.01343
C 8.54932 30.54696 0.00988
C 7.34131 15.55344 0.02635
C 7.35234 29.89061 0.0276
C 8.5479 27.71067 -0.00077
C 8.61159 26.3255 0.03368
C 7.39943 25.52552 -0.02929
C 7.38231 24.14226 -0.00966
C 8.59473 23.45456 -0.03337
C 8.64571 22.02218 0.01227
C 7.42639 21.36023 0.00873
C 7.37395 19.8681 -0.00049
C 8.59574 19.17354 0.00848
C 8.62163 17.7496 -0.01303
C 7.31681 28.4724 0.01305
C 19.72313 15.64015 0.02691
C 20.91115 14.86803 -0.01581
C 20.96262 13.46116 0.01452
C 30.7426 10.66005 -0.00944
C 30.73853 9.26837 -0.03735
C 29.51998 8.52595 -0.00971
C 29.5105 7.09208 0.01518
C 30.74213 6.39091 0.01908
C 30.73269 5.00317 0.07705
C 29.53899 4.28925 0.0103
C 29.52726 2.78352 0.02108
C 30.77533 2.0879 0.00716
C 30.76308 0.70334 0.00307
C 29.51892 11.396 -0.02155
C 29.5178 34.0229 0.00346
C 33.16558 31.95943 -0.01694
C 33.23917 30.48992 0.01428
C 31.94478 29.77352 -0.02142
C 31.96391 28.41493 0.0544
C 33.17978 27.67974 0.00026
C 33.15749 26.30075 0.00682
C 31.95437 25.55573 -0.01779
C 31.99551 24.10159 0.03794
C 33.24674 23.41158 0.01927
C 33.21477 22.026 0.01574
C 32.01049 32.6406 0.01713
C 31.99157 21.24573 -0.02383
C 29.51753 12.80105 -0.01461
C 30.81005 14.8996 -0.0405
C 27.01745 4.2421 0.01495
C 27.06712 2.82902 0.01259
C 28.287 2.13215 0.01799
C 28.27055 0.70821 0.01699
C 27.07826 0.04166 -0.00416
C 29.48581 32.65192 0.01177
C 30.79046 31.97866 0.04266
C 30.70738 30.54984 0.01324
C 29.51717 29.81433 0.0014
C 29.52408 28.37955 0.00924
C 30.78766 13.53157 -0.01303
C 30.79066 27.66146 0.02326
C 29.47818 25.49857 0.03265
C 29.50691 24.12362 -0.02049
C 30.75567 23.45429 -0.01854
C 30.77451 22.07817 -0.01415
C 29.50654 21.24727 -0.03039
C 29.49106 19.84486 0.01836
C 30.73004 19.15235 0.03531
C 30.80108 17.73379 -0.00669
C 29.45 17.00413 0.0101
C 29.47395 15.62042 0.01705
C 30.71204 26.22115 0.00261
C 28.26273 4.9646 0.00235
C 31.96459 19.8357 -0.01429
C 33.18881 17.80878 0.00594
C 1.23353 23.48629 0.00723
C 1.21422 22.02346 0.02712
C 34.42912 21.28618 -0.02213
C 34.39298 19.86269 0.01951
C 1.18808 19.19524 -0.01678
C 1.22218 17.76519 0.01223
C 0.0301 16.97969 0.00648
C 34.42706 15.59839 0.02114
C 1.19053 14.94078 -0.02957
C 1.2411 13.51607 0.00343
C 34.41881 24.20578 0.03076
C 34.41599 12.77391 -0.02656
C 1.18204 10.66641 -0.00027
C 1.23034 9.26118 -0.00583
C 0.00546 8.52772 -0.02302
C 0.00884 7.10437 -0.02849
C 1.19844 6.34501 0.02931
C 1.20621 4.94353 0.00628
C 34.41896 4.24893 -0.0345
C 34.42485 2.88634 -0.00931
C 1.25807 2.09305 -0.00939
C 1.24775 0.68382 -0.00468
C 34.36639 11.3584 -0.02442
C 33.20072 19.19511 -0.0136
C 0.02532 25.58734 -0.05239
C 1.17088 27.62523 -0.00439
C 31.95729 17.0426 -0.02474
C 32.01606 15.60497 0.00369
C 33.20696 14.84708 0.00455
C 33.19464 13.48934 -0.00644
C 31.98778 12.74799 -0.01839
C 31.97836 11.33543 0.00137
C 33.21092 10.65703 0.00199
C 33.16722 9.22145 0.04381
C 31.9923 8.46982 0.02806
C 31.94904 7.09317 0.01504
C 1.20816 26.26104 -0.00598
C 33.20378 6.39629 -0.00069
C 32.01507 4.24911 -0.03838
C 31.96788 2.88956 0.00349
C 33.13154 2.11993 -0.00323
C 33.14432 0.67598 -0.00841
C 31.9756 34.02103 0.0001
C 34.39654 32.67027 -0.02927
C 1.27089 31.94727 -0.01404
C 1.25288 30.51983 0.01027
C 34.3517 29.82313 0.01831
C 34.38063 28.36354 -0.01037
C 33.2183 4.96426 0.04926
C 3.71983 31.92621 0.01138
C 28.33158 6.34507 0.01094
C 27.09615 8.48937 0.02611
C 23.3815 19.16033 -0.01721
C 23.32958 17.75471 -0.02422
C 22.14807 16.9685 0.01277
C 22.0813 15.57311 0.00096
C 23.32862 14.93155 -0.01527
C 23.42269 13.42521 0.01087
C 22.21276 12.72895 0.00199
C 22.09974 11.31153 0.01511
C 23.35879 10.64336 -0.00478
C 23.36578 9.23839 -0.01662
C 22.12779 19.87581 -0.01154
C 22.16887 8.52349 -0.01185
C 23.3325 6.35933 0.01852
C 23.36442 4.97467 -0.00381
C 22.17551 4.24318 0.03046
C 22.19855 2.85366 0.0296
C 23.39269 2.15087 0.03374
C 23.3689 0.73299 -0.02845
C 22.1617 34.01318 -0.03213
C 24.58542 32.70724 0.02239
C 25.85752 31.95951 0.01153
C 25.77643 30.56595 0.02734
C 22.12821 7.07786 0.01126
C 24.58078 29.83037 -0.0055
C 22.11398 21.31287 0.0106
C 23.36437 23.40972 0.00742
C 19.71256 12.78933 0.04892
C 19.67691 11.41521 -0.00111
C 20.89102 10.6052 -0.03557
C 20.94519 9.27133 0.03754
C 19.7229 8.50874 0.01739
C 19.71081 7.07331 0.00755
C 20.85969 6.35323 -0.0054
C 20.92721 4.99051 0.00667
C 19.66656 4.23237 0.00143
C 19.80366 2.87702 -0.017
C 23.35025 22.00677 -0.01594
C 20.93217 2.14765 0.00364
C 19.69207 0.00044 -0.02957
C 22.05839 32.67451 -0.04422
C 23.30339 31.98728 0.00654
C 23.31507 30.51215 -0.00703
C 22.11651 29.81207 -0.04076
C 22.19175 28.38009 -0.00652
C 23.30351 27.64551 0.0058
C 23.35873 26.26132 -0.00865
C 22.11514 25.57421 0.00675
C 22.09769 24.11341 -0.00311
C 20.89316 0.74449 -0.00831
C 27.05139 7.0986 0.02198
C 24.58297 28.39224 0.01515
C 25.79335 26.3062 0.00071
C 28.31677 31.86631 -0.01679
C 28.30269 30.52959 0.00367
C 27.0539 29.81374 0.04306
C 27.04824 28.40288 0.00996
C 28.35375 27.75626 0.00195
C 28.295 26.28837 -0.00802
C 27.02047 25.53893 -0.00218
C 27.04202 24.1281 -0.01654
C 28.27702 23.44748 -0.00037
C 28.26724 22.03705 -0.0032
C 27.0616 32.61171 -0.01052
C 27.0899 21.32278 0.00622
C 28.30982 19.16743 -0.00942
C 28.25924 17.74703 0.00487
C 27.0191 16.99817 0.00826
C 27.03208 15.6586 -0.00294
C 28.28564 14.9064 0.00152
C 28.25723 13.47797 0.01257
C 27.02025 12.74129 0.02316
C 27.05818 11.32422 0.04185
C 28.2725 10.64325 0.00194
C 28.29671 9.23713 -0.00621
C 27.07411 19.84299 -0.02815
C 25.80143 27.74875 -0.00225
C 24.63246 0.0418 0.00684
C 25.78456 2.13799 -0.0264
C 24.60257 25.52634 -0.01107
C 24.60381 24.14836 -0.01586
C 25.83112 23.48484 -0.01971
C 25.82317 21.98253 -0.02118
C 24.56988 21.26088 0.00733
C 24.64838 19.86111 -0.00178
C 25.78323 19.20884 0.00768
C 25.82947 17.78091 -0.0276
C 24.59332 17.08394 0.03005
C 24.56611 15.59713 -0.04078
C 25.85726 0.67199 -0.01154
C 25.76514 14.88749 0.02117
C 24.66924 12.79094 -0.00498
C 24.58863 11.35839 0.00135
C 25.7808 10.65517 0.03102
C 25.80685 9.20326 0.02555
C 24.55451 8.5277 0.01423
C 24.61512 7.07571 -0.00285
C 25.78034 6.32121 -0.009
C 25.80728 4.94466 -0.01199
C 24.5783 4.30652 -0.00229
C 24.62434 2.90928 -0.00938
C 25.82656 13.42687 0.02737
C 2.51092 32.64829 -0.00407
