336
Graphene
C 34.42134 0.02053 0.01295
C 17.2095 8.56489 -0.00481
C 17.21213 7.14723 0.00979
C 18.42053 6.437 0.01443
C 18.50054 5.06956 0.03505
C 17.2571 4.34583 -0.02815
C 17.24082 2.91197 -0.04147
C 18.43906 2.07338 -0.05302
C 18.34049 0.63405 0.00213
C 17.13933 33.97335 -0.00066
C 19.73407 32.61784 -0.00289
C 20.9483 31.9193 0.00028
C 20.96867 30.53089 -0.02213
C 19.74933 29.75265 0.03698
C 19.696 28.45416 -0.00109
C 20.91902 27.71022 -0.00491
C 20.86061 26.22084 0.03338
C 19.76649 25.3101 -0.0258
C 18.47005 9.25176 0.00889
C 19.83261 24.07587 -0.0331
C 18.39739 10.61059 -0.02162
C 18.43163 19.25146 0.01848
C 14.68284 32.69244 -0.02813
C 15.90244 31.9206 0.00374
C 16.05674 30.50959 0.00052
C 15.98453 9.21785 -0.03682
C 14.97727 8.53225 0.01965
C 14.73712 7.22064 0.02058
C 15.97286 6.44408 -0.01957
C 16.0149 4.99988 -0.0108
C 14.7637 4.29409 -0.00368
C 14.76961 2.90242 -0.02696
C 16.02841 2.21778 -0.00114
C 15.96409 0.72067 0.00228
C 14.69035 0.04643 0.00798
C 17.23337 32.5007 0.00422
C 18.48548 31.90304 0.0351
C 18.52829 30.48434 -0.03113
C 17.09767 29.97401 0.02098
C 18.47725 13.31297 -0.00619
C 12.28707 0.01201 -0.01952
C 20.91572 23.28843 -0.00316
C 19.49923 21.25796 -0.01979
C 23.47468 31.93751 0.0058
C 23.46363 30.54013 -0.00865
C 22.21876 29.85071 0.00675
C 22.11538 28.48915 -0.00311
C 23.31568 27.71468 0.00742
C 23.2778 26.35843 -0.01594
C 22.07568 25.52413 0.0106
C 22.1158 24.03768 -0.01154
C 23.37957 23.40253 -0.01721
C 23.38942 22.00725 -0.02422
C 22.05839 21.32445 0.01277
C 22.11412 19.90779 0.00096
C 23.30401 19.19185 -0.01527
C 23.35887 17.76174 0.01087
C 22.12388 17.06498 0.00199
C 22.133 15.62284 0.01511
C 23.35302 14.882 -0.00478
C 22.19649 32.62823 -0.00652
C 20.76284 21.9232 0.02188
C 19.57563 34.03177 -0.04076
C 20.92689 2.07766 0.00654
C 19.62192 19.82839 0.02691
C 20.91481 19.13517 -0.01581
C 20.84165 17.73951 0.01452
C 19.58187 17.04309 0.04892
C 19.56796 15.76049 -0.00111
C 20.8092 14.98989 -0.03557
C 20.86231 13.54904 0.03754
C 19.63762 12.76771 0.01739
C 19.63984 11.28273 0.00755
C 20.92764 10.70666 -0.0054
C 20.97679 9.27445 0.00667
C 19.69677 8.58508 0.00143
C 19.69346 7.14715 -0.017
C 20.87247 6.32229 0.00364
C 20.85794 4.95797 -0.00831
C 19.66992 4.22528 -0.02957
C 19.69709 2.79565 -0.04422
C 20.85809 0.68742 -0.00703
C 23.37346 13.49881 -0.01662
C 13.46011 0.78535 0.05265
C 12.32204 2.94226 0.00244
C 2.4012 4.28569 0.00488
C 2.46661 2.84972 -0.01004
C 3.64167 2.10959 -0.02896
C 3.63552 0.68999 -0.00131
C 2.45593 0.00558 -0.01118
C 4.85619 32.64395 -0.014
C 6.05921 31.92456 0.02147
C 6.13085 30.51326 0.00373
C 4.91501 29.77827 -0.00191
C 4.91684 28.411 0.00438
C 6.18958 27.66791 0.01291
C 6.13731 26.28135 0.00093
C 4.88943 25.5932 0.00057
C 4.92103 24.10245 -0.01634
C 6.24264 23.75001 -0.00334
C 4.87763 8.45059 0.02339
C 4.88878 7.06006 0.01641
C 3.66967 4.9837 0.01745
C 6.10448 6.39764 -0.00719
C 3.65368 6.39006 0.03693
C 2.47346 8.5194 -0.00482
C 3.70658 30.47251 0.01849
C 2.42113 29.85047 -0.01142
C 2.52355 28.49166 -0.00562
C 3.71693 27.79025 -0.00494
C 3.65836 26.34497 0.00054
C 2.44368 25.57553 0.03007
C 2.405 24.17445 -0.00095
C 3.69165 23.41096 0.01572
C 3.56788 22.12437 -0.04848
C 2.59829 21.19286 -0.00892
C 2.51507 19.80274 -0.01362
C 2.31619 16.87094 -0.0008
C 2.57459 15.69139 0.0288
C 2.4557 12.74076 0.00393
C 2.39282 11.40082 0.00895
C 3.59988 10.74538 0.00685
C 3.8259 9.38441 0.02888
C 2.45484 7.11755 -0.01384
C 13.52166 2.16512 -0.01717
C 6.20108 4.97332 0.01364
C 4.92849 2.79871 -0.00033
C 10.98275 30.38706 0.02894
C 9.81707 29.78569 -0.01789
C 9.78862 7.21326 0.00444
C 11.03509 6.64148 -0.00925
C 11.09475 5.0598 0.01877
C 9.85513 4.27638 0.01363
C 9.89968 2.86697 -0.02162
C 11.15494 2.15738 0.00415
C 11.0889 0.7458 -0.0014
C 9.89613 0.06092 0.02162
C 12.22582 32.67402 0.0076
C 13.45174 31.79527 0.01241
C 13.46784 30.45492 -0.01454
C 12.35212 7.05736 0.01945
C 13.55139 6.41238 0.01416
C 13.57996 4.98016 0.03542
C 12.2658 4.33613 0.02299
C 11.05051 31.8562 -0.02971
C 4.92402 4.20215 -0.01062
C 9.82521 32.69686 0.00165
C 8.5989 0.73947 -0.00891
C 6.10943 2.06486 0.03589
C 6.12143 0.61797 -0.02759
C 4.84019 34.02462 0.0402
C 7.35774 32.66464 0.00572
C 8.62604 31.96796 0.03592
C 8.55992 30.53444 0.00406
C 7.34266 29.87313 0.00943
C 7.40805 28.3679 0.02841
C 8.60849 27.73784 -0.01111
C 7.42693 25.5687 -0.01275
C 7.32043 24.31358 0.00985
C 7.28755 7.04854 -0.02245
C 8.60538 6.5299 -0.00428
C 8.66295 4.99627 0.03101
C 7.46077 4.29323 -0.01536
C 7.32856 2.80338 -0.02689
C 8.56801 2.15261 -0.01046
C 7.38053 0.00853 0.02819
C 22.1096 12.87458 -0.01185
C 22.08547 11.47737 0.01126
C 23.36975 10.7163 0.01852
C 31.89813 28.42345 0.0544
C 33.17047 27.70964 0.00026
C 33.16321 26.3152 0.00682
C 31.89923 25.56351 -0.01779
C 32.00223 24.12157 0.03794
C 33.21139 23.47812 0.01927
C 33.19906 22.05897 0.01574
C 31.9904 21.28582 -0.02383
C 31.9065 19.88852 -0.01429
C 33.1809 19.21043 -0.0136
C 33.14818 17.75221 0.00594
C 31.92704 17.00283 -0.02474
C 31.90205 15.62248 0.00369
C 33.20462 14.93561 0.00455
C 33.22592 13.53974 -0.00644
C 31.99982 12.78762 -0.01839
C 31.95228 11.40529 0.00137
C 31.94625 29.85466 -0.02142
C 33.20077 10.66443 0.00199
C 33.20628 30.52231 0.01428
C 32.00218 32.67846 0.01713
C 29.45683 17.01817 0.0101
C 29.45487 15.62934 0.01705
C 30.65938 14.93373 -0.0405
C 30.73573 13.47482 -0.01303
C 29.52062 12.79265 -0.01461
C 29.50138 11.35476 -0.02155
C 30.71483 10.686 -0.00944
C 30.68403 9.19108 -0.03735
C 29.4313 8.53222 -0.00971
C 29.50931 7.12786 0.01518
C 30.79245 6.39725 0.01908
C 30.71357 4.99724 0.07705
C 29.5091 4.29377 0.0103
C 29.47857 2.85641 0.02108
C 30.7218 2.16942 0.00716
C 30.71371 0.76197 0.00307
C 29.50773 34.06132 0.00346
C 33.20497 31.95881 -0.01694
C 30.65794 17.66596 -0.00669
C 33.18055 9.24487 0.04381
C 32.05265 7.13619 0.01504
C 1.25395 17.74618 0.01223
C 34.37759 17.10993 0.00648
C 0.04349 15.6472 0.02114
C 1.35267 14.93365 -0.02957
C 1.29718 13.45315 0.00343
C 0.00342 12.79864 -0.02656
C 34.39543 11.32191 -0.02442
C 1.15985 10.58644 -0.00027
C 1.16748 9.25256 -0.00583
C 34.40797 8.49502 -0.02302
C 34.41916 7.09406 -0.02849
C 1.24083 6.37921 0.02931
C 1.1298 4.93791 0.00628
C 34.37383 4.25842 -0.0345
C 34.39232 2.81044 -0.00931
C 1.1813 2.09086 -0.00939
C 1.22819 0.68773 -0.00468
C 1.3079 19.15233 -0.01678
C 31.93872 8.56946 0.02806
C 0.04639 19.89477 0.01951
C 1.30816 21.97932 0.02712
C 33.23999 6.36392 -0.00069
C 33.15538 4.95751 0.04926
C 31.9495 4.25467 -0.03838
C 31.92123 2.81968 0.00349
C 33.17613 2.14943 -0.00323
C 33.25004 0.78732 -0.00841
C 31.9894 0.0325 0.0001
C 0.03188 32.71281 -0.02927
C 1.21996 31.99439 -0.01404
C 1.23435 30.61526 0.01027
C 0.02697 29.83402 0.01831
C 0.04165 28.38233 -0.01037
C 1.28915 27.7458 -0.00439
C 1.21534 26.28417 -0.00598
C 34.38652 25.57274 -0.05239
C 0.01303 24.14017 0.03076
C 1.22635 23.39088 0.00723
C 0.0186 21.2936 -0.02213
C 30.7231 19.1435 0.03531
C 29.52944 19.89906 0.01836
C 29.48434 21.2548 -0.03039
C 24.59152 21.28596 0.03005
C 24.58351 19.90892 -0.04078
C 25.78348 19.13997 0.02117
C 25.78735 17.7234 0.02737
C 24.56197 16.97542 -0.00498
C 24.56526 15.60762 0.00135
C 25.82201 14.9691 0.03102
C 25.8011 13.59089 0.02555
C 24.58475 12.79323 0.01423
C 24.56827 11.39122 -0.00285
C 25.79702 10.59645 -0.009
C 25.69972 9.22493 -0.01199
C 24.62625 8.52185 -0.00229
C 25.82328 4.8767 -0.00938
C 24.63811 4.31617 -0.0264
C 24.55638 2.85405 -0.01154
C 25.82081 2.18913 0.00684
C 25.81842 22.00201 -0.0276
C 25.77753 0.80692 -0.01052
C 25.83863 23.48095 0.00768
C 24.60302 25.59021 0.00733
C 23.35079 9.26282 -0.00381
C 22.14441 8.54857 0.03046
C 22.12782 7.0757 0.0296
C 23.30606 6.43577 0.03374
C 23.3884 5.0644 -0.02845
C 22.12419 4.31724 -0.03213
C 22.14519 2.76328 0.02239
C 23.33614 2.11618 0.01153
C 23.37725 0.71514 0.02734
C 22.0974 34.05555 -0.0055
C 24.61554 32.67286 0.01515
C 25.81324 31.88032 -0.00225
C 25.87279 30.40619 0.00071
C 24.64129 29.75747 -0.01107
C 24.58117 28.3902 -0.01586
C 25.85306 27.6381 -0.01971
C 25.86134 26.28112 -0.02118
C 24.56663 24.23255 -0.00178
C 24.52322 0.02759 -0.01679
C 26.9776 32.58546 0.00367
C 28.17286 31.90367 0.04306
C 28.24132 4.96501 0.00235
C 27.08087 4.23041 0.01495
C 27.07181 2.78993 0.01259
C 28.28458 2.11452 0.01799
C 28.27318 0.66549 0.01699
C 26.97295 34.07273 -0.00416
C 29.51224 32.58877 0.01177
C 30.68374 31.9683 0.04266
C 30.74552 30.4914 0.01324
C 29.49924 29.80522 0.0014
C 29.46236 28.40441 0.00924
C 30.68593 27.6517 0.02326
C 30.69219 26.2329 0.00261
C 29.46142 25.47759 0.03265
C 29.57893 24.12069 -0.02049
C 30.80866 23.36588 -0.01854
C 30.74225 21.96513 -0.01415
C 28.4031 6.31029 0.01094
C 28.22992 9.23146 0.02198
C 28.24441 10.61421 0.02611
C 26.99451 11.34873 -0.00621
C 28.3126 30.46105 0.00996
C 27.08388 29.77283 0.00195
C 27.07529 28.34007 -0.00802
C 28.32438 27.59073 -0.00218
C 28.29292 26.19874 -0.01654
C 27.06639 25.53165 -0.00037
C 27.04776 24.10981 -0.0032
C 28.32023 23.40587 0.00622
C 3.673 31.90012 0.01396
C 28.28708 22.012 -0.02815
C 27.03264 19.90251 0.00487
C 28.28422 19.20693 0.00826
C 28.25796 17.78494 -0.00294
C 27.07719 17.06191 0.00152
C 27.05245 15.63345 0.01257
C 28.30106 14.89286 0.02316
C 28.24522 13.50335 0.04185
C 27.00757 12.80481 0.00194
C 27.03889 21.32445 -0.00942
C 2.4801 32.62072 0.0127
