379
Graphene
C 0.01276 0.033 0.01295
C 11.1121 2.12204 0.01945
C 11.01655 0.7843 0.01416
C 9.82665 0.06121 0.03542
C 12.34214 32.63773 0.02299
C 13.5933 31.98359 0.00244
C 13.55345 30.54569 -0.01717
C 12.25604 29.77707 0.05265
C 12.24674 28.36284 -0.01952
C 13.48038 27.57161 -0.02813
C 13.52101 26.22619 0.00374
C 12.34051 25.57939 0.00052
C 12.3568 24.11639 -0.03682
C 13.57163 23.40032 0.01965
C 13.56354 21.97046 0.02058
C 12.26433 21.38464 -0.01957
C 12.31446 19.85639 -0.0108
C 13.52077 19.10711 -0.00368
C 12.30114 6.98478 -0.02696
C 13.52795 6.34189 -0.00114
C 9.78221 2.80867 -0.01454
C 9.80634 4.28329 0.01241
C 11.07139 4.91352 0.0076
C 11.0455 6.44469 0.02162
C 10.99909 32.02138 0.00985
C 11.08684 30.57829 -0.02245
C 9.8586 29.85824 -0.00428
C 9.85496 28.43045 0.03101
C 11.06471 27.68742 -0.01536
C 11.05688 26.28555 -0.02689
C 9.86197 25.56128 -0.01046
C 9.8945 24.17149 -0.00891
C 11.10707 23.51837 0.02819
C 13.52214 4.98183 0.00228
C 11.05358 22.0997 0.00165
C 9.86264 19.82681 0.02894
C 11.08803 19.15468 -0.01789
C 11.08516 17.7985 0.00444
C 9.94396 17.00578 -0.00925
C 9.79365 15.55362 0.01877
C 9.82856 12.75309 0.01363
C 9.86669 11.37031 -0.02162
C 9.7234 8.50051 0.00415
C 9.85812 7.11119 -0.0014
C 9.91851 21.3226 -0.02971
C 12.28994 4.2878 0.00798
C 12.30783 2.86826 0.00422
C 13.4788 2.20926 0.0351
C 18.40497 30.5497 -0.00316
C 17.18697 29.7606 0.02188
C 17.22456 28.36322 -0.01979
C 18.47149 27.74926 0.02691
C 18.45585 26.24829 -0.01581
C 17.19298 25.57779 0.01452
C 17.21189 24.16092 0.04892
C 18.48225 23.41084 -0.00111
C 18.51278 22.05736 -0.03557
C 18.44031 31.91966 -0.0331
C 17.24458 21.32525 0.03754
C 18.44401 19.16277 0.00755
C 18.54661 4.87561 -0.0054
C 17.15607 4.29204 0.00667
C 17.19848 2.79737 0.00143
C 18.45494 2.0815 -0.017
C 18.48268 0.68806 0.00364
C 17.22262 0.04007 -0.00831
C 19.62636 32.65542 -0.02957
C 20.85836 31.96782 -0.04422
C 17.16084 19.89702 0.01739
C 9.81666 32.72063 -0.01275
C 17.21534 32.68438 -0.0258
C 16.01046 0.64761 -0.00491
C 13.52507 0.7013 -0.03113
C 12.2978 0.01759 0.02098
C 14.77196 32.68797 0.01848
C 16.04 31.97996 -0.00619
C 15.98617 30.54746 -0.02162
C 14.758 29.78758 0.00889
C 14.70278 28.36863 -0.00481
C 15.96584 27.68895 0.00979
C 16.02705 26.30376 0.01443
C 14.71647 34.06336 0.03338
C 14.72488 25.55667 0.03505
C 15.95253 23.45958 -0.04147
C 15.9818 22.01212 -0.05302
C 14.70406 21.29332 0.00213
C 14.75228 19.86177 -0.00066
C 16.0275 19.16665 -0.00289
C 15.97551 4.93888 0.00028
C 14.77016 4.20741 -0.02213
C 14.71983 2.8123 0.03698
C 15.99501 2.074 -0.00109
C 14.71213 24.12202 -0.02815
C 20.92268 30.52169 0.00654
C 7.4253 0.01777 -0.01111
C 8.56132 2.18175 0.00943
C 3.70946 4.9359 0.01087
C 2.43831 4.26851 -0.01343
C 2.43072 2.85926 0.00988
C 3.67794 2.19109 0.0276
C 3.69493 0.66532 0.01305
C 2.44032 0.02444 -0.00077
C 4.89276 32.68107 0.03368
C 6.12632 31.95025 -0.02929
C 6.13855 30.5402 -0.00966
C 4.90166 29.87356 -0.03337
C 4.94901 28.36249 0.01227
C 6.17782 27.7355 0.00873
C 6.17346 26.2984 -0.00049
C 4.9398 25.56955 0.00848
C 4.86215 24.20469 -0.01303
C 6.1678 23.47083 -0.01378
C 6.16128 21.98569 0.02635
C 4.91223 21.29201 0.0127
C 4.8699 19.91129 0.01396
C 3.73491 6.3393 -0.05697
C 2.51256 7.09558 -0.00725
C 2.43409 8.49331 0.02322
C 3.74849 9.20172 -0.00094
C 3.68722 30.53164 0.00643
C 2.38568 29.80316 -0.01509
C 2.43403 28.47062 0.03267
C 3.70665 27.70403 0.02374
C 3.73864 26.25791 0.00402
C 2.46414 25.58354 0.0073
C 2.5068 24.13612 0.0174
C 3.66034 23.38263 0.03828
C 3.72962 21.99041 0.01226
C 6.06463 19.13832 0.01849
C 2.41966 21.39921 -0.00279
C 3.65059 19.21493 -0.03996
C 3.67927 17.76291 0.01465
C 2.48889 17.07767 -0.00074
C 2.48233 15.54768 -0.00518
C 3.74851 14.91621 0.0086
C 3.71792 13.53717 -0.00643
C 2.45872 12.8309 0.017
C 2.44719 11.35982 -0.03113
C 3.64762 10.59573 -0.02566
C 2.44714 19.88918 0.01996
C 6.19281 17.76334 -0.01142
C 4.93001 16.99728 -0.00562
C 4.9417 15.63285 -0.00494
C 8.62927 23.50858 0.00373
C 8.59191 22.04225 -0.00191
C 7.451 21.28963 0.00438
C 7.43302 19.8806 0.01291
C 8.63742 19.20311 0.00093
C 8.57799 17.64751 0.00057
C 7.37264 17.02845 -0.01634
C 7.34647 15.6498 -0.00334
C 8.56587 14.87782 0.02339
C 7.38443 24.15226 0.02147
C 8.61795 13.52613 0.01641
C 7.3492 11.40848 0.01364
C 8.65101 10.6177 -0.01062
C 8.58275 9.26624 -0.00033
C 7.35882 8.54295 0.03589
C 7.40745 7.12198 -0.02759
C 8.59944 6.38418 0.0402
C 8.60926 4.97754 0.00572
C 7.39773 4.31147 0.03592
C 7.35314 2.85816 0.00406
C 7.35487 12.83061 -0.00719
C 8.63475 0.71091 0.02841
C 7.38564 25.61009 -0.014
C 8.60623 27.73786 -0.00131
C 6.19552 14.95347 0.00054
C 6.11125 13.56524 0.03007
C 4.89531 12.81592 -0.00095
C 4.90824 11.37732 0.01572
C 6.06115 10.65166 -0.04848
C 6.15142 9.26235 -0.00892
C 4.92814 8.51267 -0.01362
C 4.92922 7.09668 -0.0008
C 6.12764 6.44034 0.0288
C 8.5912 26.31888 -0.01118
C 6.1619 5.00381 0.00393
C 4.85127 2.85206 0.00685
C 6.0992 2.16214 0.02888
C 6.14292 0.67789 -0.00482
C 4.93002 34.05966 -0.01384
C 7.33179 32.70545 0.03693
C 8.57141 31.9797 0.01745
C 8.63864 30.59362 0.00488
C 7.37609 29.79601 -0.01004
C 7.37629 28.44553 -0.02896
C 4.87694 4.26661 0.00895
C 3.69707 31.96738 0.00907
C 19.64325 29.85596 -0.00703
C 20.85471 27.69265 -0.00652
C 29.47768 2.84221 0.02108
C 30.71056 2.07776 0.00716
C 30.75366 0.73649 0.00307
C 29.44448 34.06384 0.00346
C 31.97349 32.69431 0.01713
C 33.20195 31.92 -0.01694
C 33.19351 30.5257 0.01428
C 31.97449 29.83622 -0.02142
C 32.02552 28.3934 0.0544
C 33.23797 27.75133 0.00026
C 33.1793 26.26556 0.00682
C 31.9567 25.55814 -0.01779
C 31.96179 24.14304 0.03794
C 33.15259 23.48147 0.01927
C 33.25321 22.00832 0.01574
C 32.00311 21.26191 -0.02383
C 32.02235 19.85587 -0.01429
C 33.20131 19.19829 -0.0136
C 33.18499 17.78126 0.00594
C 29.50228 4.26641 0.0103
C 30.72493 4.97634 0.07705
C 30.73775 6.38131 0.01908
C 29.50577 7.13663 0.01518
C 29.5788 28.43741 0.00924
C 30.76979 27.59976 0.02326
C 30.76064 26.21557 0.00261
C 29.51027 25.55274 0.03265
C 29.50964 24.14709 -0.02049
C 30.75272 23.39439 -0.01854
C 30.71175 22.03675 -0.01415
C 29.57481 21.25438 -0.03039
C 29.4764 19.8224 0.01836
C 31.94548 17.06363 -0.02474
C 30.71141 19.12721 0.03531
C 29.46178 17.06583 0.0101
C 29.49945 15.61672 0.01705
C 30.78 14.86018 -0.0405
C 30.77754 13.48144 -0.01303
C 29.52255 12.8188 -0.01461
C 29.58105 11.34742 -0.02155
C 30.74162 10.57603 -0.00944
C 30.75654 9.2215 -0.03735
C 29.55988 8.50957 -0.00971
C 30.70329 17.7258 -0.00669
C 32.0084 15.58832 0.00369
C 33.21554 14.89841 0.00455
C 33.19862 13.47753 -0.00644
C 0.0198 21.36403 -0.02213
C 34.42335 19.89711 0.01951
C 1.27082 19.23126 -0.01678
C 1.18893 17.77578 0.01223
C 34.4265 17.03066 0.00648
C 34.42921 15.60063 0.02114
C 1.27526 14.95176 -0.02957
C 1.25886 13.49358 0.00343
C 34.40975 12.72899 -0.02656
C 1.20302 22.07729 0.02712
C 34.41348 11.36268 -0.02442
C 1.25276 9.28005 -0.00583
C 34.38144 8.45075 -0.02302
C 34.38749 7.07308 -0.02849
C 1.21221 6.3665 0.02931
C 1.27911 4.95254 0.00628
C 34.36991 4.20756 -0.0345
C 34.37894 2.82993 -0.00931
C 1.22323 2.0967 -0.00939
C 1.20984 0.71846 -0.00468
C 1.21402 10.61629 -0.00027
C 29.50988 29.88183 0.0014
C 1.22786 23.49866 0.00723
C 34.42461 25.57495 -0.05239
C 31.97129 12.75859 -0.01839
C 31.91567 11.31643 0.00137
C 33.12626 10.66623 0.00199
C 33.19437 9.24758 0.04381
C 32.0125 8.47942 0.02806
C 31.96956 7.09868 0.01504
C 33.1562 6.4342 -0.00069
C 33.20876 5.00094 0.04926
C 31.96339 4.32965 -0.03838
C 34.39909 24.17434 0.03076
C 31.93953 2.85013 0.00349
C 33.20597 0.73526 -0.00841
C 31.9889 0.00298 0.0001
C 0.01251 32.66567 -0.02927
C 1.20644 31.92349 -0.01404
C 1.19871 30.52258 0.01027
C 34.41272 29.84433 0.01831
C 34.42745 28.47936 -0.01037
C 1.23901 27.63124 -0.00439
C 1.23791 26.23502 -0.00598
C 33.13548 2.11654 -0.00323
C 19.69008 28.43114 -0.04076
C 30.78694 30.53119 0.01324
C 29.44595 32.60197 0.01177
C 23.33249 23.41037 0.03374
C 23.38183 22.00311 -0.02845
C 22.12523 21.26717 -0.03213
C 22.11228 19.90617 0.02239
C 23.39669 19.12885 0.01153
C 23.36245 17.7144 0.02734
C 22.12018 17.07579 -0.0055
C 23.34809 14.9068 0.01515
C 23.3953 10.53604 -0.00225
C 23.31983 9.28713 0.00071
C 23.32337 0.66493 -0.01107
C 22.15449 34.07347 -0.01586
C 24.63273 32.62923 -0.01971
C 25.80272 31.98175 -0.02118
C 25.72338 30.52451 0.00733
C 24.51728 29.77874 -0.00178
C 24.57436 28.32322 0.00768
C 25.79044 27.71934 -0.0276
C 25.85683 26.26442 0.03005
C 22.16329 24.12865 0.0296
C 22.0448 25.55674 0.03046
C 23.29929 26.18944 -0.00381
C 23.37358 27.64353 0.01852
C 20.90027 26.25494 0.0058
C 19.7128 25.51085 -0.00865
C 19.73339 24.0959 0.00675
C 20.9504 23.41346 -0.00311
C 20.89669 22.00585 0.00742
C 19.71421 21.21303 -0.01594
C 19.62961 19.81997 0.0106
C 20.8848 19.19899 -0.01154
C 20.99449 17.67838 -0.01721
C 24.65784 25.50907 -0.04078
C 20.8196 6.31793 -0.02422
C 19.69016 2.8122 0.00096
C 20.89533 2.12357 -0.01527
C 20.92189 0.68181 0.01087
C 19.72106 0.00889 0.00199
C 22.09843 32.63908 0.01511
C 23.36759 31.96999 -0.00478
C 23.3972 30.52172 -0.01662
C 22.18746 29.83469 -0.01185
C 22.17956 28.4255 0.01126
C 19.64975 4.31953 0.01277
C 24.6177 24.05811 0.02117
C 25.83195 23.45204 0.02737
C 25.8699 22.04845 -0.00498
C 28.27041 22.04883 -0.02815
C 27.03321 21.29232 -0.00942
C 27.03558 19.89104 0.00487
C 28.23434 19.19925 0.00826
C 28.26359 17.74687 -0.00294
C 27.08551 17.06684 0.00152
C 27.04073 15.67848 0.01257
C 28.27666 14.86806 0.02316
C 28.30798 13.5298 0.04185
C 28.32001 23.41889 0.00622
C 27.1116 12.75692 0.00194
C 28.2263 10.62822 0.02611
C 28.30862 9.24527 0.02198
C 27.01423 8.50332 0.01094
C 28.44061 6.38922 0.00235
C 28.24145 5.03891 0.01495
C 27.07659 2.83146 0.01259
C 28.27629 2.11588 0.01799
C 28.19599 0.70241 0.01699
C 26.96546 0.00882 -0.00416
C 27.02523 11.36632 -0.00621
C 30.71567 31.93846 0.04266
C 27.10006 24.11181 -0.0032
C 28.19776 26.2342 -0.01654
C 24.60594 21.32168 0.00135
C 24.56252 19.89456 0.03102
C 25.77616 19.13678 0.02555
C 25.78292 17.76526 0.01423
C 24.59119 17.03958 -0.00285
C 24.5792 15.58304 -0.009
C 25.8298 14.91624 -0.01199
C 25.83347 13.41398 -0.00229
C 24.64398 12.79113 -0.00938
C 27.04033 25.53067 -0.00037
C 24.55423 11.38845 -0.0264
C 25.96032 9.30444 0.00684
C 25.83452 0.68783 -0.01052
C 24.56855 34.04198 -0.01679
C 27.03201 32.63712 0.00367
C 28.25748 31.98635 0.04306
C 28.23491 30.5608 0.00996
C 27.04277 29.81495 0.00195
C 27.11033 28.44787 -0.00802
C 28.32263 27.71647 -0.00218
C 25.82041 10.67294 -0.01154
C 2.43131 32.62193 0.02379
