440
Graphene
C 0.06013 0.03426 0.01295
C 13.41426 19.29617 -0.01634
C 13.49127 17.768 -0.00334
C 12.25234 17.06828 0.02339
C 12.32921 15.68396 0.01641
C 13.55564 14.92449 -0.00719
C 13.47573 13.48179 0.01364
C 12.30674 12.75252 -0.01062
C 12.28467 11.31174 -0.00033
C 13.41671 10.55874 0.03589
C 13.40015 9.06355 -0.02759
C 12.44669 4.31308 0.0402
C 12.35441 2.86831 0.00572
C 13.56771 2.09734 0.03592
C 13.52429 0.69604 0.00406
C 12.31873 34.04109 0.00943
C 14.81952 32.66727 0.02841
C 15.97071 31.87979 -0.01111
C 15.9939 30.43494 -0.01275
C 14.6694 29.74229 0.00985
C 14.69721 28.31248 -0.02245
C 15.95159 27.62256 -0.00428
C 15.95273 26.283 0.03101
C 14.75872 25.53272 -0.01536
C 12.25293 19.97493 0.00057
C 12.2808 21.37548 0.00093
C 13.57789 22.04805 0.01291
C 13.51062 23.441 0.00438
C 9.80552 15.6183 -0.00095
C 11.14049 14.93947 0.01572
C 11.07231 13.55249 -0.04848
C 9.77372 12.89462 -0.00892
C 9.8074 11.46271 -0.01362
C 11.01355 10.72368 -0.0008
C 11.01739 9.29416 0.0288
C 10.06735 8.40814 0.00393
C 9.91031 6.95688 0.00895
C 11.25422 5.05652 0.00685
C 9.91725 4.37894 0.02888
C 14.768 24.20164 -0.02689
C 9.9185 2.87926 -0.00482
C 10.97765 0.71406 0.03693
C 9.76653 0.03915 0.01745
C 12.3269 32.69334 0.00488
C 13.55662 31.94113 -0.01004
C 13.59597 30.54115 -0.02896
C 12.25879 29.97818 -0.00131
C 12.23897 28.50816 -0.01118
C 13.39027 27.68998 -0.014
C 13.4724 26.32539 0.02147
C 12.25496 25.5977 0.00373
C 12.2709 24.11534 -0.00191
C 11.09943 2.15888 -0.01384
C 9.84783 17.07893 0.03007
C 16.01779 23.42242 -0.01046
C 14.82423 21.37043 0.02819
C 18.44989 23.42143 0.02058
C 18.53901 22.03016 -0.01957
C 17.28263 21.26962 -0.0108
C 17.23794 19.837 -0.00368
C 18.41047 19.12244 -0.02696
C 18.39885 17.6497 -0.00114
C 17.10971 16.96076 0.00228
C 17.19719 15.54844 0.00798
C 18.43514 14.87838 0.00422
C 18.36981 13.42639 0.0351
C 17.13452 12.77949 -0.03113
C 17.10689 11.37631 0.02098
C 18.36202 10.70908 0.01848
C 18.39459 9.28595 -0.00619
C 17.22652 8.49754 -0.02162
C 17.22179 7.11646 0.00889
C 18.46691 6.38939 -0.00481
C 18.44695 4.9648 0.00979
C 17.18773 4.3067 0.01443
C 17.22377 2.8955 0.03505
C 18.41335 2.09889 -0.02815
C 18.40105 0.68769 -0.04147
C 17.19695 34.04448 -0.05302
C 17.23688 24.17062 0.01965
C 17.16989 25.55468 -0.03682
C 18.45635 26.28747 0.00052
C 18.39452 27.70023 0.00374
C 14.79543 19.90535 0.00165
C 15.9737 19.17898 -0.02971
C 15.95459 17.75867 0.02894
C 14.69866 17.07637 -0.01789
C 14.79371 15.67274 0.00444
C 16.01296 14.81486 -0.00925
C 15.87401 13.43007 0.01877
C 14.65863 12.68571 0.01363
C 14.58754 11.23831 -0.02162
C 15.9155 10.59601 0.00415
C 15.9168 9.16718 -0.0014
C 16.01899 22.02295 -0.00891
C 14.69996 8.53792 0.02162
C 15.80588 5.09818 0.01241
C 14.59913 4.29017 -0.01454
C 14.77153 2.86583 0.01945
C 16.03665 2.13698 0.01416
C 15.97297 0.77104 0.03542
C 14.80095 34.03219 0.02299
C 17.15979 32.58296 0.00244
C 18.39887 31.99726 -0.01717
C 18.36799 30.60423 0.05265
C 17.19536 29.778 -0.01952
C 17.13499 28.4527 -0.02813
C 15.98176 6.46241 0.0076
C 19.62279 32.63449 0.00213
C 11.01515 17.84337 0.00054
C 9.76295 19.95266 -0.00562
C 3.74258 0.71451 0.04421
C 2.56005 0.00983 0.00088
C 4.96681 32.6929 0.00828
C 6.20252 31.94733 -0.02375
C 6.16101 30.58912 0.00558
C 4.93082 29.75669 -0.0059
C 5.02218 28.38285 -0.01386
C 6.21692 27.67077 -0.02805
C 6.19601 26.25746 0.00081
C 4.92915 25.65988 0.00245
C 4.91478 24.13057 0.02728
C 6.15272 23.45813 -0.00039
C 6.1656 22.04879 0.0064
C 5.00115 21.2711 0.00211
C 4.86303 19.85638 -0.00449
C 6.14953 19.08379 -0.01979
C 6.13061 17.63832 0.02784
C 4.88999 17.11025 -0.01977
C 4.82426 15.6527 -0.00561
C 6.0857 14.96994 0.00208
C 6.03963 13.58114 0.01707
C 4.84507 12.72904 0.02769
C 4.8716 11.41135 -0.03291
C 3.71243 2.17354 -0.00177
C 2.4779 2.86417 0.03278
C 2.47748 4.29246 0.01138
C 3.6992 5.05704 -0.00407
C 3.74024 30.49493 0.01116
C 2.46234 29.77329 -0.0005
C 2.42736 28.35059 -0.00018
C 3.71364 27.74817 0.01073
C 3.63279 26.3122 0.01984
C 2.36051 25.57283 0.00535
C 2.45314 24.1825 -0.00198
C 3.64304 23.45667 -0.00012
C 3.70612 22.0223 -0.04306
C 2.47961 21.29848 -0.03672
C 2.43032 19.90815 0.01913
C 6.11336 10.6788 -0.04999
C 3.65623 19.12555 0.00267
C 2.35766 16.99447 0.02426
C 2.33463 15.5395 0.01218
C 3.6325 14.92155 -0.01471
C 3.70706 13.49137 -0.02827
C 2.44584 12.81658 0.01078
C 2.42902 11.33143 -0.00112
C 3.62247 10.68631 0.03345
C 3.60496 9.289 0.00748
C 2.46889 8.51664 0.00662
C 2.46589 7.06735 -0.0154
C 3.71601 6.45283 -0.01299
C 3.53906 17.7039 0.00787
C 10.97624 19.29082 -0.00494
C 6.10357 9.28913 0.04505
C 4.93155 7.22445 -0.04307
C 8.61019 10.79664 -0.00725
C 8.69064 9.28091 -0.05697
C 7.48319 8.58619 0.01087
C 7.42136 7.22044 -0.01343
C 8.60789 6.41756 0.00988
C 8.69174 4.98666 0.0276
C 7.33428 4.27366 0.01305
C 7.38156 2.8831 -0.00077
C 8.62231 2.22198 0.03368
C 8.55004 0.77069 -0.02929
C 7.34088 0.0803 -0.00966
C 9.74417 32.68546 -0.03337
C 11.0679 31.99963 0.01227
C 11.02421 30.55907 0.00873
C 9.79154 29.8532 -0.00049
C 9.79666 28.45228 0.00848
C 11.08719 27.76734 -0.01303
C 11.11391 26.35033 -0.01378
C 9.87332 25.53759 0.02635
C 9.83993 24.20988 0.0127
C 11.07978 23.4432 0.01396
C 11.08629 22.07635 0.01849
C 9.78248 21.40514 -0.01142
C 7.3082 11.38145 0.02322
C 7.28483 12.82866 -0.00094
C 8.52426 13.43154 -0.02566
C 8.60246 14.86523 -0.03113
C 6.14425 6.52201 0.03189
C 6.14285 5.09166 0.00031
C 4.87633 4.27763 -0.003
C 4.98387 2.91369 0.01402
C 6.20153 2.16875 0.02379
C 6.12554 0.76775 0.00907
C 4.92183 0.02555 0.00643
C 7.33779 32.72524 -0.01509
C 8.5472 31.99444 0.03267
C 8.57786 30.52571 0.02374
C 7.40965 29.79459 0.00402
C 4.925 8.60672 0.03284
C 7.44557 28.36026 0.0073
C 8.6701 26.29596 0.03828
C 7.39501 25.54829 0.01226
C 7.41118 24.10395 -0.00279
C 8.6312 23.41749 0.01996
C 8.56039 22.0498 -0.03996
C 7.39935 21.29646 0.01465
C 7.29963 19.8699 -0.00074
C 8.55511 19.20451 -0.00518
C 8.54936 17.77368 0.0086
C 7.45001 16.999 -0.00643
C 7.35703 15.56625 0.017
C 8.68305 27.64367 0.0174
C 20.89768 31.92851 -0.00066
C 20.82007 30.56917 -0.00289
C 19.59003 29.82703 0.00028
C 30.70479 14.78858 -0.0405
C 30.76332 13.33236 -0.01303
C 29.43768 12.72469 -0.01461
C 29.38943 11.34143 -0.02155
C 30.68549 10.64714 -0.00944
C 30.67067 9.20704 -0.03735
C 29.4718 8.4608 -0.00971
C 29.5119 7.00271 0.01518
C 30.82699 6.3025 0.01908
C 30.80994 4.91001 0.07705
C 29.57128 4.24932 0.0103
C 29.51406 2.75883 0.02108
C 30.70595 2.06388 0.00716
C 30.76381 0.67548 0.00307
C 29.51014 34.07339 0.00346
C 31.96428 32.62768 0.01713
C 33.25985 32.02972 -0.01694
C 33.22786 30.5523 0.01428
C 31.96645 29.90785 -0.02142
C 31.94729 28.44855 0.0544
C 33.18201 27.70401 0.00026
C 33.1563 26.31453 0.00682
C 31.97078 25.61607 -0.01779
C 29.62136 15.6273 0.01705
C 29.53686 17.09802 0.0101
C 30.78631 17.80442 -0.00669
C 29.42227 21.39008 0.03531
C 27.05359 12.87549 0.00194
C 26.9851 11.31709 -0.00621
C 28.20826 10.60998 0.02611
C 28.28523 9.1448 0.02198
C 27.04648 8.48203 0.01094
C 27.0584 7.08308 0.00235
C 28.34965 6.32692 0.01495
C 28.27964 4.85862 0.01259
C 26.96426 4.24655 0.01799
C 27.05449 2.81353 0.01699
C 28.28231 2.1403 -0.00416
C 31.95422 24.12018 0.03794
C 28.28183 0.65399 0.01177
C 29.53077 32.65302 0.01324
C 30.72467 31.91664 0.0014
C 30.68015 30.53317 0.00924
C 29.45508 29.80158 0.02326
C 29.51548 28.34296 0.00261
C 30.76716 27.77478 0.03265
C 30.72089 26.31432 -0.02049
C 29.50512 25.57019 -0.01854
C 29.4274 24.17584 -0.01415
C 30.68677 23.46827 -0.03039
C 30.65303 22.0497 0.01836
C 27.06939 0.02695 0.04266
C 28.28499 13.60836 0.04185
C 33.14815 23.4023 0.01927
C 31.8395 21.19356 -0.02383
C 34.3933 24.15681 0.03076
C 1.21779 23.47531 0.00723
C 1.2974 22.03304 0.02712
C 0.06342 21.23067 -0.02213
C 34.42094 19.89109 0.01951
C 1.15882 19.08499 -0.01678
C 1.17176 17.67937 0.01223
C 34.36401 16.98349 0.00648
C 34.38057 15.5851 0.02114
C 1.21711 14.8295 -0.02957
C 1.23728 13.3866 0.00343
C 34.39651 12.69847 -0.02656
C 0.02476 11.32069 -0.02442
C 1.26464 10.57204 -0.00027
C 1.21893 9.2298 -0.00583
C 0.01359 8.50352 -0.02302
C 0.0232 7.07566 -0.02849
C 1.26262 6.33567 0.02931
C 1.21412 4.95933 0.00628
C 0.06429 4.17519 -0.0345
C 0.02987 2.76619 -0.00931
C 1.26534 2.12134 -0.00939
C 1.29385 0.73855 -0.00468
C 34.34096 25.5127 -0.05239
C 1.16816 26.28328 -0.00598
C 1.24174 27.685 -0.00439
C 34.39499 28.43283 -0.01037
C 31.99287 19.76737 -0.01429
C 33.14516 19.13699 -0.0136
C 33.1177 17.70771 0.00594
C 31.97472 16.95936 -0.02474
C 31.98371 15.58122 0.00369
C 33.18872 14.88551 0.00455
C 33.19559 13.45186 -0.00644
C 31.99061 12.69308 -0.01839
C 31.96404 11.29668 0.00137
C 33.21586 10.56134 0.00199
C 33.22133 9.16441 0.04381
C 33.1534 22.01207 0.01574
C 31.96267 8.5538 0.02806
C 33.29818 6.34443 -0.00069
C 33.26415 4.96983 0.04926
C 32.02958 4.17899 -0.03838
C 32.01474 2.76999 0.00349
C 33.21101 2.06102 -0.00323
C 33.20857 0.6737 -0.00841
C 31.96623 34.06502 0.0001
C 0.02475 32.71827 -0.02927
C 1.29137 31.97524 -0.01404
C 1.24833 30.51325 0.01027
C 34.42081 29.82484 0.01831
C 31.97759 7.09503 0.01504
C 28.37752 15.02525 0.02316
C 27.08934 15.60249 0.01257
C 27.0236 17.10168 0.00152
C 22.14123 32.67944 -0.00703
C 23.34708 31.98297 -0.04076
C 23.32871 30.53002 -0.00652
C 22.11228 29.84843 0.0058
C 22.05271 28.4079 -0.00865
C 23.3445 27.70283 0.00675
C 23.39609 26.31366 -0.00311
C 22.09269 25.64539 0.00742
C 22.07721 24.17507 -0.01594
C 23.2779 23.54429 0.0106
C 23.34437 22.00898 -0.01154
C 22.19045 21.26556 -0.01721
C 22.14026 19.90765 -0.02422
C 23.45079 19.17773 0.01277
C 23.42078 17.72302 0.00096
C 22.22343 17.10585 -0.01527
C 22.11734 15.62011 0.01087
C 23.4445 14.84603 0.00199
C 23.39413 13.47011 0.01511
C 22.09622 12.83261 -0.00478
C 22.10459 11.40853 -0.01662
C 23.29631 10.65589 -0.01185
C 23.33319 9.26734 0.01126
C 19.68248 34.04572 0.00654
C 20.87965 0.65929 -0.04422
C 20.89941 2.09132 -0.02957
C 19.62169 2.79827 -0.00831
C 19.58326 28.41054 -0.02213
C 20.83264 27.7562 0.03698
C 20.89564 26.30507 -0.00109
C 19.68717 25.58389 -0.00491
C 19.72232 24.16631 0.03338
C 20.92892 23.37011 -0.0258
C 20.96916 21.99625 -0.0331
C 19.72798 21.21638 -0.00316
C 19.68611 19.82667 0.02188
C 20.94857 19.18833 -0.01979
C 20.85085 17.68377 0.02691
C 22.12579 8.48695 0.01852
C 19.65695 17.02635 -0.01581
C 20.96772 14.97993 0.04892
C 20.86414 13.49417 -0.00111
C 19.63893 12.79619 -0.03557
C 19.56575 11.41672 0.03754
C 20.76719 10.64025 0.01739
C 20.87774 9.2285 0.00755
C 19.6528 8.55645 -0.0054
C 19.66758 7.1767 0.00667
C 20.86912 6.39257 0.00143
C 20.85392 5.0063 -0.017
C 19.6786 4.26294 0.00364
C 19.71841 15.57574 0.01452
C 22.11728 7.11104 -0.00381
C 23.3784 6.41079 0.03046
C 23.37052 4.97605 0.0296
C 24.53637 8.58482 -0.009
C 24.60497 7.09236 -0.01199
C 25.83293 6.38441 -0.00229
C 25.82787 5.00154 -0.00938
C 24.56615 4.29205 -0.0264
C 24.57049 2.84334 -0.01154
C 25.79802 2.07251 0.00684
C 25.78044 0.75594 -0.01052
C 24.61694 34.07527 -0.01679
C 27.00381 32.70054 0.00367
C 28.34079 31.96578 0.04306
C 25.80477 9.17389 -0.00285
C 28.22421 30.58369 0.00996
C 27.0933 28.43835 -0.00802
C 28.27695 27.67571 -0.00218
C 28.25814 26.24007 -0.01654
C 26.91587 25.53439 -0.00037
C 26.9358 24.11075 -0.0032
C 28.2467 23.42939 0.00622
C 28.19134 22.03317 -0.02815
C 26.96861 21.32545 -0.00942
C 26.97903 19.90974 0.00487
C 28.14682 19.13101 0.00826
C 28.31057 17.72525 -0.00294
C 27.08473 29.81906 0.00195
C 3.71199 31.88276 -0.0213
C 25.79645 10.68697 0.01423
C 24.59167 12.74617 0.03102
C 22.10387 4.27974 0.03374
C 22.05243 2.87654 -0.02845
C 23.31983 2.13871 -0.03213
C 23.35189 0.6865 0.02239
C 22.14625 0.01017 0.01153
C 24.65062 32.64729 0.02734
C 25.90883 31.94398 -0.0055
C 25.85035 30.56039 0.01515
C 24.5502 29.84411 -0.00225
C 24.57012 28.46195 0.00071
C 25.81467 27.75312 -0.01107
C 24.55164 11.32685 0.02555
C 25.85009 26.31107 -0.01586
C 24.55076 24.17371 -0.02118
C 25.76711 23.42164 0.00733
C 25.78287 22.02158 -0.00178
C 24.56119 21.31749 0.00768
C 24.54279 19.83457 -0.0276
C 25.7937 19.18488 0.03005
C 25.81951 17.72013 -0.04078
C 24.64235 17.015 0.02117
C 24.60104 15.6301 0.02737
C 25.86392 14.8879 -0.00498
C 25.83112 13.48456 0.00135
C 24.58445 25.56928 -0.01971
C 2.45375 32.65112 -0.00374
