399
Graphene
C 0.0043 0.03323 0.01295
C 9.7513 0.03795 -0.02971
C 12.21001 32.76508 0.02894
C 13.4701 31.91152 -0.01789
C 13.3317 30.45955 0.00444
C 12.14194 29.76287 -0.00925
C 12.22777 28.31311 0.01877
C 13.50226 27.65461 0.01363
C 13.56088 26.24754 -0.02162
C 12.30072 25.56991 0.00415
C 12.33 24.18212 -0.0014
C 13.5473 23.40027 0.02162
C 13.57044 21.98724 0.0076
C 12.33848 21.22614 0.01241
C 12.35445 19.86609 -0.01454
C 13.60167 19.24181 0.01945
C 13.61512 17.76138 0.01416
C 12.33488 17.06047 0.03542
C 12.19451 15.65156 0.02299
C 13.51467 14.91858 0.00244
C 13.49853 13.51949 -0.01717
C 12.31241 12.76247 0.05265
C 10.94723 0.67578 0.00165
C 12.3052 11.33204 -0.01952
C 10.98171 2.23665 0.02819
C 9.79323 4.29864 -0.01046
C 10.99579 26.25687 0.01641
C 9.7885 25.5305 -0.00719
C 9.84361 24.1579 0.01364
C 11.05889 23.45421 -0.01062
C 11.08218 22.02617 -0.00033
C 9.88197 21.22209 0.03589
C 9.92875 19.8083 -0.02759
C 11.14061 19.11947 0.0402
C 11.02816 17.79399 0.00572
C 9.83098 17.0474 0.03592
C 9.83292 15.64382 0.00406
C 11.06722 14.9685 0.00943
C 11.1402 13.40626 0.02841
C 9.78805 12.76739 -0.01111
C 9.77152 11.30567 -0.01275
C 11.05677 10.6446 0.00985
C 11.09123 9.21979 -0.02245
C 9.88822 8.59819 -0.00428
C 9.87721 7.23719 0.03101
C 11.09029 6.47036 -0.01536
C 11.03248 5.02783 -0.02689
C 9.73703 2.9414 -0.00891
C 10.96981 27.67774 0.02339
C 13.58336 10.65561 -0.02813
C 12.38055 8.56059 0.00052
C 15.9211 14.90654 0.00213
C 16.03574 13.47939 -0.00066
C 14.75789 12.80626 -0.00289
C 14.77838 11.37047 0.00028
C 16.04394 10.66147 -0.02213
C 16.01609 9.20491 0.03698
C 14.77902 8.51939 -0.00109
C 14.81304 7.1455 -0.00491
C 16.06319 6.37678 0.03338
C 16.0309 4.9758 -0.0258
C 14.79488 4.266 -0.0331
C 14.74253 2.80543 -0.00316
C 15.97401 2.11175 0.02188
C 15.93001 0.73729 -0.01979
C 14.67891 34.07409 0.02691
C 17.1444 32.638 -0.01581
C 18.34133 31.86126 0.01452
C 18.40685 30.48784 0.04892
C 17.11786 29.80791 -0.00111
C 17.16028 28.40673 -0.03557
C 18.39154 27.68744 0.03754
C 14.73162 15.65036 -0.05302
C 13.59845 9.21129 0.00374
C 14.78297 17.1002 -0.04147
C 16.12143 19.12943 0.03505
C 12.3507 7.09589 -0.03682
C 13.6274 6.3501 0.01965
C 13.57953 5.00356 0.02058
C 12.33473 4.35013 -0.01957
C 12.30333 2.93718 -0.0108
C 13.46588 2.12173 -0.00368
C 13.36773 0.72495 -0.02696
C 12.15389 0.00747 -0.00114
C 14.72793 32.61488 0.00228
C 15.92568 31.93825 0.00798
C 15.94552 30.51964 0.00422
C 14.61835 29.83178 0.0351
C 14.73501 28.44517 -0.03113
C 15.88048 27.65571 0.02098
C 15.92533 26.26307 0.01848
C 14.77108 25.52488 -0.00619
C 14.74747 24.09213 -0.02162
C 16.02276 23.32324 0.00889
C 16.08036 21.9335 -0.00481
C 14.82288 21.27686 0.00979
C 14.83072 19.83283 0.01443
C 15.9947 17.75864 -0.02815
C 18.33242 26.28363 0.01739
C 9.73747 28.4461 -0.00334
C 11.01188 30.58066 0.00057
C 2.43632 4.36985 0.0073
C 2.38521 2.93906 0.0174
C 3.6185 2.20628 0.03828
C 3.62248 0.78371 0.01226
C 2.48252 0.02426 -0.00279
C 4.84353 32.82314 0.01996
C 6.0607 32.05144 -0.03996
C 6.05225 30.61929 0.01465
C 4.83244 29.83395 -0.00074
C 4.8094 28.46823 -0.00518
C 6.04359 27.73715 0.0086
C 6.14058 26.35825 -0.00643
C 4.87475 25.53462 0.017
C 4.8872 24.14676 -0.03113
C 6.1925 23.43223 -0.02566
C 6.15483 22.04503 -0.00094
C 4.87362 21.36685 0.02322
C 4.88905 19.91078 -0.00725
C 6.15939 19.14711 -0.05697
C 6.14497 17.72156 0.01087
C 4.90761 17.10378 -0.01343
C 3.64851 5.045 0.00402
C 4.81175 15.61488 0.00988
C 3.67472 6.4757 0.02374
C 2.45636 8.54539 -0.01509
C 3.63886 30.62161 0.00211
C 2.4026 29.91163 -0.00449
C 2.42401 28.45295 -0.01979
C 3.6502 27.65834 0.02784
C 3.63999 26.23394 -0.01977
C 2.43396 25.53108 -0.00561
C 2.48163 24.12969 0.00208
C 3.68751 23.43231 0.01707
C 3.66136 21.97914 0.02769
C 2.46543 21.28808 -0.03291
C 2.44636 19.84403 -0.04999
C 3.66474 19.14056 0.04505
C 3.71817 17.77044 0.03284
C 2.44722 17.10842 -0.04307
C 2.36235 15.65178 0.03189
C 3.56948 14.91323 0.00031
C 3.61867 13.4802 -0.003
C 2.40604 12.83561 0.01402
C 2.39287 11.3914 0.02379
C 3.64362 10.64136 0.00907
C 3.66676 9.28878 0.00643
C 2.35174 7.16734 0.03267
C 9.85988 29.80168 -0.01634
C 6.08388 14.94518 0.0276
C 4.89221 12.84057 -0.00077
C 8.57051 19.14978 0.0288
C 8.60599 17.73718 0.00393
C 7.40873 17.05417 0.00895
C 7.36594 15.62083 0.00685
C 8.63804 14.88353 0.02888
C 8.56116 13.46196 -0.00482
C 7.37291 12.86053 -0.01384
C 7.36207 11.37426 0.03693
C 8.56352 10.69193 0.01745
C 8.61429 9.26393 0.00488
C 7.41033 8.61506 -0.01004
C 7.34611 7.21275 -0.02896
C 8.5287 6.49797 -0.00131
C 8.56201 5.08107 -0.01118
C 7.33098 4.349 -0.014
C 7.32046 2.92897 0.02147
C 8.5329 2.24412 0.00373
C 8.47887 0.82512 -0.00191
C 7.27524 0.07665 0.00438
C 9.78156 32.77994 0.01291
C 10.94131 32.04 0.00093
C 7.37414 19.886 -0.0008
C 6.1549 13.50866 0.01305
C 7.42697 21.33908 -0.01362
C 8.55808 23.48627 -0.04848
C 4.86739 11.39646 0.03368
C 6.12772 10.68158 -0.02929
C 6.11829 9.27526 -0.00966
C 4.87926 8.68223 -0.03337
C 4.93024 7.24113 0.01227
C 6.11877 6.45626 0.00873
C 6.09312 5.11441 -0.00049
C 4.92214 4.39438 0.00848
C 4.82598 2.96813 -0.01303
C 6.10737 2.25536 -0.01378
C 6.15032 0.91019 0.02635
C 4.92821 0.17026 0.0127
C 7.28501 32.70055 0.01396
C 8.52699 32.01219 0.01849
C 8.54668 30.57638 -0.01142
C 7.32349 29.92737 -0.00562
C 7.29725 28.45779 -0.00494
C 8.49448 27.72972 0.00054
C 8.52939 26.28499 0.03007
C 7.26926 25.62403 -0.00095
C 7.35476 24.17312 0.01572
C 8.59567 22.00808 -0.00892
C 3.6454 32.07713 0.0064
C 17.15885 25.54374 0.00755
C 18.44714 23.38832 0.00667
C 30.50213 13.43396 0.01518
C 30.59241 6.25306 0.01908
C 30.70364 4.87626 0.07705
C 29.46286 4.21861 0.0103
C 29.44809 2.69802 0.02108
C 30.72643 2.06273 0.00716
C 30.75265 0.65218 0.00307
C 29.4968 0.0349 0.00346
C 32.07887 32.71827 0.01713
C 33.25771 31.97503 -0.01694
C 33.20775 30.52948 0.01428
C 32.02602 29.80138 -0.02142
C 31.97344 28.43178 0.0544
C 33.22661 27.73477 0.00026
C 33.17494 26.2395 0.00682
C 31.90087 25.52676 -0.01779
C 31.92792 24.13657 0.03794
C 33.12564 23.4434 0.01927
C 33.16543 22.0215 0.01574
C 31.90261 21.35965 -0.02383
C 31.95424 19.93336 -0.01429
C 30.56915 14.78801 -0.00971
C 33.07626 19.0965 -0.0136
C 29.35462 15.81388 -0.03735
C 30.60587 17.84204 -0.02155
C 28.26589 19.25903 -0.00416
C 28.36245 4.91582 0.01177
C 27.06822 4.3851 0.04266
C 27.04875 2.98806 0.01324
C 28.25034 2.12777 0.0014
C 28.29363 0.70176 0.00924
C 27.0909 0.01299 0.02326
C 29.57897 32.66597 0.00261
C 30.80773 31.94111 0.03265
C 30.8232 30.49787 -0.02049
C 29.51246 29.79307 -0.01854
C 29.46046 28.36609 -0.01415
C 30.66588 27.66142 -0.03039
C 30.65006 26.25214 0.01836
C 29.4381 25.56801 0.03531
C 29.42766 24.16277 -0.00669
C 30.69406 23.45285 0.0101
C 30.68533 22.05407 0.01705
C 29.42493 21.36435 -0.0405
C 29.54513 19.92595 -0.01303
C 30.7807 19.21213 -0.01461
C 29.47408 17.03768 -0.00944
C 27.16941 19.97907 0.01699
C 33.06342 17.67019 0.00594
C 31.7513 15.51006 0.00369
C 1.25548 21.95767 0.02712
C 0.00179 21.26823 -0.02213
C 34.38152 19.8668 0.01951
C 1.08684 19.15147 -0.01678
C 1.13397 17.78833 0.01223
C 34.31469 17.04789 0.00648
C 34.2805 15.58782 0.02114
C 1.06772 14.86575 -0.02957
C 1.11055 13.45886 0.00343
C 34.28969 12.83351 -0.02656
C 34.43071 11.36965 -0.02442
C 1.19435 10.65555 -0.00027
C 1.1484 9.27884 -0.00583
C 34.37104 8.57135 -0.02302
C 34.24032 7.16216 -0.02849
C 1.11502 6.44426 0.02931
C 1.18865 5.05727 0.00628
C 34.37374 4.39602 -0.0345
C 0.01542 2.90478 -0.00931
C 1.19479 2.16961 -0.00939
C 1.21757 0.74613 -0.00468
C 1.22181 23.41303 0.00723
C 31.80071 17.01303 -0.02474
C 34.37736 24.10352 0.03076
C 1.2058 26.26497 -0.00598
C 33.02007 14.89632 0.00455
C 33.01693 13.45546 -0.00644
C 31.70952 12.63642 -0.01839
C 31.97658 11.26048 0.00137
C 33.24901 10.60203 0.00199
C 33.21697 9.17427 0.04381
C 31.94847 8.66161 0.02806
C 31.73227 7.27672 0.01504
C 33.01246 6.49798 -0.00069
C 33.1571 5.05094 0.04926
C 32.01417 4.27583 -0.03838
C 31.91238 2.82566 0.00349
C 33.14809 2.14697 -0.00323
C 33.2122 0.75139 -0.00841
C 32.02433 34.07431 0.0001
C 0.04137 32.71865 -0.02927
C 1.18277 32.00344 -0.01404
C 1.16253 30.61173 0.01027
C 34.42026 29.82973 0.01831
C 0.01493 28.40291 -0.01037
C 1.21629 27.73258 -0.00439
C 34.40263 25.50972 -0.05239
C 17.23948 24.10351 -0.0054
C 26.97126 21.37293 0.01799
C 28.15211 23.48951 0.01495
C 19.70318 29.80959 0.01511
C 19.63555 28.41534 -0.00478
C 20.84308 27.74058 -0.01662
C 20.82457 26.29531 -0.01185
C 19.56149 25.52011 0.01126
C 19.65673 24.13492 0.01852
C 20.90545 23.47049 -0.00381
C 20.8645 22.02474 0.03046
C 19.64075 21.25358 0.0296
C 19.8864 19.87987 0.03374
C 19.65084 12.85103 -0.02845
C 19.67718 11.51271 -0.03213
C 20.89211 10.69431 0.02239
C 21.05354 9.24116 0.01153
C 19.70426 8.46259 0.02734
C 19.73327 7.09596 -0.0055
C 21.04468 6.40386 0.01515
C 20.93382 5.03183 -0.00225
C 19.65163 4.23311 0.00071
C 19.70891 2.87556 -0.01107
C 20.97684 2.08868 -0.01586
C 20.90059 30.5748 0.00199
C 20.88557 0.61012 -0.01971
C 20.82771 31.9948 0.01087
C 17.18543 0.02703 0.00096
C 18.43345 21.97735 0.00143
C 17.32644 21.15534 -0.017
C 17.4055 19.71104 0.00364
C 18.77116 19.02821 -0.00831
C 18.4374 17.56822 -0.02957
C 17.20735 17.02588 -0.04422
C 17.18292 15.60823 0.00654
C 18.44655 15.16313 -0.00703
C 18.50316 13.655 -0.04076
C 17.31497 12.88568 -0.00652
C 17.25868 11.42863 0.0058
C 18.45416 10.65915 -0.00865
C 18.51412 9.25418 0.00675
C 17.26201 8.57327 -0.00311
C 17.29953 6.97379 0.00742
C 18.56789 6.34387 -0.01594
C 18.44585 4.92683 0.0106
C 17.23421 4.22086 -0.01154
C 17.19019 2.82363 -0.01721
C 18.50331 2.11915 -0.02422
C 18.36522 0.66699 0.01277
C 19.67753 32.58521 -0.01527
C 28.13279 22.10316 0.01259
C 19.6337 33.97207 -0.02118
C 23.36732 31.94474 -0.00178
C 25.73489 26.25826 -0.00802
C 24.49145 25.49215 -0.00218
C 24.42074 24.03224 -0.01654
C 25.70396 23.49774 -0.00037
C 25.68853 22.0311 -0.0032
C 24.52106 21.12757 0.00622
C 25.72914 5.02186 -0.02815
C 24.65597 4.1178 -0.00942
C 24.64746 2.71379 0.00487
C 25.86091 2.15097 0.00826
C 25.91511 0.72786 -0.00294
C 24.66808 34.06348 0.00152
C 27.06209 32.66242 0.01257
C 28.3449 31.96135 0.02316
C 28.32808 30.55198 0.04185
C 27.04234 29.8154 0.00194
C 27.00446 28.40428 -0.00621
C 28.21353 27.67431 0.02611
C 28.22323 26.26858 0.02198
C 26.97277 25.52062 0.01094
C 26.96855 24.14825 0.00235
C 25.75754 27.69851 0.00195
C 22.07753 32.63669 0.00733
C 24.51595 28.36497 0.00996
C 25.82217 30.51933 0.00367
C 23.33674 30.52454 0.00768
C 22.11696 29.84091 -0.0276
C 22.07607 28.40801 0.03005
C 23.33353 27.62725 -0.04078
C 23.32146 26.20027 0.02117
C 22.05279 25.56774 0.02737
C 22.09429 24.11477 -0.00498
C 23.2875 23.24333 0.00135
C 23.23364 21.7306 0.03102
C 21.96244 21.22284 0.02555
C 22.19858 8.43532 0.01423
C 22.30392 7.07056 -0.00285
C 23.60341 6.25693 -0.009
C 23.34514 4.89543 -0.01199
C 22.12926 4.22644 -0.00229
C 22.12747 2.84236 -0.00938
C 23.42085 2.15391 -0.0264
C 23.36547 0.69674 -0.01154
C 22.16423 34.05064 0.00684
C 24.6784 32.6249 -0.01052
C 25.84197 31.99705 -0.01679
C 24.50049 29.77092 0.04306
C 2.43111 32.76142 -0.00039
