321
Graphene
C 34.37581 34.05072 0.01295
C 9.85342 2.78764 -0.02213
C 11.04995 2.17338 0.03698
C 11.03742 0.73986 -0.00109
C 9.79106 0.08846 -0.00491
C 12.28089 32.69755 0.03338
C 13.51386 31.91956 -0.0258
C 13.52132 30.52384 -0.0331
C 9.67737 4.32372 0.00028
C 12.30265 29.84591 -0.00316
C 13.58229 27.59974 -0.01979
C 13.53252 26.21448 0.02691
C 12.27603 25.51821 -0.01581
C 12.26024 24.14759 0.01452
C 13.49335 23.36246 0.04892
C 13.56231 21.92732 -0.00111
C 12.30974 21.10514 -0.03557
C 12.30711 28.38119 0.02188
C 12.39824 19.57354 0.03754
C 11.0223 19.00115 -0.00289
C 9.87101 21.30481 0.00213
C 7.32457 4.24904 0.00798
C 7.33545 2.93588 0.00422
C 8.55113 2.15034 0.0351
C 8.53576 0.73423 -0.03113
C 7.32616 34.07517 0.02098
C 9.86253 32.73636 0.01848
C 11.10463 31.93604 -0.00619
C 9.90196 19.90554 -0.00066
C 11.08904 30.51423 -0.02162
C 9.82852 28.4184 -0.00481
C 11.08134 27.61436 0.00979
C 11.10841 26.24042 0.01443
C 9.87155 25.52905 0.03505
C 9.87014 24.15223 -0.02815
C 11.08306 23.45374 -0.04147
C 11.12318 22.02501 -0.05302
C 9.86296 29.84047 0.00889
C 8.55593 4.95653 0.00228
C 13.65456 19.21426 0.01739
C 13.5214 2.29781 -0.0054
C 18.44486 31.96789 -0.02422
C 18.45806 30.56131 0.01277
C 17.16185 29.79442 0.00096
C 17.13871 28.41912 -0.01527
C 18.4385 27.70964 0.01087
C 18.48999 26.26431 0.00199
C 17.25678 25.53959 0.01511
C 17.19972 32.66748 -0.01721
C 17.2575 24.15723 -0.00478
C 18.44748 21.9522 -0.01185
C 17.18232 21.2425 0.01126
C 16.90236 19.86233 0.01852
C 18.26492 19.41888 -0.00381
C 17.28125 2.89359 0.03046
C 18.48524 2.20374 0.0296
C 18.42585 0.71657 0.03374
C 18.44569 23.3942 -0.01662
C 12.24323 2.93591 0.00755
C 14.73824 0.02872 -0.01154
C 16.05398 2.30932 -0.01594
C 13.52827 0.81191 0.00667
C 12.30429 0.08111 0.00143
C 14.733 32.62406 -0.017
C 16.00628 31.9694 0.00364
C 15.93652 30.49864 -0.00831
C 14.70083 29.78022 -0.02957
C 14.74192 28.38771 -0.04422
C 15.98226 0.72554 0.0106
C 15.93066 27.72741 0.00654
C 14.83667 25.57715 -0.04076
C 14.81467 24.14571 -0.00652
C 16.03206 23.43695 0.0058
C 15.96051 22.0071 -0.00865
C 14.79932 21.2929 0.00675
C 14.80916 19.97041 -0.00311
C 14.7456 2.75258 0.00742
C 16.03864 26.23472 -0.00703
C 7.42687 7.13763 -0.00114
C 7.29484 15.64715 -0.02696
C 7.59314 16.96767 -0.00368
C 3.61092 9.21164 -0.00334
C 2.39029 8.50444 0.02339
C 2.40067 7.10297 0.01641
C 3.64915 6.39657 -0.00719
C 3.65179 4.95716 0.01364
C 2.45467 4.27852 -0.01062
C 2.3776 2.80775 -0.00033
C 3.64386 10.62216 -0.01634
C 3.65145 2.14691 0.03589
C 2.3751 34.04523 0.0402
C 4.92028 32.55449 0.00572
C 6.20095 31.95698 0.03592
C 6.13756 30.55853 0.00406
C 4.94988 29.80981 0.00943
C 4.94184 28.45303 0.02841
C 6.16832 27.69279 -0.01111
C 3.62619 0.67962 -0.02759
C 6.11369 26.34074 -0.01275
C 2.46413 11.36583 0.00057
C 3.66649 13.52755 0.01291
C 3.73304 30.53072 0.00685
C 2.48252 29.83924 0.02888
C 2.49406 28.39824 -0.00482
C 3.74708 27.70856 -0.01384
C 3.69896 26.33915 0.03693
C 2.47709 25.57091 0.01745
C 2.45835 24.19329 0.00488
C 2.46117 12.85842 0.00093
C 3.66276 23.42363 -0.01004
C 2.44407 21.33948 -0.00131
C 2.44 19.89617 -0.01118
C 3.62734 19.24678 -0.014
C 3.71782 17.81223 0.02147
C 2.47303 17.08878 0.00373
C 2.42375 15.68817 -0.00191
C 3.72189 14.95048 0.00438
C 3.68136 22.01257 -0.02896
C 4.89479 25.53239 0.00985
C 4.92381 24.11899 -0.02245
C 6.16035 23.45638 -0.00428
C 4.83436 34.01917 0.01945
C 7.39092 32.70224 0.01416
C 8.65269 31.9786 0.03542
C 8.63764 30.53646 0.02299
C 7.38901 29.83571 0.00244
C 7.36349 28.44717 -0.01717
C 8.63851 27.73751 0.05265
C 6.08289 0.69287 -0.01454
C 8.64477 26.31611 -0.01952
C 7.41478 24.15834 0.00374
C 8.59162 23.44757 0.00052
C 8.62944 22.0673 -0.03682
C 7.34301 21.35238 0.01965
C 7.41454 19.92976 0.02058
C 8.61144 19.249 -0.01957
C 8.72834 17.78564 -0.0108
C 7.39604 25.57687 -0.02813
C 6.14892 2.21138 0.01241
C 4.89521 2.84364 0.0076
C 4.89952 4.25621 0.02162
C 6.10958 22.04049 0.03101
C 4.88142 21.26038 -0.01536
C 4.90617 19.88317 -0.02689
C 6.21753 19.2075 -0.01046
C 6.22539 17.76254 -0.00891
C 4.96951 17.01861 0.02819
C 4.98925 15.55486 0.00165
C 6.28256 14.78258 -0.02971
C 6.15341 13.29045 0.02894
C 4.87773 12.7334 -0.01789
C 4.82762 11.26495 0.00444
C 6.0216 10.54137 -0.00925
C 6.01432 9.24435 0.01877
C 4.82402 8.53763 0.01363
C 4.81997 7.09575 -0.02162
C 6.09244 6.4104 0.00415
C 6.11701 4.94849 -0.0014
C 17.20723 0.00467 -0.02845
C 3.68791 31.91161 0.00895
C 19.68481 32.65217 -0.03213
C 20.90774 30.5064 0.01153
C 31.95395 29.87986 -0.01779
C 31.9572 28.50319 0.03794
C 33.21061 27.78179 0.01927
C 33.22679 26.37848 0.01574
C 32.00182 25.72174 -0.02383
C 31.96143 24.32327 -0.01429
C 33.03744 23.48185 -0.0136
C 33.22399 30.5631 0.00682
C 33.29645 22.17549 0.00594
C 31.69355 15.30695 0.00369
C 33.08141 14.90827 0.00455
C 33.2453 13.52063 -0.00644
C 32.00852 12.75349 -0.01839
C 31.91927 11.32472 0.00137
C 33.17349 10.67076 0.00199
C 33.1282 9.25996 0.04381
C 33.03286 17.86842 -0.02474
C 31.94872 8.53873 0.02806
C 33.2533 31.99937 0.00026
C 29.45398 34.04796 -0.02142
C 30.68374 27.79555 -0.01461
C 30.74523 26.4007 -0.02155
C 29.46519 25.92564 -0.00944
C 30.89037 13.65321 -0.03735
C 29.58215 12.96594 -0.00971
C 29.39687 11.49944 0.01518
C 30.60952 10.75641 0.01908
C 32.03639 32.69082 0.0544
C 30.65841 9.27344 0.07705
C 29.5182 7.15248 0.02108
C 30.75581 6.41196 0.00716
C 30.7566 5.00666 0.00307
C 29.51445 4.19305 0.00346
C 29.43228 2.79119 0.01713
C 30.6918 2.07666 -0.01694
C 30.68038 0.69877 0.01428
C 29.39553 8.52831 0.0103
C 29.43554 28.41438 -0.01303
C 31.93991 7.15444 0.01504
C 33.152 4.96935 0.04926
C 34.33982 17.15324 0.00648
C 34.30181 15.7209 0.02114
C 1.19176 14.96218 -0.02957
C 1.22094 13.55301 0.00343
C 34.40519 12.82071 -0.02656
C 0.00911 11.4431 -0.02442
C 1.18209 10.68832 -0.00027
C 1.21746 17.77284 0.01223
C 1.17627 9.18994 -0.00583
C 34.35097 7.16237 -0.02849
C 1.15349 6.39498 0.02931
C 1.1828 4.95969 0.00628
C 34.39977 4.24155 -0.0345
C 34.42624 2.88737 -0.00931
C 1.17295 2.10517 -0.00939
C 1.15357 0.66604 -0.00468
C 34.3292 8.56355 -0.02302
C 33.15119 6.40668 -0.00069
C 1.2115 19.21661 -0.01678
C 34.31711 21.26555 -0.02213
C 31.93987 4.22212 -0.03838
C 31.96328 2.8391 0.00349
C 33.22911 2.11956 -0.00323
C 33.18513 0.70648 -0.00841
C 31.95073 0.03879 0.0001
C 34.38889 32.7019 -0.02927
C 1.15861 31.98164 -0.01404
C 34.29229 19.80369 0.01951
C 1.231 30.51087 0.01027
C 0.001 28.45604 -0.01037
C 1.21564 27.68969 -0.00439
C 1.25828 26.29894 -0.00598
C 34.40978 25.6186 -0.05239
C 34.35047 24.16799 0.03076
C 1.18789 23.45731 0.00723
C 1.17526 22.00638 0.02712
C 0.01305 29.80904 0.01831
C 29.47634 29.82797 -0.0405
C 30.67551 30.52667 0.01705
C 30.72861 31.94616 0.0101
C 22.16819 28.40048 0.02555
C 23.39619 27.68273 0.01423
C 23.39119 26.1823 -0.00285
C 22.14917 25.57017 -0.009
C 22.12268 24.19987 -0.01199
C 23.43824 10.41182 -0.00229
C 23.20127 9.02593 -0.00938
C 22.09902 29.80501 0.03102
C 21.89853 6.68851 -0.0264
C 23.4048 4.8636 0.00684
C 22.14558 4.19744 -0.01052
C 22.09154 2.82773 -0.01679
C 23.2812 2.13421 0.00367
C 23.29171 0.72921 0.04306
C 22.04951 34.03053 0.00996
C 24.547 32.66075 0.00195
C 23.33802 6.25921 -0.01154
C 25.76505 31.95877 -0.00802
C 23.33313 30.53928 0.00135
C 22.08386 32.62475 0.02737
C 19.64175 29.82833 0.02734
C 19.71228 28.39764 -0.0055
C 20.99173 27.7005 0.01515
C 20.95139 26.2565 -0.00225
C 19.68547 25.62246 0.00071
C 19.66607 24.13933 -0.01107
C 20.95892 23.43019 -0.01586
C 23.37312 31.95436 -0.00498
C 20.81683 22.08939 -0.01971
C 19.4716 19.8524 0.00733
C 20.98937 5.05907 -0.00178
C 19.74194 4.31198 0.00768
C 19.696 2.9376 -0.0276
C 20.83421 2.1515 0.03005
C 20.85126 0.71834 -0.04078
C 19.66229 0.00839 0.02117
C 19.76968 21.20205 -0.02118
C 25.79946 30.57366 -0.00218
C 24.55018 29.82536 -0.01654
C 24.562 28.42195 -0.00037
C 28.16892 26.41279 -0.00416
C 28.20303 13.37551 0.01177
C 27.26001 12.70229 0.04266
C 26.88954 11.3322 0.01324
C 28.15937 10.68014 0.0014
C 28.13332 9.21861 0.00924
C 26.95569 8.46954 0.02326
C 28.16074 27.76491 0.01699
C 26.97054 7.0843 0.00261
C 28.27816 4.86721 -0.02049
C 27.07392 4.12646 -0.01854
C 27.04053 2.73011 -0.01415
C 28.29908 2.06125 -0.03039
C 28.25218 0.66909 0.01836
C 27.0441 34.04655 0.03531
C 29.49871 32.63092 -0.00669
C 28.26843 6.37059 0.03265
C 27.00126 28.43918 0.01799
C 27.03241 29.82645 0.01259
C 28.21286 30.5456 0.01495
C 25.78969 27.73962 -0.0032
C 25.76667 26.26879 0.00622
C 24.66347 25.58053 -0.02815
C 24.49176 11.43383 -0.00942
C 25.6905 10.59522 0.00487
C 25.69021 9.18072 0.00826
C 24.43763 8.41923 -0.00294
C 24.48484 6.98047 0.00152
C 25.80575 6.3212 0.01257
C 25.80539 4.83821 0.02316
C 24.61397 4.12629 0.04185
C 24.59957 2.74059 0.00194
C 25.83231 2.03366 -0.00621
C 25.8156 0.67208 0.02611
C 24.53393 0.01979 0.02198
C 27.01032 32.62701 0.01094
C 28.23261 31.96143 0.00235
C 20.8486 31.91479 0.02239
C 2.4421 32.62205 0.00393
