441
Graphene
C 0.03666 0.03607 0.01295
C 13.39273 19.27471 -0.01634
C 13.53553 17.72974 -0.00334
C 12.26757 17.07533 0.02339
C 12.27745 15.68846 0.01641
C 13.48366 14.8738 -0.00719
C 13.45498 13.4566 0.01364
C 12.3126 12.78096 -0.01062
C 12.33147 11.34191 -0.00033
C 13.51219 10.6421 0.03589
C 13.70739 9.16326 -0.02759
C 12.42272 8.38659 0.0402
C 12.37111 7.06078 0.00572
C 12.36916 4.24127 0.03592
C 12.27642 2.85805 0.00406
C 13.54627 2.10251 0.00943
C 13.5024 0.72047 0.02841
C 12.28055 34.02754 -0.01111
C 14.88019 32.68108 -0.01275
C 15.94577 31.92784 0.00985
C 15.92395 30.48106 -0.02245
C 14.68573 29.74246 -0.00428
C 14.65617 28.4196 0.03101
C 15.95702 27.68015 -0.01536
C 12.27386 19.98246 0.00057
C 12.27146 21.41345 0.00093
C 13.53874 22.09099 0.01291
C 13.56814 23.48711 0.00438
C 11.0857 14.96061 -0.00095
C 11.08899 13.52611 0.01572
C 9.83661 12.87247 -0.04848
C 9.85167 11.45697 -0.00892
C 11.04972 10.63887 -0.01362
C 11.14699 9.25738 -0.0008
C 9.86349 8.53226 0.0288
C 9.84678 7.16972 0.00393
C 11.15668 6.38642 0.00895
C 11.19376 4.9461 0.00685
C 9.85632 4.31712 0.02888
C 15.93764 26.33137 -0.02689
C 9.90775 2.82907 -0.00482
C 11.00652 0.63775 0.03693
C 9.75891 0.01829 0.01745
C 12.26068 32.58331 0.00488
C 13.50108 31.92813 -0.01004
C 13.52163 30.55694 -0.02896
C 12.21065 29.99434 -0.00131
C 12.27052 28.4937 -0.01118
C 13.44161 27.71189 -0.014
C 13.48111 26.32803 0.02147
C 12.25534 25.61805 0.00373
C 12.31254 24.10853 -0.00191
C 11.08912 2.08696 -0.01384
C 9.90124 15.64604 0.03007
C 14.73396 25.56129 -0.01046
C 16.00059 23.43837 0.02819
C 17.20416 21.28831 0.02058
C 17.24156 19.93084 -0.01957
C 18.45701 19.13532 -0.0108
C 18.4855 17.72727 -0.00368
C 17.23695 17.0194 -0.02696
C 17.21522 15.53818 -0.00114
C 18.42561 14.89954 0.00228
C 18.45461 13.51421 0.00798
C 17.21933 12.80403 0.00422
C 17.16443 11.34001 0.0351
C 18.36935 10.66282 -0.03113
C 18.36683 9.25388 0.02098
C 16.99242 8.51972 0.01848
C 17.17658 7.12708 -0.00619
C 18.39746 6.40585 -0.02162
C 18.41891 5.02313 0.00889
C 17.27611 4.29404 -0.00481
C 17.18474 2.89494 0.00979
C 18.41383 2.14997 0.01443
C 18.41515 0.72645 0.03505
C 17.24343 34.07278 -0.02815
C 19.60282 32.66215 -0.04147
C 20.81545 31.91121 -0.05302
C 18.50557 22.02523 0.01965
C 18.47869 23.41783 -0.03682
C 17.26054 24.10969 0.00052
C 17.18606 25.54817 0.00374
C 16.01712 21.99123 0.00165
C 14.75917 21.3109 -0.02971
C 14.77101 19.87268 0.02894
C 16.00507 19.14022 -0.01789
C 16.00571 17.74088 0.00444
C 14.80052 17.0551 -0.00925
C 14.74704 15.66629 0.01877
C 15.96401 14.83124 0.01363
C 15.95992 13.40451 -0.02162
C 14.72381 12.73905 0.00415
C 14.60848 11.3589 -0.0014
C 14.75653 24.15843 -0.00891
C 15.89923 10.73918 0.02162
C 14.73526 2.80438 0.01241
C 16.02786 2.18523 -0.01454
C 16.01608 0.72078 0.01945
C 14.75956 34.0336 0.01416
C 17.17746 32.694 0.03542
C 18.41488 31.91507 0.02299
C 18.34518 30.48597 0.00244
C 17.12448 29.82437 -0.01717
C 17.16387 28.41068 0.05265
C 18.39086 27.62038 -0.01952
C 18.3443 26.29496 -0.02813
C 15.79568 9.3736 0.0076
C 9.8797 17.09509 0.00054
C 11.05983 17.88812 -0.00494
C 11.03195 19.27606 -0.00562
C 3.71516 0.75567 -0.00177
C 2.53616 0.04166 0.04421
C 4.87623 32.68815 0.00088
C 6.10859 31.94986 0.00828
C 6.0867 30.57852 -0.02375
C 4.91395 29.74316 0.00558
C 5.02281 28.36811 -0.0059
C 6.14116 27.67186 -0.01386
C 6.15738 26.28289 -0.02805
C 4.93263 25.65813 0.00081
C 4.91566 24.13122 0.00245
C 6.13273 23.48395 0.02728
C 6.17455 22.0569 -0.00039
C 5.02193 21.24649 0.0064
C 4.87609 19.84019 0.00211
C 6.16169 19.1377 -0.00449
C 6.10396 17.70524 -0.01979
C 4.9082 17.12639 0.02784
C 4.83311 15.61034 -0.01977
C 6.12797 14.96505 -0.00561
C 6.13588 13.55458 0.00208
C 4.88695 12.76533 0.01707
C 4.8653 11.43393 0.02769
C 3.70692 2.19252 0.03278
C 2.48778 2.88848 0.01138
C 2.4853 4.28796 -0.00407
C 3.71364 5.03216 -0.01299
C 3.73127 30.46402 -0.0213
C 2.48246 29.73533 0.01116
C 2.42661 28.29413 -0.0005
C 3.74836 27.72922 -0.00018
C 3.62218 26.31325 0.01073
C 2.35138 25.56897 0.01984
C 2.47044 24.20846 0.00535
C 3.64131 23.46316 -0.00198
C 3.69692 22.00735 -0.00012
C 2.43167 21.30715 -0.04306
C 2.40002 19.96032 -0.03672
C 6.13754 10.70604 -0.03291
C 3.64035 19.15194 0.01913
C 2.38045 17.03044 0.00787
C 2.3396 15.5638 0.02426
C 3.62755 14.91737 0.01218
C 3.71726 13.50097 -0.01471
C 2.48377 12.8086 -0.02827
C 2.47168 11.31372 0.01078
C 3.66738 10.61623 -0.00112
C 3.66358 9.24034 0.03345
C 2.51099 8.51873 0.00748
C 2.4767 7.08076 0.00662
C 3.71092 6.42247 -0.0154
C 3.56726 17.71756 0.00267
C 6.15313 9.28335 -0.04999
C 4.87792 8.61579 0.04505
C 4.92237 7.16132 0.03284
C 8.62796 10.75095 0.02322
C 8.58231 9.33207 -0.00725
C 7.39056 8.59754 -0.05697
C 7.3691 7.1947 0.01087
C 8.54947 6.45187 -0.01343
C 8.69293 5.033 0.00988
C 7.3675 4.28221 0.0276
C 7.413 2.91053 0.01305
C 8.61502 2.19741 -0.00077
C 8.55932 0.75506 0.03368
C 7.35148 0.02055 -0.02929
C 7.35087 11.38278 -0.00094
C 9.71006 32.70093 -0.00966
C 10.97193 30.5619 0.01227
C 9.7494 29.87444 0.00873
C 9.78836 28.44022 -0.00049
C 11.09326 27.7906 0.00848
C 11.11422 26.35896 -0.01303
C 9.84766 25.53871 -0.01378
C 9.88329 24.19586 0.02635
C 11.10565 23.461 0.0127
C 11.06942 22.09265 0.01396
C 9.77327 21.3843 0.01849
C 9.76984 19.9546 -0.01142
C 10.98128 31.99614 -0.03337
C 20.77943 30.46065 0.00213
C 7.37621 12.84662 -0.02566
C 8.61427 14.86897 0.017
C 6.17907 6.50296 -0.04307
C 6.12799 5.01407 0.03189
C 4.92566 4.31821 0.00031
C 4.97874 2.86316 -0.003
C 6.2133 2.1555 0.01402
C 6.10657 0.78665 0.02379
C 4.91752 0.0097 0.00907
C 7.27898 32.72272 0.00643
C 8.45931 31.93866 -0.01509
C 8.55208 30.51851 0.03267
C 7.41791 29.75836 0.02374
C 8.57327 13.50473 -0.03113
C 7.38911 28.42259 0.00402
C 8.64771 26.30651 0.0174
C 7.44144 25.58982 0.03828
C 7.40346 24.15774 0.01226
C 8.62245 23.44526 -0.00279
C 8.59198 22.02915 0.01996
C 7.37396 21.29694 -0.03996
C 7.36498 19.81994 0.01465
C 8.5356 19.13639 -0.00074
C 8.63734 17.80803 -0.00518
C 7.3867 17.04028 0.0086
C 7.37431 15.59063 -0.00643
C 8.62747 27.66901 0.0073
C 3.68861 31.92191 -0.00374
C 19.57758 29.72481 -0.00066
C 20.85076 27.6435 0.00028
C 30.71526 14.8346 -0.0405
C 30.78776 13.371 -0.01303
C 29.52913 12.77033 -0.01461
C 29.52537 11.31162 -0.02155
C 30.729 10.6319 -0.00944
C 30.72409 9.27024 -0.03735
C 29.47977 8.48193 -0.00971
C 29.61325 7.01665 0.01518
C 30.81331 6.33371 0.01908
C 30.77236 4.94585 0.07705
C 29.4746 4.18552 0.0103
C 29.45159 2.80071 0.02108
C 30.76359 2.06902 0.00716
C 30.7536 0.704 0.00307
C 29.55407 0.00643 0.00346
C 31.99441 32.69034 0.01713
C 33.22811 31.98671 -0.01694
C 33.28837 30.62832 0.01428
C 31.95298 29.87294 -0.02142
C 31.93743 28.46946 0.0544
C 33.14676 27.77373 0.00026
C 33.18451 26.36866 0.00682
C 31.99258 25.59412 -0.01779
C 29.4638 15.55615 0.01705
C 29.44894 17.01411 0.0101
C 30.62223 17.71565 -0.00669
C 30.71639 19.18291 0.03531
C 28.22202 10.57317 0.00194
C 28.257 9.2375 -0.00621
C 26.98936 8.54802 0.02611
C 27.07933 7.09946 0.02198
C 28.27306 6.37426 0.01094
C 28.29691 4.96622 0.00235
C 27.01398 4.25979 0.01495
C 27.05289 2.86953 0.01259
C 28.2921 2.07777 0.01799
C 28.27984 0.72569 0.01699
C 27.03236 34.04855 -0.00416
C 31.98619 24.17124 0.03794
C 29.55122 32.70371 0.01177
C 30.70793 30.57832 0.01324
C 29.51543 29.87135 0.0014
C 29.48792 28.40112 0.00924
C 30.68534 27.71936 0.02326
C 30.73823 26.34143 0.00261
C 29.52244 25.61665 0.03265
C 29.53446 24.15674 -0.02049
C 30.7463 23.51076 -0.01854
C 30.67698 22.02825 -0.01415
C 29.41646 21.32377 -0.03039
C 29.49762 19.90961 0.01836
C 30.79224 31.93509 0.04266
C 27.06719 11.42291 0.04185
C 33.14107 23.38624 0.01927
C 31.90418 21.3049 -0.02383
C 34.35878 24.1238 0.03076
C 1.20507 23.49088 0.00723
C 1.22873 22.01236 0.02712
C 34.42463 21.32367 -0.02213
C 34.37334 19.84775 0.01951
C 1.21443 19.10478 -0.01678
C 1.114 17.63677 0.01223
C 34.27902 16.9914 0.00648
C 34.40227 15.60358 0.02114
C 1.18474 14.83945 -0.02957
C 1.24472 13.41898 0.00343
C 0.04965 12.72078 -0.02656
C 0.05737 11.24794 -0.02442
C 1.22618 10.60651 -0.00027
C 1.27405 9.18025 -0.00583
C 0.05753 8.42563 -0.02302
C 0.09988 7.03505 -0.02849
C 1.25581 6.36784 0.02931
C 1.22582 4.93178 0.00628
C 0.05281 4.16823 -0.0345
C 0.06679 2.7879 -0.00931
C 1.28757 2.1751 -0.00939
C 1.30575 0.70231 -0.00468
C 34.37666 25.53942 -0.05239
C 1.14294 26.24497 -0.00598
C 1.16722 27.68323 -0.00439
C 0.03282 28.4263 -0.01037
C 31.9292 19.85864 -0.01429
C 33.13979 19.10666 -0.0136
C 33.14092 17.65133 0.00594
C 31.86959 17.00148 -0.02474
C 31.87091 15.50656 0.00369
C 33.13543 14.81172 0.00455
C 33.1958 13.4207 -0.00644
C 31.96208 12.72081 -0.01839
C 31.9492 11.3018 0.00137
C 33.24386 10.55692 0.00199
C 33.25667 9.21641 0.04381
C 33.17061 21.98744 0.01574
C 32.04418 8.46277 0.02806
C 33.2619 6.33563 -0.00069
C 33.14939 4.88726 0.04926
C 32.00201 4.16089 -0.03838
C 31.98849 2.74965 0.00349
C 33.23927 2.10153 -0.00323
C 33.2402 0.75688 -0.00841
C 31.98161 0.02288 0.0001
C 0.07105 32.73915 -0.02927
C 1.27291 31.98622 -0.01404
C 1.27599 30.56273 0.01027
C 0.02496 29.86819 0.01831
C 32.07236 7.01774 0.01504
C 27.03977 12.79098 0.02316
C 28.27664 13.55258 0.01257
C 28.28467 14.87578 0.00152
C 23.34316 30.51028 -0.00703
C 22.06958 29.83158 -0.04076
C 22.09851 28.45711 -0.00652
C 23.33768 27.74084 0.0058
C 23.32337 26.30699 -0.00865
C 22.09925 25.56758 0.00675
C 22.10521 24.13446 -0.00311
C 23.40115 23.43142 0.00742
C 23.30891 22.10397 -0.01594
C 22.09695 21.28145 0.0106
C 22.18667 19.88482 -0.01154
C 23.35416 19.14451 -0.01721
C 23.39439 17.72703 -0.02422
C 22.13441 16.97606 0.01277
C 22.17807 15.60562 0.00096
C 23.35496 14.94745 -0.01527
C 23.35436 13.52235 0.01087
C 22.13374 12.82106 0.00199
C 22.0812 11.42211 0.01511
C 23.38092 10.65139 -0.00478
C 23.33264 9.22821 -0.01662
C 22.0856 8.48759 -0.01185
C 22.05105 7.0695 0.01126
C 23.334 31.96391 0.00654
C 22.14463 32.60707 -0.04422
C 19.64931 34.04852 -0.02957
C 20.89928 0.64184 -0.00831
C 20.87885 26.22277 -0.02213
C 19.65165 25.54639 0.03698
C 19.69692 24.15374 -0.00109
C 20.92942 23.46894 -0.00491
C 20.89308 21.99362 0.03338
C 19.69391 21.3062 -0.0258
C 19.71251 19.79218 -0.0331
C 21.03693 19.20367 -0.00316
C 20.98012 17.7646 0.02188
C 19.68211 17.01059 -0.01979
C 19.66258 15.60609 0.02691
C 23.31326 6.43231 0.01852
C 20.91603 14.88617 -0.01581
C 19.65525 12.72524 0.04892
C 19.62006 11.35318 -0.00111
C 20.8307 10.70834 -0.03557
C 20.83343 9.24782 0.03754
C 19.58961 8.569 0.01739
C 19.62804 7.14647 0.00755
C 20.81992 6.40366 -0.0054
C 20.87355 4.90674 0.00667
C 19.66581 4.25161 0.00143
C 19.66341 2.86118 -0.017
C 20.87401 2.11879 0.00364
C 20.89069 13.4625 0.01452
C 23.35728 4.94779 -0.00381
C 22.06928 4.2056 0.03046
C 22.06496 2.80865 0.0296
C 25.79739 6.4351 -0.009
C 25.71433 5.02256 -0.01199
C 24.58842 4.26728 -0.00229
C 24.58676 2.86354 -0.00938
C 25.78278 2.13164 -0.0264
C 25.8012 0.70071 -0.01154
C 24.59206 34.07657 0.00684
C 27.07063 32.72532 -0.01052
C 28.26187 31.99917 -0.01679
C 28.26671 30.52269 0.00367
C 27.04781 29.80921 0.04306
C 24.51781 7.13355 -0.00285
C 27.05757 28.42553 0.00996
C 28.22836 26.27938 -0.00802
C 27.05338 25.52903 -0.00218
C 27.02719 24.10621 -0.01654
C 28.30071 23.44687 -0.00037
C 28.20462 22.00007 -0.0032
C 26.96133 21.31645 0.00622
C 27.0965 19.89056 -0.02815
C 28.23138 19.12637 -0.00942
C 28.23053 17.72857 0.00487
C 26.95354 17.01424 0.00826
C 27.07395 15.56905 -0.00294
C 28.24259 27.60719 0.00195
C 19.67886 28.37517 -0.00289
C 24.48572 8.60563 0.01423
C 25.83529 10.7375 0.03102
C 23.34119 2.12952 0.03374
C 23.3766 0.65046 -0.02845
C 22.09051 34.05778 -0.03213
C 24.60453 32.62914 0.02239
C 25.84717 31.93129 0.01153
C 25.8309 30.51611 0.02734
C 24.6181 29.85402 -0.0055
C 24.60102 28.39533 0.01515
C 25.86699 27.67787 -0.00225
C 25.78613 26.22018 0.00071
C 24.56035 25.59367 -0.01107
C 25.78278 9.30084 0.02555
C 24.64411 24.17059 -0.01586
C 25.79451 21.98543 -0.02118
C 24.53553 21.33592 0.00733
C 24.59019 19.88094 -0.00178
C 25.79081 19.17182 0.00768
C 25.76602 17.82751 -0.0276
C 24.57333 17.0253 0.03005
C 24.72893 15.69003 -0.04078
C 25.86711 14.93684 0.02117
C 25.7998 13.45495 0.02737
C 24.54805 12.79078 -0.00498
C 24.48832 11.40858 0.00135
C 25.78586 23.39464 -0.01971
C 2.47854 32.62014 -0.00141
