382
Graphene
C 34.3996 0.044 0.01295
C 15.62038 7.96834 0.01241
C 15.59038 2.23997 -0.01454
C 15.78546 0.82517 0.01945
C 14.63401 0.11882 0.01416
C 17.0718 32.66257 0.03542
C 18.34145 32.04193 0.02299
C 18.39975 30.60794 0.00244
C 17.1685 29.8165 -0.01717
C 17.27414 28.47674 0.05265
C 18.44786 27.64587 -0.01952
C 18.40517 26.19223 -0.02813
C 17.26957 25.45708 0.00374
C 17.2163 23.97274 0.00052
C 18.36382 23.26846 -0.03682
C 18.43159 21.87137 0.01965
C 17.23007 21.25477 0.02058
C 17.13452 19.81987 -0.01957
C 18.42541 19.12716 -0.0108
C 18.37106 17.80061 -0.00368
C 15.88543 9.41723 0.0076
C 15.9125 10.70734 0.02162
C 15.98925 13.74669 -0.0014
C 15.8031 15.0808 0.00415
C 12.27788 3.08855 -0.01111
C 13.61181 2.24732 -0.01275
C 13.43997 0.84746 0.00985
C 12.17148 0.19628 -0.02245
C 14.72061 32.80159 -0.00428
C 15.91361 32.00025 0.03101
C 15.88371 30.5714 -0.01536
C 14.75423 29.82464 -0.02689
C 14.83415 28.42217 -0.01046
C 17.21764 17.01266 -0.02696
C 16.03904 27.71945 -0.00891
C 14.72672 25.60741 0.00165
C 14.75737 24.16682 -0.02971
C 15.97213 23.42277 0.02894
C 15.95311 21.99699 -0.01789
C 14.78901 21.29967 0.00444
C 14.76845 19.75223 -0.00925
C 15.89269 19.05277 0.01877
C 15.81016 17.57767 0.01363
C 14.87541 16.54288 -0.02162
C 15.94618 26.27299 0.02819
C 17.26889 15.61842 -0.00114
C 18.45402 14.88146 0.00228
C 18.46742 13.38698 0.00798
C 19.6307 21.16849 -0.0258
C 19.63833 19.80964 -0.0331
C 20.92704 19.09222 -0.00316
C 20.81131 17.6223 0.02188
C 19.58482 17.04099 -0.01979
C 19.67436 15.61696 0.02691
C 20.85927 14.86802 -0.01581
C 20.86928 13.47906 0.01452
C 19.62123 12.68426 0.04892
C 20.88858 21.88669 0.03338
C 19.59751 11.32368 -0.00111
C 20.88583 9.20783 0.03754
C 19.62782 8.60703 0.01739
C 19.67443 7.17221 0.00755
C 20.86332 6.42677 -0.0054
C 20.77757 4.97121 0.00667
C 19.53084 4.33075 0.00143
C 19.52786 2.84332 -0.017
C 20.79542 2.09636 0.00364
C 20.81879 0.62062 -0.00831
C 20.88028 10.58712 -0.03557
C 11.74242 7.25543 0.02841
C 20.88013 23.31579 -0.00491
C 19.63817 25.47691 0.03698
C 17.14277 12.86336 0.00422
C 17.14916 11.37982 0.0351
C 18.4382 10.66118 -0.03113
C 18.41077 9.31664 0.02098
C 17.17749 8.54064 0.01848
C 17.26601 7.23412 -0.00619
C 18.41809 6.43564 -0.02162
C 18.33144 5.03507 0.00889
C 17.02394 4.43408 -0.00481
C 19.58591 24.00386 -0.00109
C 16.89828 3.04203 0.00979
C 18.25063 0.7823 0.03505
C 17.02631 0.10669 -0.02815
C 19.64892 32.72476 -0.04147
C 20.81659 31.93171 -0.05302
C 20.88073 30.52091 0.00213
C 19.70549 29.76749 -0.00066
C 19.65886 28.3444 -0.00289
C 20.88048 27.6142 0.00028
C 20.84275 26.20272 -0.02213
C 18.21048 2.22272 0.01443
C 13.46063 19.27005 0.00943
C 12.36352 20.04036 0.00406
C 12.3522 21.38742 0.03592
C 6.06391 30.5857 0.02322
C 4.82433 29.90557 -0.00725
C 4.82902 28.49266 -0.05697
C 6.10508 27.72555 0.01087
C 6.05319 26.31851 -0.01343
C 4.87638 25.5931 0.00988
C 4.98085 24.24353 0.0276
C 6.15717 23.52023 0.01305
C 6.16812 22.03106 -0.00077
C 6.11158 31.96078 -0.00094
C 4.8693 21.21607 0.03368
C 5.07276 6.95482 -0.00966
C 6.34489 6.42813 -0.03337
C 6.09394 4.97229 0.01227
C 4.93302 4.24872 0.00873
C 4.83393 2.87517 -0.00049
C 6.088 2.23293 0.00848
C 6.04938 0.82653 -0.01303
C 4.78111 0.12124 -0.01378
C 7.28897 32.7743 0.02635
C 4.61703 19.79102 -0.02929
C 8.56148 32.11715 0.0127
C 4.77648 32.79779 -0.02566
C 3.5345 0.7964 0.017
C 3.63406 30.56405 0.01402
C 2.4197 29.81368 0.02379
C 2.38987 28.42829 0.00907
C 3.62697 27.68283 0.00643
C 3.6868 26.27907 -0.01509
C 2.39213 25.61565 0.03267
C 2.45771 24.13471 0.02374
C 3.69309 23.50387 0.00402
C 3.70478 22.11685 0.0073
C 2.33394 0.07307 -0.03113
C 2.43468 21.37101 0.0174
C 3.60823 18.89121 0.01226
C 2.96196 17.76452 -0.00279
C 2.48729 8.57168 0.01996
C 2.45443 7.0501 -0.03996
C 3.78023 6.37656 0.01465
C 3.69354 5.0056 -0.00074
C 2.41731 4.30967 -0.00518
C 2.33238 2.9171 0.0086
C 3.59097 2.18682 -0.00643
C 2.46741 19.97657 0.03828
C 19.52138 0.07844 -0.02957
C 8.54372 30.64031 0.01396
C 7.36306 28.43849 -0.01142
C 11.10147 22.13385 -0.014
C 9.86661 21.40367 0.02147
C 12.04992 5.92996 0.00373
C 11.35162 4.77539 -0.00191
C 9.83763 4.47385 0.00438
C 9.7436 2.96085 0.01291
C 11.02124 2.30488 0.00093
C 11.02084 0.95293 0.00057
C 9.85335 0.11256 -0.01634
C 11.10682 23.52629 -0.01118
C 12.29633 32.7549 -0.00334
C 13.56885 30.62055 0.01641
C 12.36664 29.90334 -0.00719
C 12.35479 28.45894 0.01364
C 13.5974 27.70705 -0.01062
C 13.47922 26.2763 -0.00033
C 12.2237 25.60155 0.03589
C 12.314 24.16174 -0.02759
C 13.54752 23.50249 0.0402
C 13.58284 22.08007 0.00572
C 13.52221 32.04674 0.02339
C 7.33377 29.83629 0.01849
C 9.85885 24.15992 -0.00131
C 11.03515 26.32453 -0.01004
C 8.64435 27.76804 -0.00562
C 8.6365 26.36113 -0.00494
C 7.31431 25.56807 0.00054
C 7.42585 24.18508 0.03007
C 8.60529 23.51004 -0.00095
C 8.67081 21.9975 0.01572
C 7.39448 21.32475 -0.04848
C 7.67423 6.49524 -0.00892
C 8.40019 5.16274 -0.01362
C 9.84253 25.58998 -0.02896
C 7.26644 4.22173 -0.0008
C 8.57908 2.1919 0.00393
C 8.60584 0.83291 0.00895
C 7.30174 0.10022 0.00685
C 9.86327 32.71594 0.02888
C 11.1065 32.0564 -0.00482
C 11.06655 30.59168 -0.01384
C 9.77247 29.96712 0.03693
C 9.81066 28.47933 0.01745
C 11.12393 27.8185 0.00488
C 7.29435 2.821 0.0288
C 22.07135 32.51501 -0.04422
C 23.3466 31.82849 0.00654
C 23.32915 30.46332 -0.00703
C 29.46434 4.25041 0.0103
C 29.41793 2.78995 0.02108
C 30.66064 2.13219 0.00716
C 30.54734 0.72001 0.00307
C 29.4325 34.07207 0.00346
C 31.90114 32.72254 0.01713
C 33.15704 31.96838 -0.01694
C 33.10424 30.55845 0.01428
C 31.83372 29.80619 -0.02142
C 30.67634 5.00101 0.07705
C 31.96519 28.38724 0.0544
C 33.18374 26.30508 0.00682
C 31.96561 25.62103 -0.01779
C 31.85167 24.19633 0.03794
C 33.13264 23.46045 0.01927
C 33.16635 22.0558 0.01574
C 31.9136 21.37919 -0.02383
C 31.9484 19.92556 -0.01429
C 33.15532 19.16198 -0.0136
C 33.34634 17.72761 0.00594
C 33.17483 27.67406 0.00026
C 32.05675 17.07604 -0.02474
C 30.61908 6.38336 0.01908
C 29.53514 8.56586 -0.00971
C 29.43534 29.8442 0.0014
C 29.40897 28.42188 0.00924
C 30.67807 27.68706 0.02326
C 30.65157 26.313 0.00261
C 29.5285 25.48464 0.03265
C 29.38474 24.17002 -0.02049
C 30.69186 23.47519 -0.01854
C 30.68676 22.00793 -0.01415
C 29.49187 21.31907 -0.03039
C 29.49851 7.12954 0.01518
C 29.54391 19.88572 0.01836
C 30.7792 17.78723 -0.00669
C 29.57218 17.04754 0.0101
C 29.57088 15.64041 0.01705
C 30.7074 14.95164 -0.0405
C 30.74679 13.54668 -0.01303
C 29.55792 12.7508 -0.01461
C 29.49658 11.37682 -0.02155
C 30.79446 10.64629 -0.00944
C 30.72199 9.14154 -0.03735
C 30.76594 19.1759 0.03531
C 30.61677 30.57184 0.01324
C 31.97956 15.68583 0.00369
C 33.15156 13.52109 -0.00644
C 0.03111 21.33753 -0.02213
C 34.39511 19.9486 0.01951
C 1.1985 19.29841 -0.01678
C 1.45488 17.87435 0.01223
C 0.1325 17.05262 0.00648
C 0.09302 15.68145 0.02114
C 1.16406 14.8725 -0.02957
C 1.1523 13.59993 0.00343
C 0.01401 12.7743 -0.02656
C 1.17573 22.03694 0.02712
C 34.4032 11.38815 -0.02442
C 1.29139 9.32767 -0.00583
C 0.0371 8.52977 -0.02302
C 34.31174 7.14745 -0.02849
C 1.18414 6.43749 0.02931
C 1.19597 4.98958 0.00628
C 34.40451 4.26115 -0.0345
C 34.38908 2.87935 -0.00931
C 1.09272 2.24043 -0.00939
C 1.14563 0.80996 -0.00468
C 1.25003 10.7617 -0.00027
C 33.21203 14.95024 0.00455
C 1.1718 23.42714 0.00723
C 34.40353 25.57294 -0.05239
C 31.98088 12.80917 -0.01839
C 31.98971 11.42312 0.00137
C 33.14074 10.60379 0.00199
C 33.19012 9.18236 0.04381
C 31.97516 8.46442 0.02806
C 31.9324 7.10171 0.01504
C 33.18952 6.36952 -0.00069
C 33.1908 4.97345 0.04926
C 31.92448 4.26936 -0.03838
C 34.37292 24.0921 0.03076
C 31.82892 2.86952 0.00349
C 33.09979 0.83279 -0.00841
C 31.8611 0.10274 0.0001
C 34.41557 32.67267 -0.02927
C 1.15789 31.94729 -0.01404
C 1.19408 30.50623 0.01027
C 34.36995 29.89929 0.01831
C 34.3205 28.46676 -0.01037
C 1.15029 27.80965 -0.00439
C 1.15609 26.33559 -0.00598
C 33.08922 2.23546 -0.00323
C 3.64497 32.03678 -0.003
C 30.68801 31.99975 0.04266
C 26.94917 34.03976 -0.00416
C 22.04093 4.2196 0.03046
C 22.04597 2.71962 0.0296
C 23.18659 2.0236 0.03374
C 23.20003 0.6204 -0.02845
C 21.9907 33.93636 -0.03213
C 24.5357 32.58756 0.02239
C 25.78049 31.95496 0.01153
C 25.74175 30.48417 0.02734
C 24.49964 29.77006 -0.0055
C 23.3196 4.93095 -0.00381
C 24.49993 28.35763 0.01515
C 25.79788 26.19162 0.00071
C 24.62477 25.49745 -0.01107
C 24.60043 24.09151 -0.01586
C 25.74624 23.40362 -0.01971
C 25.77708 21.8741 -0.02118
C 24.49388 21.2599 0.00733
C 24.51759 19.86257 -0.00178
C 25.86589 19.15266 0.00768
C 25.94334 17.75559 -0.0276
C 25.74739 27.62656 -0.00225
C 24.66406 17.01244 0.03005
C 23.34031 6.38905 0.01852
C 22.08258 8.53754 -0.01185
C 22.09368 29.80067 -0.04076
C 22.09932 28.32945 -0.00652
C 23.34767 27.66052 0.0058
C 23.36579 26.26846 -0.00865
C 22.13818 25.48654 0.00675
C 22.08315 24.08635 -0.00311
C 23.30366 23.34353 0.00742
C 23.35604 21.94412 -0.01594
C 22.16733 21.19526 0.0106
C 22.12081 7.09906 0.01126
C 22.14881 19.77039 -0.01154
C 23.40028 17.70274 -0.02422
C 22.1499 17.00786 0.01277
C 22.1406 15.53183 0.00096
C 23.4389 14.87622 -0.01527
C 23.33194 13.44797 0.01087
C 22.12746 12.78367 0.00199
C 22.10688 11.34668 0.01511
C 23.3735 10.69253 -0.00478
C 23.32474 9.20081 -0.01662
C 23.35436 19.10842 -0.01721
C 29.48161 32.6163 0.01177
C 24.67773 15.62694 -0.04078
C 25.78903 13.44109 0.02737
C 27.06002 21.3045 0.00622
C 27.06659 19.87975 -0.02815
C 28.2959 19.14099 -0.00942
C 28.36449 17.65852 0.00487
C 27.09352 17.02834 0.00826
C 27.01068 15.51996 -0.00294
C 28.2674 14.95731 0.00152
C 28.30713 13.50151 0.01257
C 27.13795 12.76128 0.02316
C 28.24065 21.98109 -0.0032
C 27.07647 11.3364 0.04185
C 28.23377 9.20875 -0.00621
C 27.03444 8.43807 0.02611
C 26.95368 6.94842 0.02198
C 28.23453 6.37128 0.01094
C 28.30631 4.90066 0.00235
C 27.03033 4.22664 0.01495
C 27.02355 2.83006 0.01259
C 28.24275 2.09298 0.01799
C 28.1712 0.69542 0.01699
C 28.34149 10.68611 0.00194
C 25.80604 14.88133 0.02117
C 28.24336 23.42249 -0.00037
C 27.08552 25.58503 -0.00218
C 24.60284 12.7212 -0.00498
C 24.64654 11.33199 0.00135
C 25.85704 10.68923 0.03102
C 25.73782 9.25576 0.02555
C 24.48804 8.56641 0.01423
C 24.54616 7.03144 -0.00285
C 25.7256 6.28171 -0.009
C 25.80141 4.92616 -0.01199
C 24.46985 4.15525 -0.00229
C 26.98398 24.10015 -0.01654
C 24.53045 2.77397 -0.00938
C 25.71376 0.68997 -0.01154
C 24.44162 34.04823 0.00684
C 27.06428 32.65405 -0.01052
C 28.27187 31.96876 -0.01679
C 28.16867 30.48756 0.00367
C 26.94906 29.75375 0.04306
C 26.90105 28.36386 0.00996
C 28.20239 27.76758 0.00195
C 28.29911 26.2548 -0.00802
C 25.73133 2.0497 -0.0264
C 2.35326 32.70221 0.00031
