270
Graphene
C 34.40769 0.08858 0.01295
C 12.3624 32.60156 0.01511
C 9.79713 0.05685 0.00199
C 11.03805 0.7275 0.01087
C 11.07638 2.11966 -0.01527
C 9.88191 2.88478 0.00096
C 9.81601 4.26625 0.01277
C 11.05772 4.95764 -0.02422
C 11.0395 6.30653 -0.01721
C 9.83789 7.01124 -0.01154
C 9.84182 8.48938 0.0106
C 11.09937 9.19824 -0.01594
C 11.08738 10.58291 0.00742
C 9.90782 11.30876 -0.00311
C 9.86802 12.82793 0.00675
C 11.09554 13.61614 -0.00865
C 9.73451 28.26448 0.0058
C 9.79859 29.67493 -0.00652
C 11.01437 30.42075 -0.04076
C 11.11773 31.90392 -0.00703
C 9.83772 32.63953 0.00654
C 7.34199 0.00743 -0.04422
C 8.54478 0.75014 -0.02957
C 8.52521 2.20808 -0.00831
C 7.29405 2.87046 0.00364
C 7.42328 4.3241 -0.017
C 8.6334 5.00723 0.00143
C 8.59386 6.35056 0.00667
C 7.37273 7.11833 -0.0054
C 7.40408 8.55018 0.00755
C 13.59587 31.93413 -0.00478
C 13.55624 30.43608 -0.01662
C 12.31776 30.01737 -0.01185
C 13.58365 14.81324 0.01126
C 16.99649 15.6885 0.02555
C 17.25953 32.63387 0.03102
C 14.81568 34.06946 0.00135
C 16.05824 0.70077 -0.00498
C 16.09054 2.19876 0.02737
C 14.792 2.81239 0.02117
C 14.72182 4.22337 -0.04078
C 14.82192 7.2018 0.03005
C 14.58912 8.32891 -0.0276
C 14.76826 11.47069 0.00768
C 14.88074 12.67001 -0.00178
C 15.98373 15.0155 0.00733
C 14.81233 29.89146 -0.02118
C 15.77974 30.63071 -0.01971
C 8.60514 9.27201 0.01739
C 16.12856 31.933 -0.01586
C 12.33094 34.0091 0.00071
C 13.54429 0.69111 -0.00225
C 13.48471 2.13597 0.01515
C 12.27021 2.87549 -0.0055
C 12.28402 4.30105 0.02734
C 13.51867 4.99126 0.01153
C 13.62429 6.36001 0.02239
C 12.30398 7.07575 -0.03213
C 12.33573 8.46101 -0.02845
C 13.59009 9.22638 0.03374
C 13.60149 10.6047 0.0296
C 12.27992 11.34621 0.03046
C 12.21924 12.77404 -0.00381
C 13.63928 13.43499 0.01852
C 14.80455 32.66861 -0.01107
C 8.56887 10.69265 0.03754
C 7.30142 11.35347 -0.03557
C 7.33633 12.84949 -0.00111
C 2.42173 0.04969 0.00228
C 3.60863 0.76746 -0.00114
C 3.66595 2.16573 -0.02696
C 2.43586 2.82987 -0.00368
C 2.48982 4.23635 -0.0108
C 3.70264 5.02484 -0.01957
C 3.72924 6.48351 0.02058
C 2.46167 7.12739 0.01965
C 2.40661 8.52384 -0.03682
C 3.75871 9.19064 0.00052
C 3.63651 10.63213 0.00374
C 2.43406 11.36764 -0.02813
C 2.45613 12.83751 -0.01952
C 3.66304 13.56903 0.05265
C 4.85148 32.68719 0.00798
C 3.59853 14.90281 -0.01717
C 2.42282 17.03138 0.02299
C 3.54785 17.93932 0.03542
C 3.70892 19.09242 0.01416
C 2.48607 19.86389 0.01945
C 2.33991 21.29701 -0.01454
C 3.66064 21.89136 0.01241
C 3.67368 23.36929 0.0076
C 2.41214 24.09164 0.02162
C 2.37315 25.51816 -0.0014
C 3.65979 26.238 0.00415
C 3.68659 27.7175 -0.02162
C 2.46494 28.40423 0.01363
C 2.44344 29.83517 0.01877
C 3.67166 30.53238 -0.00925
C 2.4429 15.63072 0.00244
C 17.42458 2.82334 0.01423
C 6.17694 31.90386 0.00422
C 4.92013 29.89503 -0.03113
C 8.61469 13.45084 0.04892
C 7.23378 25.60156 0.01452
C 8.63585 27.77587 -0.01581
C 7.38199 28.35741 0.02691
C 7.43688 29.85412 -0.01979
C 8.66198 30.52448 0.02188
C 8.61477 31.95706 -0.00316
C 7.33922 32.71071 -0.0331
C 4.83096 0.05568 -0.0258
C 6.13249 0.74374 0.03338
C 6.09607 2.17883 -0.00491
C 4.87405 2.88523 -0.00109
C 4.90892 4.24267 0.03698
C 6.14479 4.95139 -0.02213
C 6.1798 30.50842 0.0351
C 6.14713 6.34862 0.00028
C 5.00134 8.50269 -0.00066
C 6.16544 9.2481 0.00213
C 6.04612 10.63691 -0.05302
C 4.81945 11.38681 -0.04147
C 4.91642 12.8819 -0.02815
C 6.12616 13.4213 0.03505
C 4.98655 21.4235 0.01443
C 6.1031 22.01921 0.00979
C 6.08224 23.25805 -0.00481
C 4.94096 24.0721 0.00889
C 4.84369 25.4887 -0.02162
C 6.12189 26.32343 -0.00619
C 6.11635 27.83118 0.01848
C 4.8956 28.4705 0.02098
C 4.99439 7.09001 -0.00289
C 18.24954 2.05153 -0.00285
C 18.60836 0.66017 -0.009
C 17.27798 34.05012 -0.01199
C 31.92378 2.83678 0.00349
C 31.84296 4.31594 -0.03838
C 33.19035 4.92373 0.04926
C 33.14711 6.31315 -0.00069
C 32.07448 7.15669 0.01504
C 32.05231 8.38777 0.02806
C 33.16064 9.29716 0.04381
C 33.13185 10.7293 0.00199
C 31.90019 11.38112 0.00137
C 31.99628 12.75502 -0.01839
C 33.28919 13.48506 -0.00644
C 33.22453 14.88693 0.00455
C 31.96078 15.53682 0.00369
C 31.89978 16.91092 -0.02474
C 33.15405 2.2445 -0.00323
C 33.17897 17.69047 0.00594
C 31.98353 19.89934 -0.01429
C 31.91155 21.30188 -0.02383
C 33.14308 22.01185 0.01574
C 33.16728 23.42595 0.01927
C 31.99919 24.14581 0.03794
C 31.98762 25.58929 -0.01779
C 33.21242 26.31253 0.00682
C 33.19642 27.69097 0.00026
C 31.95038 28.40407 0.0544
C 31.95927 29.85411 -0.02142
C 33.20248 30.57262 0.01428
C 33.18416 31.99492 -0.01694
C 31.98423 32.72144 0.01713
C 29.52268 0.04144 0.00346
C 33.18328 19.15971 -0.0136
C 30.77302 0.78001 0.00307
C 33.20605 0.84541 -0.00841
C 34.42455 32.74937 -0.02927
C 1.15873 0.77791 -0.00468
C 1.17258 2.15025 -0.00939
C 34.40155 2.85514 -0.00931
C 34.42476 4.28669 -0.0345
C 1.24854 4.98784 0.00628
C 1.21655 6.45028 0.02931
C 34.36987 7.12691 -0.02849
C 34.37268 8.56129 -0.02302
C 1.18008 9.28341 -0.00583
C 1.17968 10.63212 -0.00027
C 34.41044 11.35595 -0.02442
C 0.04273 12.78569 -0.02656
C 1.22308 13.51176 0.00343
C 1.20958 14.92427 -0.02957
C 32.01006 0.05684 0.0001
C 0.01993 15.66016 0.02114
C 1.23272 17.78491 0.01223
C 1.18955 19.1537 -0.01678
C 34.41201 19.90035 0.01951
C 34.35916 21.31213 -0.02213
C 1.15695 22.01299 0.02712
C 1.16505 23.41727 0.00723
C 34.40549 24.13623 0.03076
C 34.38958 25.55984 -0.05239
C 1.18686 26.29452 -0.00598
C 1.23215 27.76022 -0.00439
C 34.43246 28.36614 -0.01037
C 0.01146 29.83875 0.01831
C 1.22828 30.55886 0.01027
C 1.23743 31.98642 -0.01404
C 34.40823 17.07816 0.00648
C 3.64424 31.98102 0.00444
C 30.7519 2.21615 0.00716
C 30.69671 4.92155 0.0103
C 26.99646 29.81599 0.02198
C 28.2801 30.49541 0.02611
C 28.29939 31.87306 -0.00621
C 27.0515 32.59721 0.00194
C 24.63337 34.0702 0.04185
C 25.70211 0.65574 0.02316
C 25.95358 17.75821 0.01257
C 25.72579 19.12835 0.00152
C 24.4989 19.83028 -0.00294
C 24.53783 21.36759 0.00826
C 25.80194 22.00048 0.00487
C 25.86215 23.44031 -0.00942
C 24.56334 23.95672 -0.02815
C 25.8725 26.32715 0.00622
C 27.07643 28.42489 0.01094
C 25.79705 30.53874 -0.0032
C 24.56175 32.80508 -0.01654
C 22.22067 0.03598 -0.00218
C 23.25887 19.14476 -0.00802
C 22.06575 19.87937 0.00195
C 22.03639 21.32563 0.00996
C 23.26079 22.08003 0.04306
C 23.47394 23.51459 0.00367
C 19.773 0.00255 -0.01679
C 21.05704 0.39112 -0.01052
C 19.78599 17.19019 0.00684
C 20.83646 17.70171 -0.01154
C 21.06471 18.93098 -0.0264
C 20.97224 22.14031 -0.00938
C 20.97195 23.34329 -0.00229
C 25.66943 31.88139 -0.00037
C 29.48028 2.74399 0.02108
C 28.27411 27.74718 0.00235
C 26.98116 25.56446 0.01259
C 30.93288 13.58109 0.07705
C 30.58279 14.87743 0.01908
C 29.6062 15.79426 0.01518
C 29.5031 17.0746 -0.00971
C 30.7395 17.70379 -0.03735
C 30.76693 19.21147 -0.00944
C 29.54412 19.8965 -0.02155
C 29.53583 21.2938 -0.01461
C 30.74383 22.02543 -0.01303
C 30.71223 23.459 -0.0405
C 29.53121 24.17219 0.01705
C 29.45983 25.56594 0.0101
C 30.72622 26.24367 -0.00669
C 30.77151 27.63504 0.03531
C 28.28801 26.31759 0.01495
C 29.56337 28.43275 0.01836
C 30.73497 30.52067 -0.01415
C 30.70461 31.92306 -0.01854
C 29.49067 32.70515 -0.02049
C 26.96332 0.00213 0.03265
C 28.26902 0.7025 0.00261
C 28.40519 2.2259 0.02326
C 27.02318 17.21642 0.00924
C 28.24799 17.74627 0.0014
C 28.29753 19.16828 0.01324
C 26.96885 19.85044 0.04266
C 27.05075 21.26959 0.01177
C 28.25704 21.96656 -0.00416
C 28.32807 23.41156 0.01699
C 27.07776 24.09427 0.01799
C 29.48245 29.78992 -0.03039
C 2.45024 32.71434 -0.01789
