381
Graphene
C 0.01285 0.02187 0.01295
C 16.07754 9.1459 -0.01454
C 14.70282 8.67644 0.01945
C 14.74575 7.1503 0.01416
C 16.00917 6.39104 0.03542
C 16.04571 5.01817 0.02299
C 14.81802 4.29469 0.00244
C 14.73409 2.8132 -0.01717
C 15.93999 2.08853 0.05265
C 15.95568 0.57635 -0.01952
C 14.73321 34.04131 -0.02813
C 17.28822 32.68131 0.00374
C 18.48894 31.91321 0.00052
C 18.49187 30.50015 -0.03682
C 17.27699 29.79335 0.01965
C 17.18054 28.46962 0.02058
C 18.46184 27.63913 -0.01957
C 18.43914 26.16845 -0.0108
C 17.15189 25.49261 -0.00368
C 17.26092 24.05683 -0.02696
C 15.91088 21.99083 0.01241
C 15.96756 23.42964 0.0076
C 14.76049 24.08564 0.02162
C 14.69997 25.60816 -0.0014
C 12.18975 25.61798 -0.01275
C 12.44099 24.18285 0.00985
C 13.48099 23.54197 -0.02245
C 13.50658 9.25427 -0.00428
C 12.33213 8.54925 0.03101
C 12.29588 7.12083 -0.01536
C 13.54528 6.4147 -0.02689
C 13.60205 5.00238 -0.01046
C 12.35174 4.35686 -0.00891
C 18.43114 23.41626 -0.00114
C 12.30461 2.92785 0.02819
C 13.54545 0.65069 -0.02971
C 12.31533 0.00357 0.02894
C 14.79211 32.66217 -0.01789
C 16.08166 31.94142 0.00444
C 15.97062 30.46433 -0.00925
C 14.72179 29.85719 0.01877
C 14.76651 28.36346 0.01363
C 15.92535 27.66791 -0.02162
C 15.9988 26.24337 0.00415
C 13.60123 2.12434 0.00165
C 18.4594 22.04079 0.00228
C 17.21469 21.34168 0.00798
C 17.16225 20.01074 0.00422
C 19.64743 21.32366 -0.0331
C 19.64835 19.8121 -0.00316
C 20.90189 19.14739 0.02188
C 20.93217 17.80285 -0.01979
C 19.6548 17.00298 0.02691
C 19.65786 15.63978 -0.01581
C 20.86728 14.93716 0.01452
C 20.94315 13.47887 0.04892
C 19.7804 12.85888 -0.00111
C 20.90041 21.97399 -0.0258
C 19.64745 11.40054 -0.03557
C 20.93575 9.21249 0.01739
C 19.73903 8.46335 0.00755
C 19.61001 7.08341 -0.0054
C 20.87034 6.34675 0.00667
C 20.93612 4.91147 0.00143
C 19.69644 4.24889 -0.017
C 19.64401 2.86518 0.00364
C 20.83642 2.13395 -0.00831
C 20.8576 0.73377 -0.02957
C 20.85222 10.68835 0.03754
C 13.49786 26.32077 -0.01111
C 20.88682 23.43215 0.03338
C 19.71036 25.50071 -0.00109
C 18.39062 19.13005 0.0351
C 18.47927 17.78297 -0.03113
C 18.45514 10.65511 0.02098
C 18.50868 9.26326 0.01848
C 17.23487 8.53484 -0.00619
C 17.21201 7.05123 -0.02162
C 18.40161 6.35802 0.00889
C 18.44454 4.96656 -0.00481
C 17.281 4.29402 0.00979
C 19.63851 24.11665 -0.00491
C 17.16585 2.83686 0.01443
C 18.39687 0.73531 -0.02815
C 17.20291 34.04853 -0.04147
C 19.60544 32.659 -0.05302
C 20.88148 31.97487 0.00213
C 20.96724 30.49976 -0.00066
C 19.68061 29.78498 -0.00289
C 19.66321 28.32554 0.00028
C 20.88532 27.65637 -0.02213
C 20.90673 26.22487 0.03698
C 18.38831 2.12551 0.03505
C 13.56827 27.6799 0.02841
C 12.37105 28.44321 0.00943
C 12.24431 29.8956 0.00406
C 2.47437 2.80567 -0.00725
C 3.68961 2.14197 -0.05697
C 3.67081 0.73737 0.01087
C 2.47705 0.05988 -0.01343
C 4.89802 32.61383 0.00988
C 6.12657 31.98614 0.0276
C 6.08593 30.58372 0.01305
C 4.8631 29.83423 -0.00077
C 4.91989 28.40552 0.03368
C 2.45751 4.30558 0.02322
C 6.1629 27.65446 -0.02929
C 4.92365 25.60961 -0.03337
C 4.95631 12.79136 0.01227
C 4.93087 11.40777 0.00873
C 6.10643 10.7433 -0.00049
C 6.18511 9.26971 0.00848
C 4.90759 8.50455 -0.01303
C 4.89624 7.09887 -0.01378
C 6.0978 6.42635 0.02635
C 6.19773 4.90634 0.0127
C 6.16476 26.27151 -0.00966
C 4.91134 4.25938 0.01396
C 3.75419 4.96048 -0.00094
C 2.4634 7.08878 -0.03113
C 3.61028 30.5424 0.02379
C 2.4093 29.92268 0.00907
C 2.45828 28.41763 0.00643
C 3.72778 27.68717 -0.01509
C 3.69868 26.28474 0.03267
C 2.50466 25.5361 0.02374
C 2.46879 24.10594 0.00402
C 3.75314 23.3333 0.0073
C 3.55537 22.04894 0.0174
C 3.68408 6.47319 -0.02566
C 2.41383 21.31167 0.03828
C 2.38321 17.06919 -0.00279
C 2.56325 15.70472 0.01996
C 3.6537 14.80683 -0.03996
C 3.781 13.51669 0.01465
C 2.48827 12.83386 -0.00074
C 2.47276 11.41636 -0.00518
C 3.68531 10.64605 0.0086
C 3.6506 9.17807 -0.00643
C 2.42424 8.48459 0.017
C 2.49839 19.87334 0.01226
C 19.66843 34.05588 -0.04422
C 4.92207 2.86906 0.01849
C 6.15654 0.79308 -0.00562
C 11.01574 30.56095 0.02147
C 9.8781 29.80917 0.00373
C 9.93004 28.39594 -0.00191
C 11.10321 27.74421 0.00438
C 10.98195 26.15929 0.01291
C 9.78227 25.53786 0.00093
C 10.98819 10.64545 0.00057
C 11.01199 9.20597 -0.01634
C 9.81946 8.50907 -0.00334
C 11.06243 31.98857 -0.014
C 9.81039 7.13088 0.02339
C 11.12355 4.92279 -0.00719
C 9.84961 4.31899 0.01364
C 9.80877 2.88922 -0.01062
C 11.09859 2.176 -0.00033
C 11.04962 0.69824 0.03589
C 9.84188 0.01142 -0.02759
C 12.32547 32.69709 0.0402
C 13.52517 31.98353 0.00572
C 13.46715 30.58459 0.03592
C 11.1078 6.3685 0.01641
C 6.1417 2.19464 -0.01142
C 9.82161 32.68916 -0.01118
C 8.64627 0.77484 -0.02896
C 4.86708 0.09159 -0.00494
C 7.35522 32.71837 0.00054
C 8.61879 31.95573 0.03007
C 8.53816 30.52545 -0.00095
C 7.35423 29.85861 0.01572
C 7.40481 28.39168 -0.04848
C 8.64196 27.69371 -0.00892
C 8.60079 26.30642 -0.01362
C 7.35049 25.58503 -0.0008
C 7.40093 0.0343 -0.00131
C 7.29953 24.18188 0.0288
C 8.50401 10.73102 0.00895
C 8.61645 9.22184 0.00685
C 7.40338 8.5267 0.02888
C 7.31198 7.14016 -0.00482
C 8.56424 6.43424 -0.01384
C 8.64789 5.04178 0.03693
C 7.41307 4.23012 0.01745
C 7.36461 2.86005 0.00488
C 8.55483 2.1594 -0.01004
C 7.44594 11.32915 0.00393
C 3.64754 31.99911 0.01402
C 22.03795 32.67637 0.00654
C 23.32868 30.54394 -0.04076
C 29.46813 2.76215 0.02108
C 30.75508 2.189 0.00716
C 30.69633 0.71236 0.00307
C 29.50219 0.0382 0.00346
C 31.96188 32.61629 0.01713
C 33.1778 31.94728 -0.01694
C 33.19478 30.56597 0.01428
C 32.02695 29.82316 -0.02142
C 32.01181 28.44905 0.0544
C 33.19739 27.6782 0.00026
C 33.18216 26.28096 0.00682
C 31.94568 25.56939 -0.01779
C 31.91366 24.19574 0.03794
C 33.23879 23.42075 0.01927
C 33.23384 21.97003 0.01574
C 32.03799 21.27 -0.02383
C 31.95914 19.90357 -0.01429
C 33.1971 19.20845 -0.0136
C 33.21712 17.76035 0.00594
C 29.49746 4.24658 0.0103
C 30.71921 4.96249 0.07705
C 30.72245 6.42751 0.01908
C 29.56051 7.15652 0.01518
C 29.55113 28.31305 0.00924
C 30.7985 27.64774 0.02326
C 30.75267 26.26598 0.00261
C 29.49107 25.58502 0.03265
C 29.53 24.10129 -0.02049
C 30.70781 23.43307 -0.01854
C 30.82549 21.96389 -0.01415
C 29.48011 21.25585 -0.03039
C 29.4688 19.90107 0.01836
C 31.95101 17.00349 -0.02474
C 30.69841 19.19857 0.03531
C 29.49634 17.02565 0.0101
C 29.5347 15.54873 0.01705
C 30.79463 14.90164 -0.0405
C 30.75048 13.53187 -0.01303
C 29.58816 12.76311 -0.01461
C 29.52683 11.28742 -0.02155
C 30.74962 10.64456 -0.00944
C 30.78991 9.18931 -0.03735
C 29.49391 8.52122 -0.00971
C 30.74189 17.72559 -0.00669
C 31.99603 15.63084 0.00369
C 33.20678 14.9206 0.00455
C 33.22055 13.54982 -0.00644
C 34.42841 21.30982 -0.02213
C 0.04512 19.95039 0.01951
C 1.20461 19.21501 -0.01678
C 1.21253 17.77678 0.01223
C 34.41179 17.0286 0.00648
C 0.06401 15.65129 0.02114
C 1.27247 14.9099 -0.02957
C 1.21476 13.4467 0.00343
C 34.42617 12.83491 -0.02656
C 1.20435 22.0488 0.02712
C 0.01829 11.42871 -0.02442
C 1.16113 9.16004 -0.00583
C 34.38592 8.48407 -0.02302
C 34.42463 7.08845 -0.02849
C 1.2939 6.37347 0.02931
C 1.1481 4.91311 0.00628
C 34.34493 4.25953 -0.0345
C 34.41606 2.78111 -0.00931
C 1.20839 2.10589 -0.00939
C 1.22427 0.65765 -0.00468
C 1.22603 10.72918 -0.00027
C 29.51609 29.85538 0.0014
C 1.23253 23.43898 0.00723
C 34.41183 25.55143 -0.05239
C 31.92498 12.74977 -0.01839
C 31.90834 11.37913 0.00137
C 33.19464 10.67641 0.00199
C 33.23815 9.18914 0.04381
C 31.97428 8.53011 0.02806
C 31.93224 7.14869 0.01504
C 33.19235 6.43799 -0.00069
C 33.18342 5.04649 0.04926
C 31.94208 4.31279 -0.03838
C 34.4074 24.15262 0.03076
C 31.97733 2.88917 0.00349
C 33.22395 0.71473 -0.00841
C 31.98095 34.06457 0.0001
C 34.40406 32.63569 -0.02927
C 1.20141 31.95095 -0.01404
C 1.193 30.57597 0.01027
C 34.41928 29.90266 0.01831
C 0.01022 28.3432 -0.01037
C 1.23236 27.66621 -0.00439
C 1.18865 26.23603 -0.00598
C 33.19439 2.14999 -0.00323
C 30.79598 30.50386 0.01324
C 30.65204 31.88392 0.04266
C 29.49121 32.65847 0.01177
C 22.15033 4.2335 0.0296
C 22.12574 2.7772 0.03374
C 23.34494 2.14149 -0.02845
C 23.39809 0.67423 -0.03213
C 22.13174 0.00941 0.02239
C 24.6114 32.66479 0.01153
C 25.80644 31.89592 0.02734
C 25.83141 30.44711 -0.0055
C 24.58009 29.78851 0.01515
C 23.33051 4.95398 0.03046
C 24.57766 28.40355 -0.00225
C 25.8684 26.24806 -0.01107
C 24.59227 25.58653 -0.01586
C 24.50559 24.15098 -0.01971
C 25.71129 23.39019 -0.02118
C 25.80885 21.94788 0.00733
C 24.52396 19.84525 -0.00178
C 25.85117 19.18334 0.00768
C 25.82928 17.7424 -0.0276
C 24.50055 17.05387 0.03005
C 25.75845 27.62665 0.00071
C 24.58048 15.6239 -0.04078
C 23.36211 6.35593 -0.00381
C 22.18259 8.44413 0.01126
C 22.18351 29.75933 -0.00652
C 22.17711 28.37825 0.0058
C 23.35578 27.67412 -0.00865
C 23.37743 26.20331 0.00675
C 22.10701 25.52197 -0.00311
C 22.10087 24.1435 0.00742
C 23.43544 23.31945 -0.01594
C 23.47688 21.93243 0.0106
C 22.14328 21.24563 -0.01154
C 22.13081 7.05493 0.01852
C 22.11419 19.88478 -0.01721
C 23.34068 17.72875 0.01277
C 22.17457 17.04913 0.00096
C 22.0954 15.60372 -0.01527
C 23.35694 14.91481 0.01087
C 23.41656 13.48132 0.00199
C 22.22364 12.78894 0.01511
C 22.16215 11.41152 -0.00478
C 23.36807 10.67795 -0.01662
C 23.41072 9.14403 -0.01185
C 23.33952 19.19101 -0.02422
C 23.38039 31.98089 -0.00703
C 25.79059 14.98969 0.02117
C 24.56553 12.76782 -0.00498
C 27.05864 19.89218 -0.02815
C 28.23835 19.19432 -0.00942
C 28.27784 17.73686 0.00487
C 27.08351 17.08164 0.00826
C 27.02161 15.69373 -0.00294
C 28.27363 14.88945 0.00152
C 28.31385 13.52244 0.01257
C 27.1031 12.77955 0.02316
C 27.11193 11.3279 0.04185
C 26.93932 21.2502 0.00622
C 28.33704 10.66284 0.00194
C 27.03821 8.49766 0.02611
C 27.21274 7.14627 0.02198
C 28.2936 6.41954 0.01094
C 28.27888 4.9556 0.00235
C 27.07817 4.23793 0.01495
C 26.95648 2.85129 0.01259
C 28.18252 2.13878 0.01799
C 28.22814 0.69949 0.01699
C 27.00508 34.05298 -0.00416
C 28.30982 9.20067 -0.00621
C 25.74863 13.46502 0.02737
C 28.27934 22.02201 -0.0032
C 27.00544 24.14782 -0.01654
C 24.55778 11.33776 0.00135
C 25.78261 10.66825 0.03102
C 25.8152 9.23476 0.02555
C 24.59516 8.47828 0.01423
C 24.58944 7.0864 -0.00285
C 25.86401 6.29187 -0.009
C 25.84245 4.95466 -0.01199
C 24.59031 4.23465 -0.00229
C 24.57185 2.84732 -0.00938
C 28.34282 23.49774 -0.00037
C 25.82433 2.15271 -0.0264
C 24.57373 34.01845 0.00684
C 27.02135 32.6074 -0.01052
C 28.24994 31.98672 -0.01679
C 28.25738 30.56038 0.00367
C 27.05388 29.79813 0.04306
C 27.10562 28.43882 0.00996
C 28.31209 27.70276 0.00195
C 28.27129 26.28054 -0.00802
C 27.03148 25.50303 -0.00218
C 25.8066 0.75255 -0.01154
C 2.45213 32.68835 -0.003
