325
Graphene
C 34.2479 0.04433 0.01295
C 9.92115 24.07837 -0.00066
C 11.18353 23.46939 -0.00289
C 11.16862 22.02039 0.00028
C 9.92229 21.34881 -0.02213
C 9.87174 19.94562 0.03698
C 11.14687 19.19928 -0.00109
C 11.07399 17.85385 -0.00491
C 9.84019 25.57967 0.00213
C 9.87031 17.15836 0.03338
C 11.16654 14.93389 -0.0331
C 11.01238 13.55886 -0.00316
C 9.81813 12.7831 0.02188
C 9.76215 11.38459 -0.01979
C 10.999 10.7089 0.02691
C 11.05077 9.26332 -0.01581
C 9.84301 8.52162 0.01452
C 9.91812 15.72764 -0.0258
C 9.75447 7.08024 0.04892
C 11.10727 26.33159 -0.05302
C 9.86757 28.44711 -0.02815
C 7.3014 11.34996 -0.02696
C 8.5172 10.54473 -0.00114
C 8.55838 9.18978 0.00228
C 7.33003 8.42658 0.00798
C 7.30466 7.09294 0.00422
C 8.55513 6.3993 0.0351
C 8.51333 4.97423 -0.03113
C 11.0957 27.69891 -0.04147
C 7.25612 4.24525 0.02098
C 8.58718 2.19633 -0.00619
C 8.53116 0.7612 -0.02162
C 7.31749 0.03147 0.00889
C 9.75412 32.65971 -0.00481
C 10.98367 31.94317 0.00979
C 11.04908 30.56716 0.01443
C 9.81953 29.8905 0.03505
C 7.30712 2.87529 0.01848
C 11.05446 6.47311 -0.00111
C 10.98513 4.97172 -0.03557
C 9.8312 4.28133 0.03754
C 13.59323 14.9177 -0.01154
C 13.52121 13.48625 -0.01721
C 12.269 12.81883 -0.02422
C 12.2421 11.42196 0.01277
C 13.41112 10.67201 0.00096
C 13.54377 9.26206 -0.01527
C 12.30532 8.52623 0.01087
C 12.37033 15.67006 0.0106
C 12.24359 7.13747 0.00199
C 13.61332 4.97626 -0.00478
C 12.28445 4.36153 -0.01662
C 12.27891 2.95598 -0.01185
C 13.54846 2.27071 0.01126
C 13.38664 0.84099 0.01852
C 12.15029 0.03818 -0.00381
C 14.60627 32.68713 0.03046
C 13.51964 6.45175 0.01511
C 12.36298 17.06701 -0.01594
C 13.54028 17.74431 0.00742
C 13.60715 19.17504 -0.00311
C 9.85682 2.86037 0.01739
C 11.0504 2.21523 0.00755
C 10.99137 0.81827 -0.0054
C 9.79183 0.03613 0.00667
C 12.20911 32.67588 0.00143
C 13.36996 31.92746 -0.017
C 13.59337 30.56618 0.00364
C 12.34939 29.83311 -0.00831
C 12.36713 28.3054 -0.02957
C 13.72416 27.4971 -0.04422
C 13.61171 26.1415 0.00654
C 12.27105 25.60876 -0.00703
C 12.37661 24.18948 -0.04076
C 13.66828 23.67606 -0.00652
C 13.86905 22.28492 0.0058
C 12.40482 21.39451 -0.00865
C 12.45024 20.00439 0.00675
C 7.3808 12.76962 -0.00368
C 8.59698 13.52096 -0.0108
C 8.65198 14.93734 -0.01957
C 7.36365 15.58081 0.02058
C 2.42919 8.51461 0.00093
C 2.31238 7.11002 0.00057
C 3.58503 6.38595 -0.01634
C 3.62845 4.94625 -0.00334
C 2.40783 4.28315 0.02339
C 2.34456 2.8449 0.01641
C 3.62396 2.16226 -0.00719
C 3.57435 9.25429 0.01291
C 3.56907 0.73353 0.01364
C 4.89382 32.66476 -0.00033
C 6.09226 31.97375 0.03589
C 6.12969 30.49436 -0.02759
C 4.84633 29.80067 0.0402
C 4.90181 28.35543 0.00572
C 6.11111 27.70176 0.03592
C 6.13118 26.29485 0.00406
C 2.37752 0.07677 -0.01062
C 3.59465 10.68713 0.00438
C 2.37787 11.36327 -0.00191
C 2.36277 12.83575 0.00373
C 3.58044 30.62196 -0.0008
C 2.39056 29.90838 0.0288
C 2.3998 28.48632 0.00393
C 3.68777 27.75965 0.00895
C 3.59818 26.3112 0.00685
C 2.36752 25.60906 0.02888
C 2.40289 24.2187 -0.00482
C 3.64471 23.45906 -0.01384
C 3.75241 22.06058 0.03693
C 2.48438 21.40128 0.01745
C 2.42025 19.9907 0.00488
C 3.71495 19.21652 -0.01004
C 3.68271 17.80636 -0.02896
C 2.40423 17.17393 -0.00131
C 2.39337 15.69431 -0.01118
C 3.58614 14.96212 -0.014
C 3.68399 13.49662 0.02147
C 4.93246 25.56471 0.00943
C 15.75212 32.02012 0.0296
C 4.88524 24.14781 0.02841
C 6.17506 22.04036 -0.01275
C 7.34803 32.68524 0.0076
C 8.53675 32.05934 0.01241
C 8.6483 30.57744 -0.01454
C 7.37222 29.82724 0.01945
C 7.36333 28.47628 0.01416
C 8.57178 27.7071 0.03542
C 8.67695 26.31327 0.02299
C 4.86253 0.03718 0.02162
C 7.41425 25.57556 0.00244
C 8.68738 23.38706 0.05265
C 8.66168 21.94713 -0.01952
C 7.43755 21.31548 -0.02813
C 7.39465 19.84309 0.00374
C 8.6395 19.18645 0.00052
C 8.68553 17.84983 -0.03682
C 7.42999 17.09217 0.01965
C 7.4289 24.15747 -0.01717
C 6.14458 0.71727 -0.0014
C 6.0461 2.11687 0.00415
C 4.86862 2.85728 -0.02162
C 4.98891 21.27143 0.00985
C 4.95205 19.8617 -0.02245
C 6.1278 19.13799 -0.00428
C 6.14873 17.72436 0.03101
C 4.95107 16.97826 -0.01536
C 4.92881 15.65101 -0.02689
C 6.16542 14.9207 -0.01046
C 6.14639 13.46418 -0.00891
C 4.84469 12.75052 0.02819
C 4.8208 11.35192 0.00165
C 6.05412 10.61369 -0.02971
C 6.10938 9.14047 0.02894
C 4.81125 8.49413 -0.01789
C 4.83505 7.08137 0.00444
C 6.08151 6.35499 -0.00925
C 6.08812 4.97799 0.01877
C 4.86147 4.28223 0.01363
C 6.23227 23.44422 -0.01111
C 3.64525 31.975 -0.01362
C 16.00759 30.58958 0.03374
C 14.78115 28.41313 -0.03213
C 33.01825 26.3655 0.00682
C 31.82159 25.65549 -0.01779
C 32.00823 24.44447 0.03794
C 33.11234 23.59331 0.01927
C 33.13015 22.21944 0.01574
C 31.8985 21.48252 -0.02383
C 31.85941 20.02405 -0.01429
C 33.16482 27.79934 0.00026
C 33.18061 19.36168 -0.0136
C 31.95266 17.14879 -0.02474
C 31.91874 15.6478 0.00369
C 33.16383 14.97927 0.00455
C 33.12654 13.52332 -0.00644
C 31.93213 12.7915 -0.01839
C 31.96681 11.31648 0.00137
C 33.15004 10.57998 0.00199
C 33.11785 17.94718 0.00594
C 33.05054 9.22631 0.04381
C 31.92913 28.45856 0.0544
C 33.07964 30.67925 0.01428
C 30.61934 14.88939 -0.01303
C 30.69738 13.4584 -0.01461
C 29.47184 12.60264 -0.02155
C 29.5194 11.181 -0.00944
C 30.7782 10.67769 -0.03735
C 30.67286 9.24362 -0.00971
C 29.34109 8.71064 0.01518
C 31.88678 29.89316 -0.02142
C 29.19231 7.08742 0.01908
C 30.62917 5.127 0.0103
C 29.44159 4.51436 0.02108
C 30.49418 2.27389 0.00716
C 30.30762 0.91685 0.00307
C 29.03584 0.10868 0.00346
C 31.69245 32.79873 0.01713
C 32.99506 32.07559 -0.01694
C 30.53811 6.54021 0.07705
C 31.85699 8.52372 0.02806
C 31.7523 7.1549 0.01504
C 33.02756 6.45196 -0.00069
C 34.36313 17.16956 0.00648
C 34.36158 15.79364 0.02114
C 1.09595 15.01488 -0.02957
C 1.13271 13.58094 0.00343
C 34.28889 12.75284 -0.02656
C 34.33744 11.2959 -0.02442
C 1.12663 10.70752 -0.00027
C 1.16033 17.86731 0.01223
C 1.15282 9.15746 -0.00583
C 34.25174 7.07163 -0.02849
C 1.05673 6.4035 0.02931
C 1.13952 4.9762 0.00628
C 34.35649 4.26416 -0.0345
C 34.27199 2.83164 -0.00931
C 1.10319 2.16508 -0.00939
C 1.1387 0.73388 -0.00468
C 34.25332 8.50269 -0.02302
C 1.21472 19.30053 -0.01678
C 0.0415 20.02228 0.01951
C 0.01888 21.4732 -0.02213
C 33.06906 5.02045 0.04926
C 31.82319 4.36897 -0.03838
C 31.76167 3.00947 0.00349
C 32.96524 2.18661 -0.00323
C 32.93651 0.7453 -0.00841
C 31.66428 0.17858 0.0001
C 34.2109 32.7342 -0.02927
C 1.11537 32.12297 -0.01404
C 1.18554 30.74806 0.01027
C 34.37044 29.98443 0.01831
C 34.37542 28.56886 -0.01037
C 1.15952 27.79924 -0.00439
C 1.14812 26.35715 -0.00598
C 34.32796 25.68551 -0.05239
C 34.42781 24.29153 0.03076
C 1.19291 23.52676 0.00723
C 1.25947 22.15531 0.02712
C 29.41052 15.61198 -0.0405
C 29.48352 17.02409 0.01705
C 30.62218 17.85718 0.0101
C 30.74183 19.25797 -0.00669
C 17.00272 32.75079 0.03102
C 18.12365 31.99219 0.02555
C 17.39891 30.41492 0.01423
C 17.24556 17.04164 -0.00285
C 17.64545 15.77782 -0.009
C 18.66745 14.99889 -0.01199
C 18.5605 13.17016 -0.00229
C 14.56921 0.04574 0.00135
C 17.44247 12.48512 -0.00938
C 18.06172 9.93744 -0.01154
C 17.15422 8.56666 0.00684
C 17.40543 7.26787 -0.01052
C 18.39999 6.40229 -0.01679
C 18.62837 4.98734 0.00367
C 17.33055 4.2329 0.04306
C 17.2571 2.78657 0.00996
C 17.23214 11.08869 -0.0264
C 15.89232 0.81618 -0.00498
C 16.02012 2.15855 0.02737
C 14.82862 2.91484 0.02117
C 14.37799 24.80517 0.02239
C 14.78802 21.17742 0.01153
C 14.76871 19.98361 0.02734
C 16.16739 17.61547 -0.0055
C 14.76818 17.03051 0.01515
C 14.85718 15.55783 -0.00225
C 16.23791 14.88968 0.00071
C 16.12802 13.33565 -0.01107
C 14.80896 12.73429 -0.01586
C 14.67484 11.36456 -0.01971
C 15.85847 10.69457 -0.02118
C 15.85764 9.31405 0.00733
C 14.77918 8.53104 -0.00178
C 14.80031 7.05577 0.00768
C 16.03781 6.39679 -0.0276
C 16.0881 5.06397 0.03005
C 14.83965 4.32345 -0.04078
C 18.49293 1.96998 0.00195
C 14.78842 29.81085 -0.02845
C 18.36007 0.50866 -0.00802
C 19.51472 32.37994 -0.01654
C 24.5423 33.90188 0.01699
C 26.95995 32.64155 -0.00416
C 28.1696 31.95091 0.01177
C 28.48508 30.53786 0.04266
C 26.86474 15.42238 0.01324
C 28.10895 14.85616 0.0014
C 28.22071 13.26419 0.00924
C 25.71599 0.80233 0.01799
C 27.05197 12.71407 0.02326
C 28.48666 5.90113 0.03265
C 27.21651 0.13604 -0.02049
C 29.30919 32.75307 -0.01854
C 30.52208 32.05958 -0.01415
C 30.64074 30.59547 -0.03039
C 29.46801 29.82216 0.01836
C 30.6536 27.75055 0.03531
C 28.65961 9.97807 0.00261
C 25.00236 1.83232 0.01259
C 25.78122 13.20538 0.01495
C 26.10093 14.47506 0.00235
C 20.83012 31.62046 -0.00037
C 19.95856 14.4402 -0.0032
C 21.02044 13.27305 0.00622
C 19.6952 12.74705 -0.02815
C 19.78002 4.14431 -0.00942
C 19.68326 2.7104 0.00487
C 20.85358 1.85818 0.00826
C 20.76757 0.33714 -0.00294
C 19.58413 33.80166 0.00152
C 21.77539 32.31301 0.01257
C 22.13252 14.16763 0.02316
C 22.12104 2.45678 0.04185
C 23.4167 1.95859 0.00194
C 23.26182 0.41581 -0.00621
C 22.00264 33.70588 0.02611
C 24.783 32.50956 0.02198
C 25.78128 31.94899 0.01094
C 17.00312 0.05571 -0.00218
C 2.42235 32.68792 -0.00892
