445
Graphene
C 34.42123 34.03611 0.01295
C 13.44774 17.81134 0.01291
C 12.28704 17.11732 0.00093
C 12.28499 15.68984 0.00057
C 13.4677 14.94392 -0.01634
C 13.55689 13.4544 -0.00334
C 12.36105 12.79387 0.02339
C 12.3366 11.40495 0.01641
C 13.52256 10.577 -0.00719
C 13.44973 9.21031 0.01364
C 12.24741 8.46649 -0.01062
C 12.30218 7.02305 -0.00033
C 13.59747 6.43887 0.03589
C 13.56392 5.02583 -0.02759
C 12.34976 4.29973 0.0402
C 12.36873 2.73157 0.00572
C 13.49034 2.00837 0.03592
C 13.49266 0.60937 0.00406
C 12.27895 33.96587 0.00943
C 14.73747 32.67287 0.02841
C 16.02358 31.91882 -0.01111
C 16.01129 30.51755 -0.01275
C 14.72989 29.83539 0.00985
C 14.75001 28.36978 -0.02245
C 13.55052 19.17712 0.00438
C 12.20703 19.96399 -0.00191
C 12.26954 21.38219 0.00373
C 13.54116 22.06695 0.02147
C 11.1419 13.55437 -0.00494
C 9.91274 12.85145 0.00054
C 9.80021 11.43974 0.03007
C 11.01815 10.71815 -0.00095
C 11.03128 9.23548 0.01572
C 9.78226 8.66868 -0.04848
C 9.87386 7.17667 -0.00892
C 11.07841 6.44197 -0.01362
C 11.1214 5.01599 -0.0008
C 9.85802 4.30032 0.0288
C 9.81343 2.91742 0.00393
C 15.94852 27.70974 -0.00428
C 11.10042 2.09485 0.00895
C 9.77103 0.03024 0.02888
C 12.25908 32.56114 -0.00482
C 13.4776 31.93355 -0.01384
C 13.50791 30.56384 0.03693
C 12.31087 29.875 0.01745
C 12.24317 28.5197 0.00488
C 13.45482 27.67128 -0.01004
C 13.48482 26.30145 -0.02896
C 12.26813 25.62358 -0.00131
C 12.28146 24.14555 -0.01118
C 13.54095 23.46521 -0.014
C 11.02778 0.71343 0.00685
C 15.98584 26.24566 0.03101
C 14.71463 25.59381 -0.01536
C 14.75873 24.22343 -0.02689
C 18.37496 27.65412 0.00052
C 18.4804 26.3134 -0.03682
C 17.19386 25.55647 0.01965
C 17.20984 24.11806 0.02058
C 18.37445 23.41566 -0.01957
C 18.34787 21.94327 -0.0108
C 17.10733 21.23086 -0.00368
C 17.18632 19.81742 -0.02696
C 18.4539 19.20423 -0.00114
C 18.41251 17.71328 0.00228
C 17.18882 17.03071 0.00798
C 17.18273 28.42184 0.00374
C 17.191 15.60661 0.00422
C 18.42991 13.5184 -0.03113
C 17.27988 12.78731 0.02098
C 17.24631 11.37889 0.01848
C 18.44941 10.62406 -0.00619
C 18.44309 9.17541 -0.02162
C 17.21356 8.49974 0.00889
C 17.25468 7.10261 -0.00481
C 18.47416 6.33461 0.00979
C 18.4077 4.98218 0.01443
C 17.18549 4.27088 0.03505
C 17.17544 2.8398 -0.02815
C 18.36655 14.95131 0.0351
C 11.0815 14.99296 -0.00562
C 17.21996 29.82451 -0.02813
C 18.42605 32.00996 0.05265
C 15.99127 23.45743 -0.01046
C 15.96834 21.98234 -0.00891
C 14.72529 21.27269 0.02819
C 14.70454 19.8901 0.00165
C 15.97279 19.11984 -0.02971
C 15.90951 17.72358 0.02894
C 14.71468 17.01384 -0.01789
C 14.71669 15.58015 0.00444
C 16.00456 14.87771 -0.00925
C 16.01261 13.4712 0.01877
C 14.76682 12.73072 0.01363
C 18.41136 30.54622 -0.01952
C 14.73476 11.3269 -0.02162
C 15.99642 9.21749 -0.0014
C 14.74955 8.49874 0.02162
C 14.83807 7.06645 0.0076
C 16.04561 6.46342 0.01241
C 15.98689 4.95049 -0.01454
C 14.75568 4.19973 0.01945
C 14.71745 2.78478 0.01416
C 15.92589 2.14794 0.03542
C 15.93367 0.70142 0.02299
C 14.72527 34.03175 0.00244
C 17.13721 32.73795 -0.01717
C 15.98661 10.65443 0.00415
C 9.83803 15.66473 -0.01142
C 9.85077 17.03889 0.01849
C 10.98213 17.85798 0.01396
C 3.71926 0.69087 -0.01299
C 2.50325 34.06682 -0.00407
C 4.98076 32.63721 0.01138
C 6.14347 32.00146 0.03278
C 6.18617 30.50216 -0.00177
C 5.06474 29.82005 0.04421
C 4.96567 28.42606 0.00088
C 6.18258 27.67249 0.00828
C 6.1414 26.28433 -0.02375
C 4.86731 25.58997 0.00558
C 4.87394 24.23739 -0.0059
C 3.67113 2.11448 -0.0154
C 6.13586 23.51482 -0.01386
C 4.90356 21.2534 0.00081
C 4.94004 19.84162 0.00245
C 6.14884 19.16922 0.02728
C 6.20622 17.78287 -0.00039
C 4.88729 17.03285 0.0064
C 4.8901 15.64465 0.00211
C 6.1207 14.9832 -0.00449
C 6.13084 13.55344 -0.01979
C 4.98554 12.84951 0.02784
C 4.8831 11.35953 -0.01977
C 6.14857 10.67354 -0.00561
C 6.11553 22.06741 -0.02805
C 6.11655 9.30838 0.00208
C 2.39894 2.71348 0.00662
C 3.62784 4.97208 0.03345
C 3.74521 30.46892 -0.02419
C 2.4986 29.85649 -0.03951
C 2.53388 28.42414 -0.00141
C 3.75965 27.75871 -0.00374
C 3.6754 26.37831 -0.0213
C 2.45782 25.54546 0.01116
C 2.49745 24.03992 -0.0005
C 3.75351 23.30906 -0.00018
C 3.69465 21.98807 0.01073
C 2.36817 21.24 0.01984
C 2.37197 19.79876 0.00535
C 2.45747 4.1733 0.00748
C 3.61603 19.17385 -0.00198
C 2.41043 17.0287 -0.04306
C 2.45406 15.62675 -0.03672
C 3.62324 14.97709 0.01913
C 3.73077 13.43324 0.00267
C 2.45771 12.75985 0.00787
C 2.4333 11.33428 0.02426
C 3.71035 10.72019 0.01218
C 3.67972 9.26515 -0.01471
C 2.43125 8.50756 -0.02827
C 2.47121 7.12334 0.01078
C 3.67842 6.35839 -0.00112
C 3.58074 17.80286 -0.00012
C 18.40731 2.1014 -0.04147
C 4.90714 8.55619 0.01707
C 6.11663 6.41557 -0.03291
C 8.57473 9.30365 -0.03113
C 7.33667 8.60056 -0.02566
C 7.3352 7.21322 -0.00094
C 8.64727 6.49751 0.02322
C 8.63849 5.00812 -0.00725
C 7.39554 4.30104 -0.05697
C 7.42315 2.89075 0.01087
C 8.67871 2.15539 -0.01343
C 8.63912 0.75473 0.00988
C 7.37613 0.05682 0.0276
C 9.80861 32.66408 0.01305
C 8.59159 10.76189 0.017
C 10.95908 31.8672 -0.00077
C 9.75469 29.85768 -0.02929
C 9.80379 28.43849 -0.00966
C 11.03166 27.77988 -0.03337
C 11.00427 26.27087 0.01227
C 9.79221 25.65722 0.00873
C 9.79922 24.13619 -0.00049
C 11.04064 23.434 0.00848
C 11.01871 21.99946 -0.01303
C 9.76961 21.29483 -0.01378
C 9.82077 19.91269 0.02635
C 11.00305 19.32444 0.0127
C 11.03634 30.5276 0.03368
C 4.86598 7.10988 0.02769
C 7.40121 11.45776 -0.00643
C 8.63921 13.49968 -0.00518
C 6.14903 5.03482 -0.04999
C 4.88696 4.30471 0.04505
C 4.93147 2.8415 0.03284
C 6.14785 2.19492 -0.04307
C 6.1507 0.72053 0.03189
C 4.98615 0.01277 0.00031
C 7.33789 32.72128 -0.003
C 8.55501 31.97483 0.01402
C 8.58892 30.54186 0.02379
C 7.38587 29.7914 0.00907
C 7.38407 28.39653 0.00643
C 7.35409 12.89815 0.0086
C 8.60306 27.67408 -0.01509
C 7.34875 25.56829 0.02374
C 7.32779 24.192 0.00402
C 8.56203 23.4932 0.0073
C 8.60056 22.08289 0.0174
C 7.36596 21.35275 0.03828
C 7.34635 19.85328 0.01226
C 8.53358 19.21775 -0.00279
C 8.54864 17.72635 0.01996
C 7.32732 17.00459 -0.03996
C 7.3457 15.60543 0.01465
C 8.57931 14.98231 -0.00074
C 8.59855 26.26778 0.03267
C 3.748 31.92321 0.02438
C 18.45127 0.77744 -0.05302
C 19.64446 32.66899 -0.00066
C 29.52259 17.15116 0.01705
C 29.51393 15.61668 -0.0405
C 30.69968 14.87951 -0.01303
C 30.74689 13.49851 -0.01461
C 29.51501 12.76196 -0.02155
C 29.5043 11.25242 -0.00944
C 30.71282 10.61819 -0.03735
C 30.71782 9.21194 -0.00971
C 29.4648 8.49625 0.01518
C 29.51555 7.10369 0.01908
C 30.78674 6.34712 0.07705
C 30.74405 4.93904 0.0103
C 29.49304 4.32386 0.02108
C 29.47072 2.89993 0.00716
C 30.68402 2.17456 0.00307
C 30.80548 0.80125 0.00346
C 29.52062 0.02407 0.01713
C 32.02111 32.70441 -0.01694
C 33.24474 32.0255 0.01428
C 33.19811 30.58531 -0.02142
C 31.90498 29.82694 0.0544
C 31.97742 28.45189 0.00026
C 33.2324 27.65632 0.00682
C 30.77322 17.80179 0.0101
C 30.75006 19.52578 -0.00669
C 29.3895 20.1585 0.03531
C 30.6823 23.35637 0.01836
C 28.33095 14.88668 0.04185
C 28.30014 13.45075 0.00194
C 27.03259 12.72819 -0.00621
C 27.09297 11.36358 0.02611
C 28.30268 10.61187 0.02198
C 28.2516 9.24057 0.01094
C 27.03863 8.53292 0.00235
C 27.07068 7.15959 0.01495
C 28.30685 6.39264 0.01259
C 28.26718 4.97813 0.01799
C 27.06499 4.28346 0.01699
C 33.15145 26.18279 -0.01779
C 27.066 2.87486 -0.00416
C 28.33317 0.699 0.04266
C 26.97022 34.01843 0.01324
C 29.489 32.7471 0.0014
C 30.75511 32.01577 0.00924
C 30.7372 30.56308 0.02326
C 29.42639 29.8939 0.00261
C 29.48824 28.46346 0.03265
C 30.7466 27.77729 -0.02049
C 30.71046 26.32337 -0.01854
C 29.46353 25.50027 -0.01415
C 29.51284 24.07369 -0.03039
C 28.22582 2.17815 0.01177
C 31.87707 25.52285 0.03794
C 31.84937 24.00956 0.01927
C 33.05985 23.23627 0.01574
C 0.00706 25.4381 -0.05239
C 34.40094 24.08822 0.03076
C 1.25395 23.41815 0.00723
C 1.18463 21.98636 0.02712
C 34.31841 21.24276 -0.02213
C 34.37979 19.85111 0.01951
C 1.19883 19.1258 -0.01678
C 1.19554 17.68533 0.01223
C 34.42387 16.93566 0.00648
C 34.39977 15.57447 0.02114
C 1.25226 14.90403 -0.02957
C 1.25675 26.24115 -0.00598
C 1.20058 13.50702 0.00343
C 0.04517 11.29713 -0.02442
C 1.29694 10.60228 -0.00027
C 1.22976 9.2037 -0.00583
C 0.01318 8.44786 -0.02302
C 0.02749 7.02991 -0.02849
C 1.2313 6.35864 0.02931
C 1.20713 4.96266 0.00628
C 0.01437 4.25502 -0.0345
C 34.39407 2.87579 -0.00931
C 1.12128 2.0962 -0.00939
C 1.20189 0.69791 -0.00468
C 0.00463 12.72316 -0.02656
C 27.07586 15.63317 0.02316
C 1.30197 27.6362 -0.00439
C 0.07676 29.75336 0.01831
C 33.01619 21.7878 -0.02383
C 32.09798 19.98754 -0.01429
C 33.25687 19.1057 -0.0136
C 33.19746 17.7216 0.00594
C 31.96704 17.0536 -0.02474
C 31.91739 15.56792 0.00369
C 33.1527 14.83048 0.00455
C 33.16326 13.46958 -0.00644
C 31.97587 12.71675 -0.01839
C 32.02342 11.21657 0.00137
C 33.22384 10.61405 0.00199
C 0.00516 28.34281 -0.01037
C 33.21629 9.16753 0.04381
C 31.94592 7.03736 0.01504
C 33.18531 6.3582 -0.00069
C 33.20234 4.99285 0.04926
C 31.98467 4.23878 -0.03838
C 31.9472 2.87867 0.00349
C 33.14015 2.14766 -0.00323
C 33.19787 0.74173 -0.00841
C 31.98622 0.0701 0.0001
C 0.05704 32.63831 -0.02927
C 1.30918 31.90613 -0.01404
C 1.22465 30.57422 0.01027
C 31.99117 8.42081 0.02806
C 27.08195 17.05533 0.01257
C 28.30828 17.83161 0.00152
C 28.33265 19.31 -0.00294
C 20.89672 2.13372 -0.04422
C 20.89934 0.74844 0.00654
C 19.67196 0.01619 -0.00703
C 22.0194 32.72546 -0.04076
C 23.27893 31.99038 -0.00652
C 23.34391 30.60268 0.0058
C 22.11011 29.79366 -0.00865
C 22.25372 28.42155 0.00675
C 23.43993 27.71344 -0.00311
C 23.49149 26.32982 0.00742
C 22.16292 25.62349 -0.01594
C 19.662 2.84752 -0.02957
C 22.08724 24.17807 0.0106
C 23.36783 21.97534 -0.01721
C 22.05543 21.34357 -0.02422
C 22.11922 19.92454 0.01277
C 23.42103 19.17497 0.00096
C 23.38071 17.73517 -0.01527
C 22.07875 17.04121 0.01087
C 22.15483 15.59425 0.00199
C 23.36387 14.86992 0.01511
C 23.41059 13.45681 -0.00478
C 22.04249 12.76153 -0.01662
C 22.06917 11.33259 -0.01185
C 23.41861 23.44457 -0.01154
C 23.33756 10.65585 0.01126
C 19.63197 4.21241 -0.00831
C 20.93246 6.33777 -0.017
C 20.85678 31.94015 -0.00289
C 20.87709 30.56415 0.00028
C 19.5974 29.84397 -0.02213
C 19.7312 28.45831 0.03698
C 21.0074 27.77231 -0.00109
C 20.89092 26.30627 -0.00491
C 19.73143 25.55788 0.03338
C 19.75585 24.16828 -0.0258
C 20.96536 23.47214 -0.0331
C 20.884 22.04596 -0.00316
C 19.65411 21.34725 0.02188
C 20.8996 4.94085 0.00364
C 19.63606 19.92089 -0.01979
C 20.79422 17.78981 -0.01581
C 19.6431 17.04708 0.01452
C 19.64198 15.70283 0.04892
C 20.87619 14.89671 -0.00111
C 20.79592 13.46262 -0.03557
C 19.6376 12.82158 0.03754
C 19.6664 11.36801 0.01739
C 20.84874 10.64903 0.00755
C 20.88283 9.20669 -0.0054
C 19.65019 8.46515 0.00667
C 19.70692 7.05844 0.00143
C 20.87497 19.19486 0.02691
C 17.10859 0.05342 0.00213
C 23.34457 9.26615 0.01852
C 22.13027 7.1071 0.03046
C 25.77873 10.61176 -0.00285
C 25.75636 9.18548 -0.009
C 24.563 8.54116 -0.01199
C 24.60143 7.10827 -0.00229
C 25.84888 6.3905 -0.00938
C 25.8422 4.91505 -0.0264
C 24.62037 4.2632 -0.01154
C 24.59681 2.82109 0.00684
C 25.79888 2.11336 -0.01052
C 25.75798 0.72046 -0.01679
C 24.51602 0.03636 0.00367
C 24.48404 11.3708 0.01423
C 27.00692 32.62991 0.04306
C 28.21804 30.54342 0.00195
C 26.9564 29.80644 -0.00802
C 27.07605 28.36961 -0.00218
C 28.27351 27.68283 -0.01654
C 28.24833 26.28541 -0.00037
C 27.02993 25.48767 -0.0032
C 27.10043 24.02222 0.00622
C 28.33367 23.26901 -0.02815
C 28.41202 21.93295 -0.00942
C 27.04576 21.32671 0.00487
C 27.08359 19.90359 0.00826
C 28.25327 31.96497 0.00996
C 22.11729 8.49222 -0.00381
C 24.57677 12.76381 0.02555
C 25.91887 14.8876 0.00135
C 23.39707 6.38938 0.0296
C 23.3609 4.97108 0.03374
C 22.15261 4.26788 -0.02845
C 22.14229 2.82799 -0.03213
C 23.38812 2.17683 0.02239
C 23.31773 0.72711 0.01153
C 22.06888 0.08606 0.02734
C 24.54119 32.6258 -0.0055
C 25.73687 31.97095 0.01515
C 25.76459 30.52926 -0.00225
C 24.58058 29.83927 0.00071
C 25.88239 13.41714 0.03102
C 24.63207 28.33014 -0.01107
C 25.77 26.23317 -0.01971
C 24.56598 25.46173 -0.02118
C 24.63677 24.12418 0.00733
C 25.85552 23.43599 -0.00178
C 25.80174 22.00928 0.00768
C 24.57786 21.25372 -0.0276
C 24.57104 19.88112 0.03005
C 25.81286 19.19775 -0.04078
C 25.80179 17.74319 0.02117
C 24.60152 17.0194 0.02737
C 24.5962 15.55517 -0.00498
C 25.81374 27.69159 -0.01586
C 2.49923 32.57518 0.00297
