344
Graphene
C 0.01829 0.02682 0.01295
C 9.88875 8.47466 0.02098
C 9.77039 4.31277 0.01848
C 9.87245 2.90758 -0.00619
C 11.08628 2.10183 -0.02162
C 11.11743 0.7827 0.00889
C 9.86086 0.02591 -0.00481
C 12.24167 32.62349 0.00979
C 13.47104 31.93221 0.01443
C 13.49155 30.40496 0.03505
C 12.27542 29.78392 -0.02815
C 12.40519 28.4284 -0.04147
C 13.54489 27.68658 -0.05302
C 13.58485 21.97957 0.00213
C 13.56007 19.12951 -0.00066
C 13.49907 17.83683 -0.00289
C 12.3348 16.99244 0.00028
C 12.31243 15.54674 -0.02213
C 10.99111 10.581 -0.03113
C 9.91653 11.27455 0.0351
C 9.75592 12.772 0.00422
C 11.03418 13.51133 0.00798
C 8.63996 4.94911 0.03542
C 7.35106 4.30395 0.02299
C 7.32271 2.9125 0.00244
C 8.63044 2.16624 -0.01717
C 8.63755 0.72986 0.05265
C 7.38566 0.01851 -0.01952
C 9.83853 32.66161 -0.02813
C 11.03915 31.95005 0.00374
C 13.54005 14.89005 0.03698
C 11.09085 30.5606 0.00052
C 9.8419 28.48765 0.01965
C 9.7487 21.33169 0.02058
C 9.83781 19.95218 -0.01957
C 11.09288 19.08453 -0.0108
C 11.10571 17.74228 -0.00368
C 9.87176 17.05405 -0.02696
C 9.9212 15.60547 -0.00114
C 11.05243 14.85199 0.00228
C 9.84057 29.86499 -0.03682
C 8.60331 6.38051 0.01416
C 13.45706 13.41088 -0.00109
C 13.52342 0.67233 0.03338
C 14.83161 0.05619 0.00654
C 17.20301 32.6563 -0.00703
C 18.47646 31.97103 -0.04076
C 18.41913 30.6163 -0.00652
C 17.19742 29.8557 0.0058
C 17.203 28.3321 -0.00865
C 18.45614 27.65463 0.00675
C 18.45567 26.31412 -0.00311
C 17.22577 25.51985 0.00742
C 17.19619 24.13007 -0.01594
C 18.45062 23.45171 0.0106
C 18.46555 21.99348 -0.01154
C 17.26618 21.37216 -0.01721
C 17.21517 19.84316 -0.02422
C 18.45345 19.15417 0.01277
C 18.43908 17.72429 0.00096
C 17.24376 16.98617 -0.01527
C 15.94088 0.71271 -0.04422
C 14.74267 12.79141 -0.02957
C 16.00739 13.41968 -0.00831
C 16.0156 14.89239 0.00364
C 12.28756 0.04557 -0.0258
C 14.69118 32.65489 -0.0331
C 15.92882 31.97339 -0.00316
C 15.92399 30.58715 0.02188
C 14.74095 29.85649 -0.01979
C 14.74368 28.42025 0.02691
C 16.02375 27.65451 -0.01581
C 15.99583 26.26169 0.01452
C 12.26569 12.77953 -0.00491
C 14.77382 25.5524 0.04892
C 16.01813 23.44226 -0.03557
C 16.00726 22.0182 0.03754
C 14.76095 21.25948 0.01739
C 14.69658 19.83501 0.00755
C 15.97512 19.15506 -0.0054
C 16.03024 17.76893 0.00667
C 14.73521 17.04185 0.00143
C 14.72608 15.62497 -0.017
C 14.72553 24.20065 -0.00111
C 17.22568 15.59019 0.01087
C 7.31867 7.09263 0.01945
C 8.62721 9.22428 0.01241
C 2.49506 7.08579 0.00895
C 3.66027 6.37612 0.00685
C 3.66962 4.90771 0.02888
C 2.4213 4.22024 -0.00482
C 2.46872 2.80174 -0.01384
C 3.6486 2.09647 0.03693
C 3.70429 0.68938 0.01745
C 2.51181 0.00622 0.00488
C 4.86978 32.73508 -0.01004
C 6.14581 31.93744 -0.02896
C 6.11668 30.55705 -0.00131
C 4.91653 29.83965 -0.01118
C 4.93529 28.44364 -0.014
C 6.16268 27.64373 0.02147
C 6.14599 26.28884 0.00373
C 4.88789 25.60004 -0.00191
C 4.90022 24.14859 0.00438
C 2.46424 8.53953 0.00393
C 3.6919 9.29569 0.0288
C 3.7 10.62093 -0.0008
C 2.45255 11.39123 -0.01362
C 3.73391 30.55495 0.00873
C 2.47479 29.83931 -0.00049
C 2.38942 28.4539 0.00848
C 3.70691 27.73206 -0.01303
C 3.68204 26.27014 -0.01378
C 2.44221 25.55724 0.02635
C 2.42234 24.17087 0.0127
C 3.72997 23.37991 0.01396
C 6.21426 23.45845 0.01291
C 3.66855 21.99904 0.01849
C 2.54552 19.84476 -0.00562
C 3.71213 19.14476 -0.00494
C 3.63374 17.71963 0.00054
C 2.43212 17.11252 0.03007
C 2.4595 15.61971 -0.00095
C 3.71646 14.90015 0.01572
C 3.65809 13.5142 -0.04848
C 2.50319 12.77236 -0.00892
C 2.43634 21.26771 -0.01142
C 7.42408 8.50143 -0.01454
C 6.0627 21.96451 0.00093
C 4.89933 19.94773 -0.01634
C 7.33335 29.8707 -0.02689
C 7.38223 28.41352 -0.01046
C 8.70873 27.76228 -0.00891
C 7.38404 25.4386 0.02819
C 7.43217 24.18612 0.00165
C 8.67732 22.04318 -0.02971
C 7.37826 21.35829 0.02894
C 7.36226 19.88504 -0.01789
C 8.54845 19.11243 0.00444
C 8.59955 17.72051 -0.00925
C 7.41614 17.03717 0.01877
C 7.40092 15.58674 0.01363
C 8.6208 14.94287 -0.02162
C 8.59702 13.55483 0.00415
C 7.33258 12.79631 -0.0014
C 7.45066 11.35051 0.02162
C 8.67144 10.63158 0.0076
C 8.62157 30.55999 -0.01536
C 8.5602 31.85037 0.03101
C 7.34975 32.64426 -0.00428
C 4.87474 0.03331 -0.02245
C 6.09533 19.13203 -0.00334
C 6.16169 17.7523 0.02339
C 4.91347 17.07694 0.01641
C 4.91253 15.66231 -0.00719
C 6.18572 14.88106 0.01364
C 6.13196 13.53137 -0.01062
C 4.89965 12.82172 -0.00033
C 4.94459 11.39168 0.03589
C 4.90353 21.30071 0.00057
C 6.16315 10.65848 -0.02759
C 4.94764 8.56866 0.00572
C 4.89109 7.11983 0.03592
C 6.08534 6.43758 0.00406
C 6.19154 4.96658 0.00943
C 4.92837 4.30857 0.02841
C 4.90279 2.87896 -0.01111
C 6.17371 2.20439 -0.01275
C 6.10758 0.80824 0.00985
C 6.13875 9.26337 0.0402
C 18.47231 14.91419 0.00199
C 18.33557 13.48445 0.01511
C 17.24187 12.83105 -0.00478
C 30.76334 0.69393 -0.02142
C 29.54347 34.05123 0.0544
C 31.93963 32.71489 0.00026
C 33.15501 31.99622 0.00682
C 33.20686 30.54105 -0.01779
C 31.92534 29.81954 0.03794
C 31.93909 28.42891 0.01927
C 33.21623 27.66765 0.01574
C 33.23344 26.2583 -0.02383
C 31.93534 25.61642 -0.01429
C 31.94531 24.17649 -0.0136
C 33.24744 23.50161 0.00594
C 33.22307 21.97147 -0.02474
C 31.98374 21.301 0.00369
C 31.93564 19.86176 0.00455
C 33.21968 19.15924 -0.00644
C 33.17737 17.77961 -0.01839
C 30.65367 2.13999 0.01428
C 29.4106 2.81042 -0.01694
C 30.63769 14.87983 0.01713
C 29.59534 15.63743 0.00346
C 28.23171 0.70802 0.03531
C 27.06778 0.01409 -0.00669
C 29.5103 32.61816 0.0101
C 30.73964 31.95372 0.01705
C 30.75135 30.5664 -0.0405
C 29.56124 29.83259 -0.01303
C 29.54287 28.45341 -0.01461
C 30.73595 27.67643 -0.02155
C 31.94843 17.03688 0.00137
C 30.72969 26.26929 -0.00944
C 29.4517 24.20397 -0.00971
C 30.78756 23.43285 0.01518
C 30.77497 21.97074 0.01908
C 29.57655 21.26953 0.07705
C 29.49843 19.90393 0.0103
C 30.73075 19.19569 0.02108
C 30.75669 17.74242 0.00716
C 29.4849 17.02056 0.00307
C 29.49702 25.55956 -0.03735
C 28.30277 2.15927 0.01836
C 31.99787 15.63751 0.00199
C 33.23864 13.40165 0.02806
C 1.25816 17.71209 0.01223
C 0.00776 17.04764 0.00648
C 34.42008 15.64551 0.02114
C 1.22728 14.86209 -0.02957
C 1.18596 13.50078 0.00343
C 0.03448 12.72499 -0.02656
C 34.36026 11.29287 -0.02442
C 1.18484 10.68819 -0.00027
C 1.18416 9.20215 -0.00583
C 34.38711 8.58116 -0.02302
C 34.39698 7.12615 -0.02849
C 1.24356 6.3187 0.02931
C 1.25166 4.94139 0.00628
C 0.00444 4.26965 -0.0345
C 0.06563 2.81201 -0.00931
C 1.2416 2.05019 -0.00939
C 1.25324 0.71437 -0.00468
C 1.27738 19.14584 -0.01678
C 34.41198 19.8686 0.01951
C 0.00813 21.27952 -0.02213
C 1.21926 22.02348 0.02712
C 33.16782 10.67297 0.01504
C 33.23763 6.46364 -0.00069
C 33.16776 4.99648 0.04926
C 32.02915 4.30924 -0.03838
C 31.92718 2.89613 0.00349
C 33.20844 2.13114 -0.00323
C 33.21032 0.69549 -0.00841
C 32.02332 0.04659 0.0001
C 33.21973 14.88366 0.04381
C 34.38892 32.62392 -0.02927
C 1.22838 30.56543 0.01027
C 0.00431 29.84696 0.01831
C 0.03468 28.45829 -0.01037
C 1.18292 27.60737 -0.00439
C 1.19893 26.22952 -0.00598
C 34.43283 25.56237 -0.05239
C 0.05197 24.16038 0.03076
C 1.16686 23.40921 0.00723
C 1.17458 31.96763 -0.01404
C 27.07446 17.0213 -0.03039
C 28.24982 17.7472 -0.01415
C 28.27004 19.11573 -0.01854
C 19.6709 11.42349 -0.00178
C 20.94376 4.99992 0.00768
C 19.69149 2.85209 -0.0276
C 20.88053 2.1223 0.03005
C 20.84314 0.66527 -0.04078
C 19.58529 0.01219 0.02117
C 22.15625 32.68408 0.02737
C 23.41809 31.91778 -0.00498
C 23.37467 30.53055 0.00135
C 22.10521 29.85369 0.03102
C 22.1285 28.41908 0.02555
C 23.35098 27.74917 0.01423
C 23.33395 26.28932 -0.00285
C 22.10598 25.55525 -0.009
C 22.13807 24.17399 -0.01199
C 23.38707 23.44909 -0.00229
C 23.39392 22.02683 -0.00938
C 19.64449 12.74176 0.00733
C 20.85034 13.47224 -0.02118
C 20.91282 14.92149 -0.01971
C 19.65604 15.69458 -0.01586
C 18.44043 0.64711 -0.01662
C 17.19802 34.06909 -0.01185
C 19.63541 32.64029 0.01126
C 20.90893 31.96085 0.01852
C 20.94059 30.51748 -0.00381
C 19.61065 29.75813 0.03046
C 19.64807 28.38615 0.0296
C 20.91555 27.683 0.03374
C 22.12271 21.26997 -0.0264
C 20.87331 26.28282 -0.02845
C 19.72099 24.10913 0.02239
C 20.93379 23.41866 0.01153
C 20.91665 22.01353 0.02734
C 19.63952 21.27533 -0.0055
C 19.68663 19.82296 0.01515
C 20.88713 19.16164 -0.00225
C 20.85443 17.75055 0.00071
C 19.674 17.03981 -0.01107
C 19.71901 25.53917 -0.03213
C 22.12469 19.92815 -0.01154
C 23.28878 19.16378 0.00684
C 23.30679 17.70803 -0.01052
C 24.59292 16.99324 0.02611
C 24.60928 2.82081 0.02198
C 25.84479 2.12379 0.01094
C 25.86231 0.71215 0.00235
C 24.4898 0.02187 0.01495
C 26.99771 32.60905 0.01259
C 28.29021 31.92706 0.01799
C 28.29549 30.49987 0.01699
C 25.86792 17.66699 -0.00621
C 27.09857 29.76346 -0.00416
C 28.32341 27.67802 0.04266
C 28.26821 26.27637 0.01324
C 27.07074 25.47763 0.0014
C 27.01765 24.08694 0.00924
C 28.26339 23.44032 0.02326
C 28.33632 21.93955 0.00261
C 27.13417 21.23441 0.03265
C 27.02955 19.80557 -0.02049
C 27.04089 28.37404 0.01177
C 3.69814 31.96773 0.01227
C 25.81925 19.13618 0.00194
C 24.64617 21.31173 0.02316
C 22.09891 17.01371 -0.01679
C 22.11539 15.66193 0.00367
C 22.14887 4.28251 0.04306
C 22.19556 2.87923 0.00996
C 23.40285 2.18783 0.00195
C 23.37065 0.76495 -0.00802
C 22.16079 34.02056 -0.00218
C 24.58202 32.67847 -0.01654
C 24.6169 19.88148 0.04185
C 25.79611 32.00916 -0.00037
C 24.56875 29.81963 0.00622
C 24.59368 28.42119 -0.02815
C 25.78631 27.70227 -0.00942
C 25.82196 26.24378 0.00487
C 24.62004 25.58727 0.00826
C 24.5663 24.21228 -0.00294
C 25.80864 23.39283 0.00152
C 25.86646 22.04942 0.01257
C 25.87373 30.53799 -0.0032
C 2.49464 32.63833 -0.03337
