428
Graphene
C 0.01574 34.02936 0.01295
C 12.25199 2.87956 0.03589
C 13.53232 2.14426 -0.02759
C 13.51137 0.72131 0.0402
C 12.23881 0.01965 0.00572
C 14.71443 32.60844 0.03592
C 15.95585 31.91678 0.00406
C 15.99125 30.51442 0.00943
C 14.78954 29.83192 0.02841
C 14.77694 28.40716 -0.01111
C 16.01812 27.6954 -0.01275
C 12.24044 4.30559 -0.00033
C 15.95344 26.23823 0.00985
C 14.75018 24.20642 -0.00428
C 15.98099 23.49221 0.03101
C 15.97261 22.0064 -0.01536
C 14.78257 21.22381 -0.02689
C 14.79308 19.84393 -0.01046
C 16.01933 19.0938 -0.00891
C 15.91256 17.69591 0.02819
C 14.7096 16.94824 0.00165
C 14.77339 15.55526 -0.02971
C 15.97803 14.89647 0.02894
C 14.72168 25.54299 -0.02245
C 13.55381 5.02116 -0.01062
C 13.46239 6.43206 0.01364
C 12.22226 7.14945 -0.00719
C 13.51919 31.93579 0.00685
C 13.56487 30.48798 0.02888
C 12.33318 29.91716 -0.00482
C 12.23487 28.49939 -0.01384
C 13.49719 27.74669 0.03693
C 13.50404 26.27651 0.01745
C 12.30009 25.62724 0.00488
C 12.37449 24.18685 -0.01004
C 13.57926 23.46542 -0.02896
C 13.59154 22.00612 -0.00131
C 12.30645 21.30838 -0.01118
C 12.1754 19.91179 -0.014
C 13.46761 19.10537 0.02147
C 13.47162 17.64938 0.00373
C 12.17646 17.05251 -0.00191
C 12.30211 15.61872 0.00438
C 13.45753 14.94761 0.01291
C 13.5532 13.50933 0.00093
C 12.29149 12.87565 0.00057
C 12.26568 11.48329 -0.01634
C 13.48002 10.68994 -0.00334
C 13.43055 9.29758 0.02339
C 12.17445 8.62947 0.01641
C 16.07468 13.48634 -0.01789
C 14.81168 12.79008 0.00444
C 14.74463 11.34942 -0.00925
C 15.99827 10.67223 0.01877
C 18.38406 14.8726 0.00228
C 18.44863 13.41769 0.00798
C 17.21973 12.73378 0.00422
C 17.1882 11.31836 0.0351
C 18.34865 10.61047 -0.03113
C 18.35786 9.20052 0.02098
C 17.12305 8.478 0.01848
C 17.20599 7.03419 -0.00619
C 18.41699 6.3013 -0.02162
C 18.43041 4.91645 0.00889
C 17.13919 4.25769 -0.00481
C 17.15364 2.80802 0.00979
C 18.42846 2.15961 0.01443
C 18.39607 0.69197 0.03505
C 17.22219 34.05507 -0.02815
C 19.64043 32.69721 -0.04147
C 20.84891 31.99369 -0.05302
C 20.85715 30.57308 0.00213
C 19.66247 29.83382 -0.00066
C 19.71414 28.41948 -0.00289
C 20.95297 27.67449 0.00028
C 20.93541 26.30776 -0.02213
C 19.70759 25.62791 0.03698
C 17.19217 15.61118 -0.00114
C 12.34018 32.7024 0.00895
C 17.13975 16.98509 -0.02696
C 18.38915 19.24489 -0.0108
C 15.95473 9.26938 0.01363
C 14.7026 8.59605 -0.02162
C 14.66989 7.21383 0.00415
C 15.93647 6.39358 -0.0014
C 15.96098 4.98392 0.02162
C 14.72392 4.28113 0.0076
C 14.6976 2.9309 0.01241
C 15.93996 2.15653 -0.01454
C 15.94435 0.76613 0.01945
C 14.72184 0.00464 0.01416
C 17.16974 32.6604 0.03542
C 18.4906 32.00043 0.02299
C 18.43707 30.55877 0.00244
C 17.17551 29.83761 -0.01717
C 17.23711 28.35811 0.05265
C 18.44739 27.76131 -0.01952
C 18.48334 26.33832 -0.02813
C 17.28 25.5664 0.00374
C 17.2274 24.15064 0.00052
C 18.51943 23.47972 -0.03682
C 18.42097 22.01709 0.01965
C 17.20788 21.26493 0.02058
C 17.16022 19.88061 -0.01957
C 18.35605 17.79311 -0.00368
C 19.68796 24.15948 -0.00109
C 9.83795 0.01082 0.00393
C 11.07993 2.13759 -0.0008
C 6.1613 30.62477 -0.00039
C 4.97045 29.88563 0.0064
C 4.90057 28.45587 0.00211
C 6.03105 27.7373 -0.00449
C 6.02207 26.35751 -0.01979
C 4.88253 25.55625 0.02784
C 4.95297 24.09915 -0.01977
C 6.13702 23.33686 -0.00561
C 6.14328 21.73118 0.00208
C 4.89101 21.30499 0.01707
C 6.1418 32.03561 0.02728
C 4.91212 12.70276 0.02769
C 6.09928 10.70919 -0.04999
C 6.07598 9.29797 0.04505
C 4.83584 8.50406 0.03284
C 4.84216 7.07814 -0.04307
C 6.09578 6.34457 0.03189
C 6.12221 4.94001 0.00031
C 4.91424 4.26285 -0.003
C 4.87787 2.82909 0.01402
C 6.15294 2.12086 0.02379
C 6.19483 0.6657 0.00907
C 4.8749 11.24979 -0.03291
C 4.93997 32.64602 0.00245
C 2.43801 34.05595 0.00081
C 3.68816 0.69806 -0.02805
C 3.74219 30.63557 0.00787
C 2.50976 29.80203 0.02426
C 2.50744 28.44508 0.01218
C 3.68845 27.71074 -0.01471
C 3.6585 26.30129 -0.02827
C 2.45388 25.53681 0.01078
C 2.39224 24.12038 -0.00112
C 3.7147 23.46318 0.03345
C 3.69919 22.05242 0.00748
C 2.41459 21.43108 0.00662
C 2.34172 20.07701 -0.0154
C 3.79347 13.40803 -0.01299
C 2.51035 12.8799 -0.00407
C 2.41303 11.3817 0.01138
C 3.64157 10.66555 0.03278
C 3.57246 9.15064 -0.00177
C 2.39255 8.42786 0.04421
C 2.36287 7.02745 0.00088
C 3.61746 6.35129 0.00828
C 3.67337 4.93671 -0.02375
C 2.44564 4.18337 0.00558
C 2.3916 2.83343 -0.0059
C 3.68197 2.10473 -0.01386
C 4.93436 34.05197 0.00643
C 7.33822 32.73612 -0.01509
C 8.6225 31.95387 0.03267
C 8.60066 30.57633 0.02374
C 9.75629 28.42817 -0.02929
C 11.01921 27.83346 -0.00966
C 11.03491 26.35296 -0.03337
C 9.72697 25.6287 0.01227
C 9.81141 24.24902 0.00873
C 11.11685 23.55559 -0.00049
C 11.08818 22.15571 0.00848
C 9.92723 21.47854 -0.01303
C 9.90842 20.12223 -0.01378
C 10.86853 19.15646 0.02635
C 11.03743 17.79423 0.0127
C 11.00211 14.93937 0.01396
C 11.05562 13.6078 0.01849
C 9.88085 12.93181 -0.01142
C 9.81251 11.44128 -0.00562
C 11.04343 10.72341 -0.00494
C 10.99395 9.34016 0.00054
C 9.7939 8.5788 0.03007
C 9.82423 7.12522 -0.00095
C 10.96451 6.45609 0.01572
C 11.02433 5.03362 -0.04848
C 9.89437 4.30795 -0.00892
C 9.88538 2.85527 -0.01362
C 9.79596 29.85938 0.03368
C 11.03291 0.72744 0.0288
C 11.06911 30.54188 -0.00077
C 9.84688 32.67162 0.0276
C 7.41467 29.81326 0.00402
C 7.31334 28.39588 0.0073
C 8.58334 27.77276 0.0174
C 8.52881 26.34396 0.03828
C 7.28458 25.63182 0.01226
C 7.28386 24.19225 -0.00279
C 8.62029 23.48747 0.01996
C 8.63063 22.10236 -0.03996
C 7.5081 21.29774 0.01465
C 8.57703 13.36235 -0.00074
C 7.41123 12.78121 -0.00518
C 7.26088 11.45136 0.0086
C 8.51591 10.71199 -0.00643
C 8.51783 9.35427 0.017
C 7.25832 8.60853 -0.03113
C 7.31127 7.18489 -0.02566
C 8.53804 6.48107 -0.00094
C 8.5322 5.02117 0.02322
C 7.35759 4.27788 -0.00725
C 7.38251 2.86423 -0.05697
C 8.66065 2.14412 0.01087
C 8.64834 0.69924 -0.01343
C 7.39151 0.03139 0.00988
C 11.11845 31.9555 0.01305
C 20.92568 23.5027 -0.00491
C 20.90799 22.09131 0.03338
C 19.68572 21.32298 -0.0258
C 29.47592 12.80203 -0.01461
C 29.48401 11.34556 -0.02155
C 30.7151 10.56234 -0.00944
C 30.72421 9.19004 -0.03735
C 29.51596 8.46764 -0.00971
C 29.47673 7.05416 0.01518
C 30.6559 6.29718 0.01908
C 30.74185 4.85256 0.07705
C 29.46772 4.19839 0.0103
C 29.5175 2.83201 0.02108
C 30.68871 13.46849 -0.01303
C 30.73456 2.08022 0.00716
C 29.52611 34.06442 0.00346
C 31.95743 32.57467 0.01713
C 33.22297 31.82739 -0.01694
C 33.22549 30.41263 0.01428
C 31.99349 29.74153 -0.02142
C 31.98671 28.2983 0.0544
C 33.2101 27.6174 0.00026
C 33.15556 26.22751 0.00682
C 31.9177 25.54136 -0.01779
C 31.90206 24.19332 0.03794
C 30.77829 0.70351 0.00307
C 30.70463 14.89348 -0.0405
C 29.53264 15.66449 0.01705
C 29.47869 17.1207 0.0101
C 26.96666 7.09963 0.02198
C 28.25961 6.40964 0.01094
C 28.24854 5.00549 0.00235
C 26.99138 4.26483 0.01495
C 27.01342 2.86629 0.01259
C 28.28695 2.12995 0.01799
C 28.27088 0.70953 0.01699
C 27.02351 0.02647 -0.00416
C 29.47711 32.58884 0.01177
C 30.81332 31.87177 0.04266
C 30.77316 30.45643 0.01324
C 29.45259 29.77948 0.0014
C 29.43247 28.35539 0.00924
C 30.75684 27.64735 0.02326
C 30.71944 26.2667 0.00261
C 29.48804 25.56784 0.03265
C 29.46748 24.12949 -0.02049
C 30.70184 23.41483 -0.01854
C 30.69268 21.95633 -0.01415
C 29.50782 21.30525 -0.03039
C 29.50499 19.91038 0.01836
C 30.72493 19.22724 0.03531
C 30.76007 17.78372 -0.00669
C 33.1826 23.44987 0.01927
C 33.16367 22.04858 0.01574
C 31.96092 21.28864 -0.02383
C 31.96913 19.86132 -0.01429
C 34.39216 24.14375 0.03076
C 1.15922 23.45217 0.00723
C 1.1576 22.0934 0.02712
C 34.41848 21.35122 -0.02213
C 0.01576 19.9081 0.01951
C 1.30455 19.14388 -0.01678
C 1.16915 17.76557 0.01223
C 34.41803 17.01998 0.00648
C 34.4144 15.65003 0.02114
C 1.18985 14.91807 -0.02957
C 1.25775 13.53787 0.00343
C 34.37458 12.75009 -0.02656
C 34.43043 11.44884 -0.02442
C 1.21418 10.7104 -0.00027
C 1.22593 9.18152 -0.00583
C 34.36975 8.44778 -0.02302
C 34.30365 7.03997 -0.02849
C 1.12207 6.3303 0.02931
C 1.16427 4.91576 0.00628
C 34.34884 4.17468 -0.0345
C 0.01232 2.78233 -0.00931
C 1.26859 2.10486 -0.00939
C 1.24312 0.64416 -0.00468
C 34.4043 25.55735 -0.05239
C 27.05236 8.53484 0.02611
C 1.23051 26.23539 -0.00598
C 0.04043 28.34853 -0.01037
C 33.22363 19.15371 -0.0136
C 33.22163 17.73637 0.00594
C 31.97077 17.10482 -0.02474
C 31.87485 15.60524 0.00369
C 33.13845 14.91218 0.00455
C 33.16001 13.48846 -0.00644
C 31.8938 12.81672 -0.01839
C 31.94223 11.3612 0.00137
C 33.24766 10.64386 0.00199
C 33.13669 9.21305 0.04381
C 31.95075 8.42401 0.02806
C 31.91567 7.03205 0.01504
C 33.13238 6.33733 -0.00069
C 33.10316 4.88931 0.04926
C 31.96183 4.12106 -0.03838
C 31.95713 2.75509 0.00349
C 33.19933 2.04841 -0.00323
C 33.21201 0.58564 -0.00841
C 31.9955 34.01438 0.0001
C 34.41886 32.61513 -0.02927
C 1.22432 31.93815 -0.01404
C 1.28573 30.45353 0.01027
C 0.03648 29.70242 0.01831
C 1.28069 27.61805 -0.00439
C 28.29929 9.20691 -0.00621
C 28.27696 10.61139 0.00194
C 27.0958 11.37553 0.04185
C 22.17917 25.62546 0.00675
C 22.13584 24.21206 -0.00311
C 23.35335 23.40508 0.00742
C 23.40111 21.97279 -0.01594
C 22.11874 21.29285 0.0106
C 22.13343 19.87852 -0.01154
C 23.40915 19.15498 -0.01721
C 23.323 17.72169 -0.02422
C 22.07185 17.10168 0.01277
C 22.08859 15.61 0.00096
C 23.3947 14.98044 -0.01527
C 23.35096 13.46175 0.01087
C 22.08868 12.82672 0.00199
C 22.11002 11.39094 0.01511
C 23.38385 10.67151 -0.00478
C 23.3629 9.25849 -0.01662
C 22.06883 8.57209 -0.01185
C 22.0944 7.11367 0.01126
C 23.31861 6.471 0.01852
C 23.39237 4.9723 -0.00381
C 22.12433 4.22212 0.03046
C 22.14528 2.835 0.0296
C 23.37384 2.06062 0.03374
C 23.36749 26.29239 -0.00865
C 23.41421 0.61895 -0.02845
C 23.32349 27.72187 0.0058
C 22.12736 29.81635 -0.04076
C 19.72482 19.89255 -0.0331
C 20.9309 19.18944 -0.00316
C 20.87368 17.72704 0.02188
C 19.63488 17.02122 -0.01979
C 19.6284 15.62723 0.02691
C 20.86447 14.89615 -0.01581
C 20.82759 13.51146 0.01452
C 19.66372 12.7454 0.04892
C 19.64223 11.33195 -0.00111
C 20.86711 10.65299 -0.03557
C 20.90192 9.27138 0.03754
C 19.64248 8.46869 0.01739
C 19.59887 7.03981 0.00755
C 20.87188 6.36815 -0.0054
C 20.9089 4.96701 0.00667
C 19.71218 4.20151 0.00143
C 19.64478 2.78212 -0.017
C 20.92213 2.13851 0.00364
C 20.90316 0.66242 -0.00831
C 19.57453 34.07604 -0.02957
C 22.09512 32.60487 -0.04422
C 23.33278 31.95506 0.00654
C 23.32687 30.48344 -0.00703
C 22.1456 28.39888 -0.00652
C 3.73928 31.97032 0.00267
C 22.12049 33.99238 -0.03213
C 25.85051 31.93817 0.01153
C 25.75331 2.08219 -0.0264
C 25.79733 0.68418 -0.01154
C 24.58335 33.96144 0.00684
C 27.02334 32.67962 -0.01052
C 28.28578 31.91876 -0.01679
C 28.19551 30.50604 0.00367
C 27.03772 29.78346 0.04306
C 27.06337 28.33095 0.00996
C 28.27617 27.64312 0.00195
C 28.24184 26.27778 -0.00802
C 27.02303 25.56308 -0.00218
C 27.00473 24.1313 -0.01654
C 28.24114 23.42415 -0.00037
C 28.29398 22.0846 -0.0032
C 27.05557 21.37835 0.00622
C 27.10882 19.92539 -0.02815
C 28.30989 19.22841 -0.00942
C 28.26213 17.83326 0.00487
C 27.06881 17.09526 0.00826
C 27.0803 15.63203 -0.00294
C 28.35807 14.88977 0.00152
C 28.34295 13.5322 0.01257
C 27.04485 12.77957 0.02316
C 24.62372 2.79778 -0.00938
C 24.57432 32.61475 0.02239
C 24.58401 4.24481 -0.00229
C 25.75038 6.41561 -0.009
C 25.82187 30.54054 0.02734
C 24.64092 29.87856 -0.0055
C 24.6499 28.42984 0.01515
C 25.87019 27.60792 -0.00225
C 25.79398 26.24777 0.00071
C 24.62086 25.56428 -0.01107
C 24.6055 24.14197 -0.01586
C 25.80235 23.4216 -0.01971
C 25.83602 22.04611 -0.02118
C 24.63274 21.42837 0.00733
C 24.67963 19.90224 -0.00178
C 25.86812 19.14955 0.00768
C 25.87404 17.7653 -0.0276
C 24.61225 17.03982 0.03005
C 24.63187 15.66748 -0.04078
C 25.82916 14.92533 0.02117
C 25.79972 13.46886 0.02737
C 24.56438 12.77817 -0.00498
C 24.57386 11.39315 0.00135
C 25.84255 10.71891 0.03102
C 25.81572 9.27034 0.02555
C 24.62663 8.59031 0.01423
C 24.59529 7.18495 -0.00285
C 25.81674 4.93798 -0.01199
C 2.44992 32.63789 0.01913
