262
Graphene
C 0.0067 0.13403 0.01295
C 14.82971 32.50422 0.01852
C 12.22324 33.96001 0.01126
C 13.47294 0.61112 -0.01185
C 13.51857 2.02536 -0.01662
C 12.24978 2.84308 -0.00478
C 12.33672 4.19474 0.01511
C 13.48454 31.99457 0.00199
C 12.10382 32.41667 0.01087
C 9.83135 0.05228 -0.01527
C 11.11257 0.70939 0.00096
C 11.06511 2.06693 0.01277
C 9.82254 2.74015 -0.02422
C 9.74988 4.18891 -0.01721
C 16.0854 31.85625 -0.00381
C 10.11465 17.98201 -0.01154
C 10.85127 31.76104 -0.01594
C 9.8611 32.74853 0.00742
C 7.35594 0.02258 -0.00311
C 8.48049 0.76858 0.00675
C 8.53695 2.15003 -0.00865
C 7.32934 2.87059 0.0058
C 7.33182 4.25457 -0.00652
C 8.66816 4.77789 -0.04076
C 7.24508 7.51136 -0.00703
C 7.30343 15.78743 0.00654
C 7.50545 17.222 -0.04422
C 8.7514 17.72228 -0.02957
C 7.37966 28.33814 -0.00831
C 10.3224 30.40022 0.0106
C 15.9045 4.9362 0.03046
C 14.77673 4.20342 0.0296
C 14.64203 2.83154 0.03374
C 20.92066 2.1525 -0.01199
C 19.70594 2.77249 -0.009
C 19.69365 4.25995 -0.00285
C 20.88284 4.99195 0.01423
C 20.8635 6.43148 0.02555
C 19.52183 7.04325 0.03102
C 19.68095 8.43803 0.00135
C 20.79993 9.08713 -0.00498
C 20.73341 10.60404 0.02737
C 19.61915 11.39966 0.02117
C 19.38581 12.74342 -0.04078
C 20.9664 28.87215 0.03005
C 19.64497 29.89994 -0.0276
C 20.7628 30.7545 0.00768
C 20.91007 32.06657 -0.00178
C 19.6453 32.84435 0.00733
C 17.20713 0.05025 -0.02118
C 18.38953 0.82073 -0.01971
C 18.46086 2.16199 -0.01586
C 17.16955 2.85701 -0.01107
C 17.13703 4.24284 0.00071
C 18.43217 4.87525 -0.00225
C 18.33094 6.32394 0.01515
C 18.4917 30.54446 -0.0055
C 18.41707 32.10658 0.02734
C 17.16877 32.71001 0.01153
C 14.76021 34.00549 0.02239
C 15.92782 0.71305 -0.03213
C 15.92211 2.12329 -0.02845
C 7.58521 29.72223 0.00364
C 8.92943 30.5557 -0.017
C 8.65484 32.03479 0.00143
C 7.33298 32.62826 0.00667
C 3.63992 0.76894 -0.00619
C 3.66574 2.24007 0.01848
C 2.4931 2.97075 0.02098
C 2.46951 4.41494 -0.03113
C 3.69181 5.12999 0.0351
C 3.69767 6.51078 0.00422
C 2.46707 7.25547 0.00798
C 2.38661 8.65666 0.00228
C 3.65714 9.31253 -0.00114
C 3.62262 10.76619 -0.02696
C 2.44755 11.4445 -0.00368
C 2.4376 12.86441 -0.0108
C 3.68476 13.58919 -0.01957
C 3.69305 14.95438 0.02058
C 2.48585 15.64362 0.01965
C 2.48364 17.02386 -0.03682
C 3.69888 17.69135 0.00052
C 3.72863 19.1219 0.00374
C 2.52363 19.92305 -0.02813
C 2.42145 21.30615 -0.01952
C 3.55846 22.00872 0.05265
C 3.58686 23.45516 -0.01717
C 2.32038 24.11127 0.00244
C 2.21955 25.6117 0.02299
C 3.53406 26.34495 0.03542
C 3.672 27.72463 0.01416
C 2.39548 28.34431 0.01945
C 2.41387 29.81096 -0.01454
C 3.70167 30.46136 0.01241
C 2.41467 0.04818 -0.02162
C 20.92231 0.794 -0.00229
C 4.84945 32.59586 0.00889
C 6.19221 30.45662 0.00979
C 4.82318 34.02272 -0.0054
C 6.09609 0.70944 0.00755
C 6.17181 2.10978 0.01739
C 4.97741 2.90136 0.03754
C 4.99695 4.45872 -0.03557
C 6.2227 5.05874 -0.00111
C 6.21266 6.58728 0.04892
C 4.89775 7.18999 0.01452
C 4.83708 8.54199 -0.01581
C 6.18441 9.14814 0.02691
C 6.11912 10.57091 -0.01979
C 4.89994 11.37724 0.02188
C 4.87815 12.79913 -0.00316
C 6.16861 13.43583 -0.0331
C 6.15854 14.85035 -0.0258
C 4.92927 15.58623 0.03338
C 4.90382 17.07149 -0.00491
C 6.13305 17.88444 -0.00109
C 6.10358 19.14902 0.03698
C 4.93724 19.8599 -0.02213
C 4.87697 21.33411 0.00028
C 6.00731 22.06932 -0.00289
C 6.04934 23.50736 -0.00066
C 4.84925 24.14715 0.00213
C 4.72404 25.5655 -0.05302
C 6.00726 26.17157 -0.04147
C 6.19923 27.59848 -0.02815
C 4.97641 28.41553 0.03505
C 4.93539 29.74917 0.01443
C 6.12763 31.90806 -0.00481
C 19.65935 0.09202 -0.00938
C 22.19193 32.6782 -0.0264
C 23.39826 31.94357 -0.01154
C 33.17517 2.2156 -0.00323
C 31.92045 2.95823 0.00349
C 31.92161 4.36619 -0.03838
C 33.16097 5.07695 0.04926
C 33.16779 6.47769 -0.00069
C 31.95366 7.15727 0.01504
C 31.96836 8.61929 0.02806
C 33.15417 9.33694 0.04381
C 33.09243 10.71041 0.00199
C 31.91534 11.44106 0.00137
C 32.01977 12.83202 -0.01839
C 33.15898 13.56436 -0.00644
C 33.02286 14.99841 0.00455
C 31.84607 15.658 0.00369
C 33.1036 17.76441 -0.02474
C 33.26279 19.11642 0.00594
C 33.09673 21.86112 -0.0136
C 32.98082 23.38419 -0.01429
C 31.79272 24.04997 -0.02383
C 31.60693 25.47969 0.01574
C 33.00315 26.27375 0.01927
C 33.02163 27.68359 0.03794
C 31.81499 28.46155 -0.01779
C 31.90911 29.91746 0.00682
C 33.18417 30.5082 0.00026
C 33.18698 32.0062 0.0544
C 31.9647 32.71775 -0.02142
C 29.61017 0.08868 0.01428
C 30.80485 0.76405 -0.01694
C 33.1876 0.79013 -0.00841
C 30.72135 2.16612 0.01713
C 32.0117 0.02223 0.0001
C 1.21729 32.00868 -0.01404
C 1.19598 0.83241 -0.00468
C 1.21692 2.2204 -0.00939
C 34.4001 2.93083 -0.00931
C 0.00458 4.33624 -0.0345
C 1.23132 5.0699 0.00628
C 1.18237 6.51872 0.02931
C 34.39711 7.21605 -0.02849
C 34.35443 8.61602 -0.02302
C 1.17568 9.36881 -0.00583
C 1.19991 10.74117 -0.00027
C 34.34858 11.36756 -0.02442
C 34.3682 12.81726 -0.02656
C 1.16566 13.49349 0.00343
C 1.21625 14.95461 -0.02957
C 34.31502 15.66503 0.02114
C 34.37297 17.1433 0.00648
C 1.21983 17.788 0.01223
C 1.31721 19.16279 -0.01678
C 0.01485 19.85618 0.01951
C 34.37006 21.24195 -0.02213
C 1.16466 22.00976 0.02712
C 1.09023 23.35939 0.00723
C 34.26121 24.04587 0.03076
C 34.20609 25.45906 -0.05239
C 0.99622 26.18091 -0.00598
C 1.15954 27.62613 -0.00439
C 34.35046 28.3091 -0.01037
C 34.3976 29.8245 0.01831
C 1.17739 30.52856 0.01027
C 0.03788 32.75976 -0.02927
C 3.64652 31.93131 0.0076
C 29.46652 2.84473 0.00346
C 30.71244 5.04623 0.00716
C 25.80825 0.64176 0.01495
C 25.8362 2.12574 0.00235
C 24.58612 2.79029 0.01094
C 24.63994 4.25034 0.02198
C 25.85137 4.90754 0.02611
C 25.85408 6.40233 -0.00621
C 24.57556 7.12851 0.00194
C 24.56834 8.59153 0.04185
C 25.79467 9.25503 0.02316
C 25.78311 10.74719 0.01257
C 24.52257 11.31072 0.00152
C 24.53095 29.84905 -0.00294
C 25.8521 30.46192 0.00826
C 25.87315 31.91256 0.00487
C 24.66987 32.6234 -0.00942
C 22.18372 0.03617 -0.02815
C 23.31335 0.68547 0.00622
C 23.32835 2.18718 -0.0032
C 22.05813 2.93607 -0.00037
C 22.14874 4.313 -0.01654
C 23.43364 4.95154 -0.00218
C 23.31418 6.40041 -0.00802
C 22.17211 7.08197 0.00195
C 22.14367 8.48763 0.00996
C 23.38726 9.20985 0.04306
C 23.27097 10.73721 0.00367
C 21.96548 11.2484 -0.01679
C 21.89362 29.76404 -0.01052
C 23.291 30.45477 0.00684
C 24.54904 34.06992 0.01259
C 29.49163 4.23143 0.00307
C 27.01898 32.61143 0.01799
C 28.26542 30.69987 -0.00416
C 30.68572 6.49116 0.02108
C 29.4783 7.09998 0.0103
C 29.52386 8.53827 0.07705
C 30.7517 9.24174 0.01908
C 30.69602 10.65405 0.01518
C 29.51157 11.36711 -0.00971
C 29.71707 12.7511 -0.03735
C 30.71216 13.57176 -0.00944
C 30.50889 26.38233 -0.02155
C 30.40251 27.70265 -0.01461
C 29.16827 28.59763 -0.01303
C 29.48472 29.99312 -0.0405
C 30.73728 30.63868 0.01705
C 30.752 32.01691 0.0101
C 29.50986 32.73925 -0.00669
C 27.08772 0.01435 0.03531
C 28.31709 0.72156 0.01836
C 28.22692 2.12339 -0.03039
C 27.04182 2.74792 -0.01415
C 27.05744 4.20761 -0.01854
C 28.22942 4.92432 -0.02049
C 28.24518 6.37423 0.03265
C 26.98922 7.15316 0.00261
C 27.03228 8.57829 0.02326
C 28.26658 9.18927 0.00924
C 28.24788 10.63792 0.0014
C 27.082 11.37186 0.01324
C 27.967 28.39416 0.04266
C 27.21067 29.76584 0.01177
C 28.27167 32.01598 0.01699
C 2.45061 32.72043 0.02162
