340
Graphene
C 34.40019 0.02813 0.01295
C 14.62331 25.55875 -0.00619
C 14.69352 24.07441 -0.02162
C 15.86468 23.49117 0.00889
C 16.19562 10.6442 -0.00481
C 16.00187 9.28991 0.00979
C 14.83119 8.58591 0.01443
C 14.74916 7.15503 0.03505
C 15.91787 6.31079 -0.02815
C 15.99115 4.91061 -0.04147
C 14.74735 4.18803 -0.05302
C 14.78147 2.75502 0.00213
C 16.03942 2.10858 -0.00066
C 16.02123 0.68506 -0.00289
C 14.74666 0.01489 0.00028
C 17.25569 32.63998 -0.02213
C 18.39316 31.90474 0.03698
C 18.46149 30.50676 -0.00109
C 15.96802 26.23408 0.01848
C 17.23417 29.74577 -0.00491
C 15.95541 27.6517 0.02098
C 14.80074 29.84138 0.0351
C 13.48044 27.70417 -0.01717
C 13.4996 26.2251 0.05265
C 12.33438 25.55751 -0.01952
C 12.39965 24.24295 -0.02813
C 13.6406 9.17675 0.00374
C 12.43039 8.48753 0.00052
C 12.0751 7.17803 -0.03682
C 13.44992 6.41266 0.01965
C 13.52322 5.01177 0.02058
C 12.28844 4.32318 -0.01957
C 12.31908 2.86534 -0.0108
C 13.56168 2.19735 -0.00368
C 13.57555 0.73667 -0.02696
C 12.34429 0.07377 -0.00114
C 14.7335 32.63059 0.00228
C 16.03284 31.95355 0.00798
C 16.04844 30.50034 0.00422
C 14.71569 28.45105 -0.03113
C 17.2093 28.23092 0.03338
C 18.41964 27.62342 -0.0258
C 18.48697 26.20536 -0.0331
C 20.96387 27.64881 -0.04076
C 20.91513 26.18267 -0.00652
C 19.71677 25.53343 0.0058
C 19.46935 24.14674 -0.00865
C 20.70714 13.67706 0.00675
C 19.565 12.87678 -0.00311
C 19.59142 11.32475 0.00742
C 20.81703 10.68062 -0.01594
C 20.91903 9.16346 0.0106
C 19.70368 8.52439 -0.01154
C 19.66858 7.09023 -0.01721
C 20.87751 6.39652 -0.02422
C 20.93494 5.03419 0.01277
C 19.70343 4.24385 0.00096
C 19.7041 2.85323 -0.01527
C 20.88922 2.11669 0.01087
C 20.86008 0.72945 0.00199
C 19.68306 28.31742 -0.00703
C 19.70424 29.68324 0.00654
C 20.85509 30.474 -0.04422
C 20.83133 31.93924 -0.02957
C 17.16303 25.52551 -0.00316
C 17.13935 24.05626 0.02188
C 18.4246 23.45724 -0.01979
C 17.0671 21.75314 0.02691
C 18.36765 13.50446 -0.01581
C 17.24026 11.46802 0.01452
C 18.38188 10.68115 0.04892
C 18.4478 9.24007 -0.00111
C 12.26119 28.4073 0.00244
C 17.22774 8.52986 -0.03557
C 18.35649 6.42899 0.01739
C 18.46947 5.01074 0.00755
C 17.2642 4.20195 -0.0054
C 17.25338 2.83307 0.00667
C 18.50277 2.135 0.00143
C 18.49343 0.73038 -0.017
C 17.25591 0.00701 0.00364
C 19.63518 32.59503 -0.00831
C 17.0986 7.08982 0.03754
C 19.69534 34.04347 0.01511
C 12.21103 29.84632 0.02299
C 13.50345 31.94908 0.01416
C 3.6521 5.02929 -0.00482
C 2.41866 4.28807 -0.01384
C 2.47078 2.8426 0.03693
C 3.60848 2.08046 0.01745
C 3.69294 0.66785 0.00488
C 2.41065 0.03467 -0.01004
C 4.90023 32.65977 -0.02896
C 6.11336 31.98254 -0.00131
C 6.16388 30.56259 -0.01118
C 4.98937 29.86879 -0.014
C 4.86057 28.52249 0.02147
C 6.13777 27.72388 0.00373
C 6.14991 26.29526 -0.00191
C 4.87272 25.5623 0.00438
C 4.83872 24.2052 0.01291
C 6.14536 23.47412 0.00093
C 6.0839 22.13436 0.00057
C 3.6384 6.51825 0.02888
C 5.10033 21.20239 -0.01634
C 2.38633 7.16654 0.00685
C 2.37806 11.35684 0.00393
C 3.69425 30.57422 -0.01378
C 2.47866 29.89465 0.02635
C 2.41122 28.52362 0.0127
C 3.68476 27.73443 0.01396
C 3.64156 26.3056 0.01849
C 2.44867 25.57526 -0.01142
C 2.38501 24.12921 -0.00562
C 3.67635 23.40747 -0.00494
C 3.73306 22.04725 0.00054
C 2.5345 21.23638 0.03007
C 2.57716 19.86591 -0.00095
C 4.01937 19.00633 0.01572
C 3.59201 17.71192 -0.04848
C 2.43991 17.15802 -0.00892
C 2.48476 15.61034 -0.01362
C 3.59932 14.99204 -0.0008
C 2.48313 12.63245 0.0288
C 2.44868 8.56015 0.00895
C 5.00197 19.86576 -0.00334
C 4.85981 6.80423 0.02339
C 6.09293 6.3268 0.01641
C 9.80034 32.79162 0.02819
C 10.94293 31.97835 0.00165
C 11.04715 30.59192 -0.02971
C 9.88699 29.87165 0.02894
C 9.86463 28.4283 -0.01789
C 11.0754 27.77302 0.00444
C 11.03552 26.3043 -0.00925
C 9.86585 25.60431 0.01877
C 9.7607 24.29854 0.01363
C 11.06846 6.31891 -0.02162
C 11.06103 4.97426 0.00415
C 9.79597 4.26807 -0.0014
C 9.84447 2.84177 0.02162
C 11.13432 2.20453 0.0076
C 11.15666 0.7189 0.01241
C 9.88004 0.02228 -0.01454
C 12.24972 32.67249 0.01945
C 7.38889 0.00782 -0.00891
C 8.62201 0.75695 -0.01046
C 8.64446 2.10381 -0.02689
C 7.41908 2.88691 -0.01536
C 6.13084 4.96771 -0.00719
C 4.88969 4.21524 0.01364
C 4.85559 2.78623 -0.01062
C 6.08169 2.07292 -0.00033
C 6.17396 0.65417 0.03589
C 4.92414 34.03441 -0.02759
C 7.34175 32.70924 0.0402
C 8.5781 31.92989 0.00572
C 13.4898 30.53214 0.03542
C 8.64155 30.53669 0.03592
C 7.40374 28.47159 0.00943
C 8.65803 27.76588 0.02841
C 8.65029 26.32562 -0.01111
C 7.42752 25.59856 -0.01275
C 7.42964 24.15211 0.00985
C 8.68247 23.55236 -0.02245
C 8.60627 4.98182 -0.00428
C 7.40445 4.26619 0.03101
C 7.41845 29.82549 0.00406
C 22.09223 32.65237 -0.00478
C 23.31632 31.95 -0.01662
C 23.31663 30.58175 -0.01185
C 32.00071 29.81734 -0.02142
C 31.98747 28.36534 0.0544
C 33.19407 27.67837 0.00026
C 33.23082 26.27871 0.00682
C 32.01489 25.55017 -0.01779
C 31.92059 24.12328 0.03794
C 33.08216 23.43511 0.01927
C 33.13727 22.0133 0.01574
C 31.86408 21.248 -0.02383
C 31.98234 19.8956 -0.01429
C 33.21 19.19918 -0.0136
C 33.21681 17.7306 0.00594
C 31.97338 17.06318 -0.02474
C 31.98056 15.63024 0.00369
C 33.21381 14.92474 0.00455
C 33.15782 13.4585 -0.00644
C 31.96484 12.81605 -0.01839
C 33.179 30.52691 0.01428
C 31.98848 11.37814 0.00137
C 33.13366 31.96273 -0.01694
C 29.51298 0.02492 0.00346
C 30.72261 17.77376 -0.00669
C 29.43582 17.01851 0.0101
C 29.47488 15.66333 0.01705
C 30.71681 14.95532 -0.0405
C 30.69816 13.57202 -0.01303
C 29.46581 12.81566 -0.01461
C 29.46671 11.35634 -0.02155
C 30.70007 10.72355 -0.00944
C 30.75491 9.2324 -0.03735
C 29.61154 8.51555 -0.00971
C 29.45262 7.11555 0.01518
C 30.65392 6.42685 0.01908
C 30.68021 4.98831 0.07705
C 29.41179 4.24015 0.0103
C 29.54375 2.83385 0.02108
C 30.7698 2.17708 0.00716
C 30.7169 0.7224 0.00307
C 31.82622 32.67009 0.01713
C 33.18562 10.64501 0.00199
C 33.18164 9.22193 0.04381
C 31.95574 8.50821 0.02806
C 1.1689 17.77003 0.01223
C 34.3683 17.0399 0.00648
C 0.0568 15.59634 0.02114
C 1.27676 14.85641 -0.02957
C 1.34402 13.40978 0.00343
C 0.03373 12.77465 -0.02656
C 0.01199 11.38688 -0.02442
C 1.28421 10.55672 -0.00027
C 1.15293 9.2275 -0.00583
C 34.40765 8.52612 -0.02302
C 34.37335 7.06496 -0.02849
C 1.18467 6.45423 0.02931
C 1.21941 4.96489 0.00628
C 34.40634 4.23243 -0.0345
C 0.00842 2.87258 -0.00931
C 1.20167 2.13258 -0.00939
C 1.22443 0.69018 -0.00468
C 1.26477 19.18848 -0.01678
C 0.04661 19.88291 0.01951
C 0.00967 21.23613 -0.02213
C 1.24595 21.93503 0.02712
C 31.93879 7.07744 0.01504
C 33.13198 6.38102 -0.00069
C 33.15666 4.96645 0.04926
C 31.90442 4.35705 -0.03838
C 31.97811 2.89094 0.00349
C 33.22756 2.20096 -0.00323
C 33.15741 0.75211 -0.00841
C 31.96254 0.02607 0.0001
C 30.81489 19.1169 0.03531
C 34.34048 32.69938 -0.02927
C 1.23904 30.57465 0.01027
C 0.0356 29.84106 0.01831
C 0.02254 28.42687 -0.01037
C 1.24021 27.73371 -0.00439
C 1.26117 26.31341 -0.00598
C 0.03061 25.50134 -0.05239
C 34.41543 24.15301 0.03076
C 1.19991 23.34799 0.00723
C 1.1679 32.01501 -0.01404
C 29.55742 19.83747 0.01836
C 29.47186 21.24954 -0.03039
C 30.62272 21.93336 -0.01415
C 25.80485 27.66629 -0.0276
C 25.77946 26.20451 0.03005
C 24.55273 25.55474 -0.04078
C 24.68985 24.1266 0.02117
C 25.94774 23.61872 0.02737
C 25.83473 14.81809 -0.00498
C 25.84439 13.47403 0.00135
C 24.53797 11.3549 0.03102
C 25.7725 10.68047 0.02555
C 25.88051 9.19412 0.01423
C 24.61726 8.54657 -0.00285
C 24.5434 7.09641 -0.009
C 25.83193 6.41985 -0.01199
C 25.76176 5.02068 -0.00229
C 24.55459 4.27586 -0.00938
C 24.59503 2.8765 -0.0264
C 25.72859 2.04592 -0.01154
C 24.60469 28.41632 0.00768
C 24.60437 29.90434 -0.00178
C 25.88464 30.51421 0.00733
C 25.87058 31.93213 -0.02118
C 22.11015 29.87621 0.01126
C 22.14087 28.4518 0.01852
C 23.3731 27.69821 -0.00381
C 23.31986 26.25864 0.03046
C 22.16434 25.44317 0.0296
C 22.01448 11.43133 0.03374
C 23.2241 10.78644 -0.02845
C 23.38846 9.23053 -0.03213
C 25.83203 0.67147 0.00684
C 22.18278 8.48381 0.02239
C 23.31937 6.37369 0.02734
C 23.30315 5.01004 -0.0055
C 22.13403 4.1932 0.01515
C 22.1469 2.81353 -0.00225
C 23.41609 2.13133 0.00071
C 23.36033 0.70037 -0.01107
C 22.11902 0.08585 -0.01586
C 24.56159 32.62361 -0.01971
C 22.11124 7.09822 0.01153
C 3.62152 32.01404 -0.01303
C 24.56051 33.99261 -0.01052
C 28.20798 31.88597 0.00367
C 28.18755 6.37186 0.01094
C 28.2148 4.9534 0.00235
C 26.98707 4.20423 0.01495
C 26.93422 2.78136 0.01259
C 28.30189 2.11045 0.01799
C 28.22599 0.74328 0.01699
C 27.03029 0.00968 -0.00416
C 29.48628 32.65336 0.01177
C 30.64584 31.98016 0.04266
C 30.65823 30.51131 0.01324
C 29.53014 29.72574 0.0014
C 29.58996 28.35843 0.00924
C 30.80116 27.67225 0.02326
C 30.73266 26.25514 0.00261
C 29.51391 25.55999 0.03265
C 29.51773 24.21693 -0.02049
C 30.74914 23.4254 -0.01854
C 27.02534 7.12054 0.02198
C 27.09105 8.56759 0.02611
C 28.31155 9.21242 -0.00621
C 28.26432 10.63356 0.00194
C 28.30516 30.43609 0.04306
C 27.06521 29.74546 0.00996
C 27.07392 28.3644 0.00195
C 28.31127 27.6434 -0.00802
C 28.2795 26.25284 -0.00218
C 27.02411 25.54058 -0.01654
C 27.10843 24.16261 -0.00037
C 28.28756 23.43611 -0.0032
C 27.02033 32.61896 -0.01679
C 28.27057 21.97896 0.00622
C 28.43058 19.23733 -0.00942
C 28.233 17.85164 0.00487
C 27.07443 17.08431 0.00826
C 26.84814 15.7245 -0.00294
C 28.18173 14.98405 0.00152
C 28.18518 13.50121 0.01257
C 27.0208 12.73591 0.02316
C 26.99765 11.37728 0.04185
C 27.13189 21.26567 -0.02815
C 2.37807 32.66887 0.00848
