440
Graphene
C 0.0549 0.03212 0.01295
C 13.44084 17.7879 -0.01634
C 12.22541 17.11116 -0.00334
C 12.25615 15.69635 0.02339
C 13.43481 14.96134 0.01641
C 13.49923 13.48965 -0.00719
C 12.31112 12.78349 0.01364
C 12.31393 11.41111 -0.01062
C 13.46682 10.57749 -0.00033
C 13.47347 9.26314 0.03589
C 12.24258 8.50062 -0.02759
C 12.28099 7.02005 0.0402
C 13.5785 6.38159 0.00572
C 13.56268 4.99058 0.03592
C 12.34078 4.30078 0.00406
C 12.34935 2.77377 0.00943
C 13.46251 2.0736 0.02841
C 13.46787 0.66933 -0.01111
C 12.27845 34.03818 -0.01275
C 14.71358 32.70549 0.00985
C 16.00548 31.90426 -0.02245
C 16.00402 30.45064 -0.00428
C 14.79664 29.84615 0.03101
C 14.7535 28.39191 -0.01536
C 13.56263 19.16454 0.00057
C 12.244 19.94709 0.00093
C 12.29113 21.38506 0.01291
C 13.54448 22.08083 0.00438
C 11.1097 13.54299 -0.00095
C 9.90256 12.74175 0.01572
C 9.77409 11.38236 -0.04848
C 10.99368 10.70114 -0.00892
C 11.04524 9.25868 -0.01362
C 9.84828 8.65204 -0.0008
C 9.86615 7.16846 0.0288
C 11.06682 6.44195 0.00393
C 11.12677 4.98641 0.00895
C 9.84297 4.33376 0.00685
C 9.78742 2.9347 0.02888
C 15.9894 27.73135 -0.02689
C 11.10369 2.15166 -0.00482
C 9.81358 0.11096 0.03693
C 12.28176 32.56664 0.01745
C 13.51754 31.95448 0.00488
C 13.53603 30.52624 -0.01004
C 12.32237 29.88548 -0.02896
C 12.1936 28.49804 -0.00131
C 13.50678 27.70714 -0.01118
C 13.52512 26.3405 -0.014
C 12.36518 25.59856 0.02147
C 12.34114 24.1583 0.00373
C 13.57998 23.46493 -0.00191
C 11.05121 0.74324 -0.01384
C 11.07817 14.97699 0.03007
C 16.02132 26.25219 -0.01046
C 14.78486 24.22233 0.02819
C 18.42253 27.66392 0.02058
C 18.50277 26.2862 -0.01957
C 17.24107 25.52995 -0.0108
C 17.22764 24.11859 -0.00368
C 18.44124 23.41201 -0.02696
C 18.45245 21.94876 -0.00114
C 17.19679 21.23242 0.00228
C 17.21211 19.82731 0.00798
C 18.4394 19.16242 0.00422
C 18.35314 17.69379 0.0351
C 17.15804 17.0665 -0.03113
C 17.08277 15.65988 0.02098
C 18.29059 14.96125 0.01848
C 17.25062 12.84833 -0.00619
C 17.26176 11.46262 -0.02162
C 18.435 10.69169 0.00889
C 18.5074 9.24294 -0.00481
C 17.25242 8.5401 0.00979
C 17.24308 7.12122 0.01443
C 18.42623 6.43398 0.03505
C 18.44443 4.98407 -0.02815
C 17.22331 4.22518 -0.04147
C 17.17348 2.78482 -0.05302
C 17.19135 28.41172 0.01965
C 17.17511 29.77989 -0.03682
C 18.39763 30.54482 0.00052
C 18.39289 31.91329 0.00374
C 16.03208 23.40434 0.00165
C 15.95837 21.97777 -0.02971
C 14.74731 21.33514 0.02894
C 14.76094 19.8888 -0.01789
C 15.92515 19.14484 0.00444
C 15.93385 17.72799 -0.00925
C 14.70852 17.01843 0.01877
C 14.71839 15.57438 0.01363
C 15.88968 14.88147 -0.02162
C 15.98667 13.50636 0.00415
C 14.71297 12.77519 -0.0014
C 14.69358 25.61773 -0.00891
C 14.674 11.29332 0.02162
C 15.96053 9.33107 0.01241
C 14.77038 8.50334 -0.01454
C 14.82926 7.08601 0.01945
C 16.04168 6.33584 0.01416
C 16.01423 4.98913 0.03542
C 14.82115 4.2143 0.02299
C 14.69922 2.79116 0.00244
C 15.91706 2.11475 -0.01717
C 15.9747 0.69055 0.05265
C 14.74239 34.02836 -0.01952
C 17.13712 32.64612 -0.02813
C 15.94065 10.71312 0.0076
C 18.39511 2.09635 0.00213
C 9.7791 15.66637 0.00054
C 10.99442 17.83894 -0.00562
C 3.72181 0.72282 0.04421
C 2.53277 0.01575 0.00088
C 4.95508 32.673 0.00828
C 6.17133 31.92614 -0.02375
C 6.14762 30.58591 0.00558
C 4.90959 29.75824 -0.0059
C 5.0101 28.38069 -0.01386
C 6.13975 27.65372 -0.02805
C 6.18304 26.24525 0.00081
C 4.92667 25.65062 0.00245
C 4.93032 24.11319 0.02728
C 6.17961 23.47376 -0.00039
C 6.14156 22.09283 0.0064
C 5.01372 21.29057 0.00211
C 5.03701 19.90707 -0.00449
C 4.89538 16.95506 -0.01979
C 4.87512 15.61133 0.02784
C 6.21825 14.94307 -0.01977
C 6.08607 13.46862 -0.00561
C 4.87548 12.80132 0.00208
C 4.85613 11.40366 0.01707
C 5.99112 10.60328 0.02769
C 6.07344 9.2929 -0.03291
C 3.64919 2.19129 -0.00177
C 2.44785 2.85628 0.03278
C 2.48399 4.28453 0.01138
C 3.71544 5.04762 -0.00407
C 3.7401 30.49338 0.01116
C 2.46543 29.77465 -0.0005
C 2.41753 28.35696 -0.00018
C 3.70386 27.74929 0.01073
C 3.62039 26.31845 0.01984
C 2.35524 25.56237 0.00535
C 2.45388 24.18209 -0.00198
C 3.64314 23.46431 -0.00012
C 3.69947 22.00519 -0.04306
C 2.49108 21.28042 -0.03672
C 2.51073 19.9084 0.01913
C 4.87825 8.55332 -0.04999
C 3.84501 19.12419 0.00267
C 2.42406 16.9917 0.02426
C 2.35042 15.5583 0.01218
C 3.64633 14.92313 -0.01471
C 3.6294 13.53618 -0.02827
C 2.41194 12.80379 0.01078
C 2.43517 11.31304 -0.00112
C 3.66063 10.68605 0.03345
C 3.66626 9.25126 0.00748
C 2.50533 8.5197 0.00662
C 2.47372 7.07965 -0.0154
C 3.67181 6.40696 -0.01299
C 3.68454 17.65732 0.00787
C 9.73202 17.09304 -0.00494
C 4.88944 7.16187 0.04505
C 6.17599 5.0806 -0.04307
C 7.33542 8.61116 -0.00725
C 7.34818 7.21118 -0.05697
C 8.6465 6.47512 0.01087
C 8.64482 5.08443 -0.01343
C 7.38363 4.36591 0.00988
C 7.428 2.89707 0.0276
C 8.62132 2.17631 0.01305
C 8.60525 0.77893 -0.00077
C 7.3926 0.04677 0.03368
C 9.78428 32.69353 -0.02929
C 10.98575 31.94885 -0.00966
C 11.03229 30.5658 -0.03337
C 9.86669 29.85882 0.01227
C 9.82151 28.39897 0.00873
C 11.01641 27.74021 -0.00049
C 11.07801 26.2989 0.00848
C 9.887 25.56953 -0.01303
C 9.8796 24.18085 -0.01378
C 11.04136 23.39642 0.02635
C 11.07504 22.08459 0.0127
C 9.86949 21.28363 0.01396
C 9.72846 19.92252 0.01849
C 10.94755 19.3273 -0.01142
C 8.57734 9.29718 0.02322
C 8.57977 10.75527 -0.00094
C 7.27499 11.35427 -0.02566
C 7.29527 12.82663 -0.03113
C 4.93053 4.36863 0.03189
C 4.9728 2.95979 0.00031
C 6.11704 2.12307 -0.003
C 6.16306 0.75213 0.01402
C 4.95424 0.00868 0.02379
C 7.35333 32.65777 0.00907
C 8.52044 32.0177 0.00643
C 8.58393 30.5657 -0.01509
C 7.4172 29.86296 0.03267
C 7.39327 28.42737 0.02374
C 8.59137 27.70841 0.00402
C 6.20879 6.47283 0.03284
C 8.5424 26.31148 0.0073
C 7.44219 24.16411 0.03828
C 8.62834 23.44934 0.01226
C 8.63994 22.01768 -0.00279
C 7.39505 21.34052 0.01996
C 7.27643 19.98715 -0.03996
C 8.42906 19.19644 0.01465
C 8.38255 17.77599 -0.00074
C 7.20683 16.98401 -0.00518
C 7.31442 15.58688 0.0086
C 8.59293 14.90249 -0.00643
C 8.57439 13.42071 0.017
C 7.41037 25.51374 0.0174
C 18.4047 0.6682 -0.00066
C 17.18938 34.0798 -0.00289
C 19.5788 32.64482 0.00028
C 30.70931 14.77611 -0.0405
C 30.79403 13.35006 -0.01303
C 29.50487 12.7386 -0.01461
C 29.48177 11.38971 -0.02155
C 30.72094 10.6365 -0.00944
C 30.70341 9.24684 -0.03735
C 29.46449 8.51665 -0.00971
C 29.51489 7.04999 0.01518
C 30.82776 6.30619 0.01908
C 30.84541 4.90005 0.07705
C 29.64057 4.22581 0.0103
C 29.49528 2.72235 0.02108
C 30.70596 2.04526 0.00716
C 30.75552 0.67246 0.00307
C 29.47123 0.01313 0.00346
C 31.94862 32.6406 0.01713
C 33.26226 32.02696 -0.01694
C 33.26034 30.55908 0.01428
C 32.02546 29.92723 -0.02142
C 31.86391 28.45539 0.0544
C 33.14101 27.71665 0.00026
C 33.15263 26.32027 0.00682
C 31.97032 25.64282 -0.01779
C 29.55094 15.53633 0.01705
C 29.47591 17.01753 0.0101
C 30.6972 17.82788 -0.00669
C 30.67235 19.21155 0.03531
C 28.22305 10.63765 0.00194
C 28.21325 9.14948 -0.00621
C 27.02352 8.5151 0.02611
C 27.08974 7.04461 0.02198
C 28.31739 6.32221 0.01094
C 28.29698 4.89142 0.00235
C 27.09731 4.28348 0.01495
C 27.04684 2.81541 0.01259
C 28.22283 2.09201 0.01799
C 28.23603 0.64935 0.01699
C 27.03494 34.02256 -0.00416
C 31.9738 24.16166 0.03794
C 29.48129 32.64685 0.01177
C 30.74308 30.54988 0.01324
C 29.56302 29.77801 0.0014
C 29.46464 28.39572 0.00924
C 30.72982 27.72935 0.02326
C 30.74518 26.31521 0.00261
C 29.50554 25.62866 0.03265
C 29.51644 24.16723 -0.02049
C 30.7984 23.46252 -0.01854
C 30.73563 22.04346 -0.01415
C 29.47447 21.32427 -0.03039
C 29.44994 19.93638 0.01836
C 30.74945 31.93855 0.04266
C 27.05887 11.38683 0.04185
C 33.14372 23.4354 0.01927
C 31.93852 21.30215 -0.02383
C 34.386 24.15927 0.03076
C 1.21976 23.48187 0.00723
C 1.29165 22.02732 0.02712
C 0.06948 21.23871 -0.02213
C 34.42942 19.88621 0.01951
C 1.19637 19.09975 -0.01678
C 1.20862 17.66463 0.01223
C 34.36641 16.97362 0.00648
C 34.37341 15.58137 0.02114
C 1.21491 14.8242 -0.02957
C 1.21861 13.39375 0.00343
C 34.38723 12.68641 -0.02656
C 0.02383 11.32099 -0.02442
C 1.26553 10.57281 -0.00027
C 1.23185 9.2186 -0.00583
C 0.01971 8.49477 -0.02302
C 0.03666 7.06958 -0.02849
C 1.27473 6.34532 0.02931
C 1.21869 4.97103 0.00628
C 0.06702 4.17461 -0.0345
C 0.03894 2.76797 -0.00931
C 1.25062 2.12097 -0.00939
C 1.28781 0.74111 -0.00468
C 34.34099 25.5183 -0.05239
C 1.16739 26.28305 -0.00598
C 1.23933 27.68437 -0.00439
C 34.3849 28.45263 -0.01037
C 31.97034 19.85201 -0.01429
C 33.14498 19.15705 -0.0136
C 33.08838 17.70616 0.00594
C 31.95413 16.97068 -0.02474
C 31.97642 15.57597 0.00369
C 33.18113 14.8814 0.00455
C 33.19456 13.45285 -0.00644
C 31.98556 12.70406 -0.01839
C 31.96455 11.28792 0.00137
C 33.21425 10.56013 0.00199
C 33.22899 9.16473 0.04381
C 33.17423 22.05843 0.01574
C 31.98152 8.54345 0.02806
C 33.30309 6.33882 -0.00069
C 33.26551 4.96656 0.04926
C 32.03931 4.17699 -0.03838
C 32.0152 2.78043 0.00349
C 33.2177 2.05704 -0.00323
C 33.20634 0.6654 -0.00841
C 31.97016 34.071 0.0001
C 0.02399 32.71617 -0.02927
C 1.29189 31.98071 -0.01404
C 1.2561 30.50767 0.01027
C 34.41271 29.82639 0.01831
C 31.97905 7.09245 0.01504
C 27.04445 12.79858 0.02316
C 28.33466 13.52207 0.01257
C 28.3145 14.99051 0.00152
C 23.34475 32.01275 -0.00703
C 23.29929 30.57487 -0.04076
C 22.06398 29.8432 -0.00652
C 22.11212 28.47108 0.0058
C 23.30251 27.74945 -0.00865
C 23.32708 26.34422 0.00675
C 22.10241 25.59528 -0.00311
C 22.11527 24.20617 0.00742
C 23.36921 23.49538 -0.01594
C 23.35436 22.12783 0.0106
C 22.12117 21.25824 -0.01154
C 22.1055 19.82526 -0.01721
C 23.28098 19.12189 -0.02422
C 23.37144 17.71845 0.01277
C 22.04731 16.89496 0.00096
C 22.20271 15.58664 -0.01527
C 23.30001 14.90398 0.01087
C 23.39295 13.4955 0.00199
C 22.20506 11.40643 0.01511
C 23.36667 10.63909 -0.00478
C 23.33091 9.15976 -0.01662
C 22.06945 8.50604 -0.01185
C 22.08909 7.08824 0.01126
C 22.06646 32.71188 0.00654
C 19.55531 0.0047 -0.04422
C 20.8782 0.73062 -0.02957
C 20.82416 2.10104 -0.00831
C 20.80081 31.96016 -0.02213
C 20.8348 30.61594 0.03698
C 19.66136 29.85824 -0.00109
C 19.68564 28.45853 -0.00491
C 20.88573 27.70586 0.03338
C 20.89469 26.23213 -0.0258
C 19.69536 25.50801 -0.0331
C 19.69796 24.03952 -0.00316
C 21.00146 23.43401 0.02188
C 20.94616 22.00518 -0.01979
C 19.60757 21.23409 0.02691
C 23.29281 6.36342 0.01852
C 19.71395 19.89307 -0.01581
C 20.81843 17.67179 0.04892
C 19.53744 17.04432 -0.00111
C 19.66232 11.37889 -0.03557
C 20.89355 10.87386 0.03754
C 20.84348 9.33876 0.01739
C 19.71268 8.55645 0.00755
C 19.71542 7.14535 -0.0054
C 20.85322 6.41245 0.00667
C 20.87341 4.91932 0.00143
C 19.64558 4.24501 -0.017
C 19.64552 2.85915 0.00364
C 20.91006 19.14564 0.01452
C 23.35738 4.98519 -0.00381
C 22.11244 4.27126 0.03046
C 22.03902 2.85746 0.0296
C 25.79769 6.41496 -0.009
C 25.84564 4.93951 -0.01199
C 24.55523 4.2454 -0.00229
C 24.63922 2.87026 -0.00938
C 25.76013 2.11298 -0.0264
C 25.81564 0.65288 -0.01154
C 24.55409 34.05523 0.00684
C 27.02234 32.59362 -0.01052
C 28.34446 31.92796 -0.01679
C 28.28382 30.50517 0.00367
C 27.14404 29.84774 0.04306
C 24.5401 7.02892 -0.00285
C 27.05339 28.44428 0.00996
C 28.25077 26.22258 -0.00802
C 27.05974 25.48727 -0.00218
C 27.08155 24.05104 -0.01654
C 28.25073 23.40103 -0.00037
C 28.21155 22.00816 -0.0032
C 27.00108 21.30627 0.00622
C 26.99359 19.92017 -0.02815
C 28.24107 19.17183 -0.00942
C 28.21391 17.71246 0.00487
C 27.04005 17.03042 0.00826
C 27.11408 15.54138 -0.00294
C 28.22689 27.63433 0.00195
C 3.69943 31.85671 -0.0213
C 24.49644 8.53147 0.01423
C 25.80415 10.67093 0.03102
C 23.30648 2.17196 0.03374
C 23.35382 0.80779 -0.02845
C 22.07586 0.01948 -0.03213
C 24.59024 32.70127 0.02239
C 25.79692 31.94185 0.01153
C 25.80946 30.53565 0.02734
C 24.59029 29.82464 -0.0055
C 24.60754 28.40564 0.01515
C 25.86926 27.68821 -0.00225
C 25.89287 26.28901 0.00071
C 24.56733 25.66222 -0.01107
C 25.75313 9.19174 0.02555
C 24.61507 24.22763 -0.01586
C 25.73411 21.98942 -0.02118
C 24.5367 21.31696 0.00733
C 24.57249 19.83817 -0.00178
C 25.77009 19.20664 0.00768
C 25.7731 17.72934 -0.0276
C 24.6041 17.08581 0.03005
C 24.70246 15.6402 -0.04078
C 25.87352 14.84182 0.02117
C 25.76682 13.47334 0.02737
C 24.53468 12.73771 -0.00498
C 24.61533 11.30722 0.00135
C 25.71142 23.39009 -0.01971
C 2.44899 32.64625 -0.00374
