311
Graphene
C 0.01295 0.04076 0.01295
C 14.78729 7.08216 -0.00316
C 15.94438 6.45399 0.02188
C 16.00187 5.00858 -0.01979
C 14.78657 4.26203 0.02691
C 14.8107 2.89025 -0.01581
C 16.02337 2.1512 0.01452
C 15.94432 0.66609 0.04892
C 14.72916 34.07531 -0.00111
C 17.12642 32.51221 -0.03557
C 18.46534 17.71081 0.03754
C 17.29525 17.08483 0.01739
C 17.24898 15.57043 0.00755
C 18.49438 14.88741 -0.0054
C 18.48388 13.46751 0.00667
C 17.18814 12.8545 0.00143
C 14.76789 8.47846 -0.0331
C 15.98672 9.15588 -0.0258
C 15.9346 10.59417 0.03338
C 14.79901 11.26526 -0.00491
C 12.23198 7.09408 -0.02162
C 13.48475 6.4358 0.00889
C 13.51781 4.9398 -0.00481
C 12.25642 4.31497 0.00979
C 12.22202 2.90651 0.01443
C 13.54178 2.1688 0.03505
C 13.55697 0.72362 -0.02815
C 17.23274 11.37617 -0.017
C 12.32158 0.00768 -0.04147
C 16.00539 31.99154 0.00213
C 15.94393 17.68189 -0.00066
C 14.84869 17.09129 -0.00289
C 14.78418 15.71122 0.00028
C 15.9808 14.92652 -0.02213
C 15.9576 13.54497 0.03698
C 14.77222 12.69292 -0.00109
C 14.76366 32.62839 -0.05302
C 12.32211 8.54267 -0.00619
C 18.52705 10.65844 0.00364
C 17.20227 8.47422 -0.02957
C 20.88987 6.4013 0.01511
C 20.91054 4.92715 -0.00478
C 19.59818 4.23348 -0.01662
C 19.69953 2.81668 -0.01185
C 20.99169 2.10866 0.01126
C 20.90851 0.72284 0.01852
C 19.69916 34.06293 -0.00381
C 22.12841 32.72866 0.03046
C 23.3156 32.01332 0.0296
C 23.34862 17.6468 0.03374
C 22.13363 17.02185 -0.02845
C 22.14154 15.65271 -0.03213
C 23.36933 14.91088 0.02239
C 23.34177 13.50124 0.01153
C 22.09823 12.78931 0.02734
C 19.69315 7.06841 0.00199
C 19.72877 8.56106 0.01087
C 20.89769 9.20165 -0.01527
C 20.90408 10.63858 0.00096
C 17.22307 7.10204 -0.04422
C 18.47582 6.35536 0.00654
C 18.38375 4.96369 -0.00703
C 17.20386 4.23093 -0.04076
C 17.25865 2.79744 -0.00652
C 18.47804 2.08729 0.0058
C 18.4255 0.73851 -0.00865
C 18.42598 9.22984 -0.00831
C 17.19687 34.07013 0.00675
C 20.84398 17.77975 0.00742
C 19.68264 17.06364 -0.01594
C 19.67196 15.60924 0.0106
C 20.93699 14.88195 -0.01154
C 20.89956 13.48805 -0.01721
C 19.673 12.79992 -0.02422
C 19.68766 11.39369 0.01277
C 19.7197 32.68724 -0.00311
C 22.12042 11.35402 -0.0055
C 13.54444 9.17318 0.01848
C 12.27886 11.30924 -0.03113
C 4.88659 15.6013 0.00572
C 6.16658 14.9872 0.03592
C 6.11 13.49435 0.00406
C 4.88011 12.79129 0.00943
C 4.86732 11.385 0.02841
C 6.12664 10.64745 -0.01111
C 6.0964 9.24968 -0.01275
C 4.92282 8.55431 0.00985
C 4.95198 7.10261 -0.02245
C 6.11438 6.38082 -0.00428
C 6.13913 4.90631 0.03101
C 4.8761 4.22821 -0.01536
C 4.91891 2.80664 -0.02689
C 6.12289 2.12458 -0.01046
C 6.18243 0.71225 -0.00891
C 4.98778 32.70364 0.0402
C 2.43565 0.04651 -0.02759
C 3.70289 0.67323 0.03589
C 3.6554 2.13705 -0.00033
C 3.62777 30.4994 -0.01118
C 2.50019 29.90378 -0.014
C 2.45595 16.97099 0.02147
C 2.43701 15.64806 0.00373
C 3.66201 14.95612 -0.00191
C 3.66679 13.49335 0.00438
C 2.44953 12.79518 0.01291
C 4.93031 0.04262 0.02819
C 2.4766 11.32134 0.00093
C 3.70801 9.27591 -0.01634
C 2.49024 8.55426 -0.00334
C 2.465 7.12358 0.02339
C 3.64271 6.47181 0.01641
C 3.71623 5.01474 -0.00719
C 2.45882 4.25946 0.01364
C 2.4474 2.8643 -0.01062
C 3.65818 10.6863 0.00057
C 13.55796 10.57008 0.02098
C 7.43256 32.71235 0.00165
C 8.53617 14.9129 0.02894
C 9.90361 8.47673 -0.02813
C 9.84671 7.08259 0.00374
C 10.99915 6.3755 0.00052
C 11.04588 5.06318 -0.03682
C 9.8488 4.26802 0.01965
C 9.86337 2.79838 0.02058
C 11.04694 2.15343 -0.01957
C 11.11234 0.69545 -0.0108
C 9.8162 34.05618 -0.00368
C 12.41127 32.60821 -0.02696
C 13.38963 31.93007 -0.00114
C 12.2297 15.68988 0.00228
C 13.48139 14.97102 0.00798
C 13.49012 13.50904 0.00422
C 12.34005 12.80059 0.0351
C 11.0669 9.13842 -0.01952
C 11.10881 10.63436 0.05265
C 9.87708 11.40723 -0.01717
C 9.84416 12.80956 0.00244
C 8.59503 13.50052 -0.01789
C 7.32125 12.73087 0.00444
C 7.35818 11.33145 -0.00925
C 8.65031 10.65448 0.01877
C 8.63097 9.19313 0.01363
C 7.37921 8.54787 -0.02162
C 7.37108 7.16107 0.00415
C 7.38802 15.60907 -0.02971
C 8.66104 6.38983 -0.0014
C 7.43884 4.25003 0.0076
C 7.40902 2.87574 0.01241
C 8.57886 2.01614 -0.01454
C 8.59884 0.672 0.01945
C 7.33748 0.01939 0.01416
C 11.0388 14.8658 0.03542
C 11.09241 13.48593 0.02299
C 8.61013 4.99949 0.02162
C 3.7079 31.99029 -0.00131
C 23.38705 10.60047 0.01515
C 22.1068 8.56242 0.00071
C 33.21661 26.29464 0.01927
C 32.01764 25.56948 0.01574
C 31.986 24.13302 -0.02383
C 33.22994 23.43473 -0.01429
C 33.25059 22.04252 -0.0136
C 31.95453 21.30833 0.00594
C 31.94476 19.92138 -0.02474
C 33.25591 19.14377 0.00369
C 33.23344 17.77687 0.00455
C 31.98817 17.06794 -0.00644
C 31.9992 15.67239 -0.01839
C 33.14938 14.96821 0.00137
C 33.16691 13.51847 0.00199
C 31.97275 12.79386 0.04381
C 31.90458 11.3592 0.02806
C 33.21234 27.73751 0.03794
C 31.98512 28.36986 -0.01779
C 31.98463 29.79299 0.00682
C 33.18085 30.57399 0.00026
C 30.72127 13.53511 -0.00944
C 29.52254 12.80942 -0.03735
C 29.44446 11.36347 -0.00971
C 30.6951 10.68773 0.01518
C 30.74631 9.2135 0.01908
C 29.54591 8.50697 0.07705
C 29.45249 7.14198 0.0103
C 33.15649 10.68019 0.01504
C 30.78782 6.45389 0.02108
C 29.53436 4.19531 0.00307
C 29.49405 2.83419 0.00346
C 30.68277 2.11512 0.01713
C 30.76172 0.70252 -0.01694
C 29.50613 0.02905 0.01428
C 31.89755 32.64181 -0.02142
C 33.1599 31.95843 0.0544
C 30.72092 4.90564 0.00716
C 30.76276 14.96435 -0.02155
C 33.14019 9.23765 -0.00069
C 31.98999 7.13997 -0.03838
C 34.42133 15.57389 0.02114
C 1.21443 14.91122 -0.02957
C 1.21933 13.52012 0.00343
C 0.0329 12.77837 -0.02656
C 0.00371 11.41243 -0.02442
C 1.20734 10.65341 -0.00027
C 1.21966 9.23822 -0.00583
C 34.40605 8.52973 -0.02302
C 34.37484 7.15348 -0.02849
C 1.26001 6.37661 0.02931
C 1.23471 4.91649 0.00628
C 0.05061 4.20632 -0.0345
C 0.00012 2.84147 -0.00931
C 1.24508 2.16657 -0.00939
C 1.25775 0.7249 -0.00468
C 34.41781 17.00153 0.00648
C 1.23654 17.73934 0.01223
C 1.21271 19.20143 -0.01678
C 0.06851 19.93927 0.01951
C 33.20969 6.32886 0.00349
C 33.24065 4.92239 -0.00323
C 31.988 4.26047 -0.00841
C 31.96075 2.86735 0.0001
C 33.20133 2.08944 -0.02927
C 33.16039 0.7276 -0.01404
C 32.02158 34.02585 0.01027
C 31.93248 8.48631 0.04926
C 34.39692 32.68575 0.01831
C 1.201 30.47824 -0.00439
C 34.38769 29.86632 -0.00598
C 0.00106 28.42109 -0.05239
C 1.21589 27.6404 0.03076
C 0.03465 25.53138 0.00723
C 34.40702 24.24483 0.02712
C 0.03869 21.29652 -0.02213
C 1.22715 31.89139 -0.01037
C 23.36688 9.24251 -0.00225
C 29.5521 15.6071 -0.01461
C 30.7348 17.73867 -0.0405
C 25.83706 9.21236 -0.00229
C 24.5942 8.54158 -0.00938
C 24.57379 7.12534 -0.0264
C 25.83417 6.46011 -0.01154
C 25.80643 4.97903 0.00684
C 24.62406 4.29345 -0.01052
C 24.56937 2.85544 -0.01679
C 25.83068 2.14235 0.00367
C 25.8339 0.71546 0.04306
C 24.6271 0.06024 0.00996
C 27.0815 32.653 0.00195
C 28.26161 31.92594 -0.00802
C 28.2831 30.57821 -0.00218
C 27.02701 29.83336 -0.01654
C 27.10771 28.47046 -0.00037
C 25.79298 10.57003 -0.01199
C 24.56409 11.32849 -0.009
C 24.5916 12.76713 -0.00285
C 25.88664 13.49057 0.01423
C 22.06655 7.06467 -0.01107
C 23.31145 6.39888 -0.01586
C 23.34652 4.93201 -0.01971
C 22.09497 4.25251 -0.02118
C 22.12821 2.79064 0.00733
C 23.36134 2.17909 -0.00178
C 23.35921 0.75621 0.00768
C 28.27726 27.68467 -0.0032
C 22.1263 34.07811 -0.0276
C 25.7537 31.91111 -0.04078
C 25.74689 30.56142 0.02117
C 25.84205 19.18425 0.02737
C 25.8841 17.73672 -0.00498
C 24.60833 17.05551 0.00135
C 24.56043 15.66305 0.03102
C 25.82015 14.91936 0.02555
C 24.5774 32.729 0.03005
C 29.49613 17.05691 -0.01303
C 28.25288 26.26451 0.00622
C 28.26117 22.04616 -0.00942
C 27.07293 34.07954 0.01324
C 29.53446 32.65823 0.0014
C 30.71879 31.90156 0.00924
C 30.73091 30.49727 0.02326
C 29.4831 29.83109 0.00261
C 29.50743 28.45948 0.03265
C 30.74721 27.61225 -0.02049
C 30.7483 26.23165 -0.01854
C 29.44147 25.56935 -0.01415
C 29.53006 24.17017 -0.03039
C 30.79019 23.41693 0.01836
C 30.667 21.94487 0.03531
C 29.48735 21.27601 -0.00669
C 29.51803 19.87323 0.0101
C 30.73587 19.12194 0.01705
C 28.26666 0.71874 0.04266
C 28.29535 2.08388 0.01177
C 27.06549 2.82926 -0.00416
C 27.08153 4.2711 0.01699
C 27.03635 21.26706 0.00487
C 27.04564 19.83511 0.00826
C 28.26848 19.14907 -0.00294
C 28.25553 17.73757 0.00152
C 27.07472 17.03547 0.01257
C 27.08681 15.57915 0.02316
C 28.27691 14.93702 0.04185
C 28.23209 23.41937 -0.02815
C 28.22618 13.47801 0.00194
C 27.05461 11.30029 0.02611
C 28.24428 10.65636 0.02198
C 28.33767 9.20911 0.01094
C 27.09121 8.51686 0.00235
C 26.97127 7.12321 0.01495
C 28.21389 6.3363 0.01259
C 28.30405 4.95058 0.01799
C 27.05752 12.76434 -0.00621
C 2.47938 32.63787 -0.02896
