442
Graphene
C 0.018 34.01307 0.01295
C 12.16447 12.9295 0.00057
C 12.23915 11.4446 -0.01634
C 13.41754 10.69569 -0.00334
C 13.49498 9.31618 0.02339
C 12.21675 8.54788 0.01641
C 12.24634 7.15263 -0.00719
C 13.54804 6.49526 0.01364
C 13.5592 5.00722 -0.01062
C 12.3021 4.39762 -0.00033
C 12.36493 2.94584 0.03589
C 13.44248 2.11436 -0.02759
C 13.46154 0.7395 0.0402
C 12.29148 34.05382 0.00572
C 14.66593 32.66965 0.03592
C 15.98764 31.89107 0.00406
C 15.9406 30.55705 0.00943
C 14.69469 29.86786 0.02841
C 14.68774 28.32363 -0.01111
C 15.84029 27.63085 -0.01275
C 15.94433 26.16187 0.00985
C 14.72386 25.52978 -0.02245
C 14.69167 24.1851 -0.00428
C 16.05733 23.40771 0.03101
C 13.47873 13.62132 0.00093
C 13.42133 15.02368 0.01291
C 12.20032 15.75966 0.00438
C 12.23636 17.16636 -0.00191
C 9.75671 8.64123 0.03007
C 9.81942 7.15771 -0.00095
C 11.04112 6.38868 0.01572
C 11.05373 4.94472 -0.04848
C 9.84922 4.25906 -0.00892
C 9.87561 2.8648 -0.01362
C 11.20449 2.11393 -0.0008
C 11.1103 0.78873 0.0288
C 9.83808 0.09782 0.00393
C 12.25542 32.60488 0.00895
C 13.43536 32.02162 0.00685
C 15.98867 22.07338 -0.01536
C 13.4861 30.5713 0.02888
C 12.25879 28.41227 -0.01384
C 13.50139 27.69933 0.03693
C 13.56248 26.33837 0.01745
C 12.36552 25.62473 0.00488
C 12.22747 24.2098 -0.01004
C 13.42611 23.47824 -0.02896
C 13.46945 22.02642 -0.00131
C 12.15218 21.51264 -0.01118
C 12.1966 20.14853 -0.014
C 13.43642 19.31889 0.02147
C 13.44212 17.85865 0.00373
C 12.26832 29.84819 -0.00482
C 11.06218 9.291 0.00054
C 14.69667 21.24562 -0.02689
C 15.94084 19.17519 -0.00891
C 18.46278 21.89834 0.01965
C 17.28485 21.3445 0.02058
C 17.21442 19.8926 -0.01957
C 18.48604 19.20859 -0.0108
C 18.41734 17.82855 -0.00368
C 17.22324 17.09103 -0.02696
C 17.23236 15.69545 -0.00114
C 18.41088 14.92208 0.00228
C 18.42057 13.541 0.00798
C 17.18792 12.78634 0.00422
C 17.17438 11.3795 0.0351
C 18.40947 10.63664 -0.03113
C 18.399 9.15793 0.02098
C 17.05247 8.52034 0.01848
C 17.11047 7.13401 -0.00619
C 18.37199 6.4306 -0.02162
C 18.41741 5.00354 0.00889
C 17.24077 4.26331 -0.00481
C 17.21818 2.84128 0.00979
C 18.43772 2.14281 0.01443
C 18.39518 0.71987 0.03505
C 17.19301 34.05339 -0.02815
C 19.66123 32.69393 -0.04147
C 18.48091 23.38415 -0.03682
C 17.224 24.0802 0.00052
C 17.19599 25.54326 0.00374
C 18.41842 26.21082 -0.02813
C 15.96691 17.76588 0.02819
C 14.67898 17.1389 0.00165
C 14.71198 15.72234 -0.02971
C 15.88156 14.94902 0.02894
C 15.86783 13.53151 -0.01789
C 14.65711 12.83808 0.00444
C 14.68015 11.41083 -0.00925
C 15.90568 10.64992 0.01877
C 15.878 9.27774 0.01363
C 14.77907 8.60539 -0.02162
C 14.72406 7.20392 0.00415
C 14.66534 19.8665 -0.01046
C 15.93579 6.3517 -0.0014
C 14.70705 4.26453 0.0076
C 14.73839 2.83771 0.01241
C 15.97152 2.13179 -0.01454
C 15.92062 0.59661 0.01945
C 14.67218 34.06299 0.01416
C 17.1806 32.5921 0.03542
C 18.41094 31.89934 0.02299
C 18.39219 30.49568 0.00244
C 17.14293 29.79002 -0.01717
C 17.14716 28.26657 0.05265
C 18.36479 27.6735 -0.01952
C 15.96078 4.96612 0.02162
C 11.01459 10.7105 -0.00494
C 9.76972 11.43889 -0.00562
C 9.83286 12.77886 -0.01142
C 3.75071 0.73692 0.03278
C 2.51192 0.04629 -0.00177
C 4.97691 32.76561 0.04421
C 6.21855 31.9884 0.00088
C 6.20248 30.57466 0.00828
C 4.85057 29.88279 -0.02375
C 4.88376 28.44347 0.00558
C 6.06826 27.74445 -0.0059
C 6.12456 26.16158 -0.01386
C 4.91042 25.48693 -0.02805
C 4.96578 24.03249 0.00081
C 6.39518 21.19433 0.00245
C 4.93596 21.27537 0.02728
C 4.74188 19.87181 -0.00039
C 5.91437 19.23566 0.0064
C 6.07409 17.83934 0.00211
C 4.77465 17.00302 -0.00449
C 4.89775 15.65143 -0.01979
C 6.0934 14.96181 0.02784
C 6.11959 13.52758 -0.01977
C 4.81893 12.77105 -0.00561
C 4.82724 11.34799 0.00208
C 6.13483 10.78947 0.01707
C 3.69443 2.17816 0.01138
C 2.46694 2.81726 -0.00407
C 2.47964 4.23579 -0.01299
C 3.70941 5.01169 -0.0154
C 3.69548 30.6387 -0.00374
C 2.46595 29.93705 -0.0213
C 2.47261 28.43549 0.01116
C 3.67987 27.62635 -0.0005
C 3.6985 26.16434 -0.00018
C 2.42664 25.45282 0.01073
C 2.50503 24.0963 0.01984
C 3.76881 23.36618 0.00535
C 3.69014 21.97398 -0.00198
C 2.3803 21.22418 -0.00012
C 2.3906 19.93547 -0.04306
C 6.17114 9.3586 0.02769
C 3.63223 19.1068 -0.03672
C 2.40414 16.99913 0.00267
C 2.37291 15.53485 0.00787
C 3.63203 14.83999 0.02426
C 3.63308 13.47775 0.01218
C 2.42251 12.73569 -0.01471
C 2.46226 11.26422 -0.02827
C 3.68869 10.57837 0.01078
C 3.69049 9.22808 -0.00112
C 2.51961 8.56334 0.03345
C 2.48621 7.09084 0.00748
C 3.75337 6.42697 0.00662
C 3.60427 17.66399 0.01913
C 5.00366 8.58373 -0.03291
C 4.97099 7.20863 -0.04999
C 6.19454 6.45011 0.04505
C 8.65507 5.01719 -0.00094
C 7.41063 4.34568 0.02322
C 7.38019 2.86338 -0.00725
C 8.63833 2.10485 -0.05697
C 8.5695 0.7025 0.01087
C 7.39964 0.09195 -0.01343
C 9.81255 32.72953 0.00988
C 11.00693 32.0151 0.0276
C 10.97212 30.55115 0.01305
C 9.79509 29.79873 -0.00077
C 9.83322 28.31183 0.03368
C 8.59247 6.47238 -0.02566
C 11.09559 27.6819 -0.02929
C 9.99396 25.21423 -0.03337
C 10.76135 23.95929 0.01227
C 10.85981 22.29554 0.00873
C 9.8377 21.47842 -0.00049
C 9.6566 20.14307 0.00848
C 10.84176 19.30211 -0.01303
C 10.95515 17.9207 -0.01378
C 9.6891 17.2567 0.02635
C 9.76601 15.84563 0.0127
C 10.95731 15.06908 0.01396
C 11.00449 13.54459 0.01849
C 11.11488 26.22578 -0.00966
C 20.90901 31.99618 -0.05302
C 7.42189 7.28822 -0.03113
C 8.57839 9.37967 -0.00643
C 6.24786 5.07393 0.03284
C 4.95255 4.31237 -0.04307
C 4.97518 2.96012 0.03189
C 6.15648 2.22039 0.00031
C 6.19344 0.81586 -0.003
C 4.98802 0.08374 0.01402
C 7.39843 32.70717 0.02379
C 8.62919 31.96208 0.00907
C 8.6165 30.51367 0.00643
C 7.44346 29.81288 -0.01509
C 7.50524 28.28851 0.03267
C 7.36223 8.67476 0.017
C 8.6258 27.50415 0.02374
C 7.35474 25.53049 0.0073
C 7.09959 20.191 0.0174
C 8.35913 19.44063 0.03828
C 8.40437 17.97858 0.01226
C 7.26995 17.11306 -0.00279
C 7.3447 15.71951 0.01996
C 8.5473 15.05666 -0.03996
C 8.51609 13.62336 0.01465
C 7.35888 12.92682 -0.00074
C 7.35827 11.45293 -0.00518
C 8.58954 10.74543 0.0086
C 8.66203 25.93111 0.00402
C 20.79691 30.62051 0.00213
C 19.63723 29.82337 -0.00066
C 19.53247 28.4442 -0.00289
C 29.47597 15.58101 0.01705
C 30.6841 14.81749 -0.0405
C 30.70617 13.38656 -0.01303
C 29.44301 12.64913 -0.01461
C 29.53492 11.23299 -0.02155
C 30.73918 10.48426 -0.00944
C 30.73864 9.06995 -0.03735
C 29.5021 8.41428 -0.00971
C 29.47348 7.05496 0.01518
C 30.77775 6.36094 0.01908
C 30.7912 4.87664 0.07705
C 29.48309 4.20741 0.0103
C 29.52981 2.81965 0.02108
C 30.7263 2.02939 0.00716
C 30.75362 0.61372 0.00307
C 29.49621 34.05063 0.00346
C 31.92517 32.66379 0.01713
C 33.19485 32.01944 -0.01694
C 33.21853 30.5696 0.01428
C 31.98208 29.87661 -0.02142
C 31.96801 28.46719 0.0544
C 33.1484 27.6723 0.00026
C 33.1203 26.25472 0.00682
C 29.40715 17.00301 0.0101
C 30.6512 17.80317 -0.00669
C 30.697 19.19855 0.03531
C 29.46444 19.86978 0.01836
C 27.0177 11.26575 0.04185
C 28.27108 10.62694 0.00194
C 28.29891 9.19789 -0.00621
C 27.03236 8.46865 0.02611
C 26.96247 7.04146 0.02198
C 28.28732 6.40649 0.01094
C 28.29024 4.90688 0.00235
C 26.98725 4.22684 0.01495
C 27.05927 2.81845 0.01259
C 28.24328 2.147 0.01799
C 28.20054 0.66038 0.01699
C 31.89739 25.61723 -0.01779
C 27.0005 34.02025 -0.00416
C 30.72009 31.96305 0.04266
C 30.70698 30.59457 0.01324
C 29.55081 29.86707 0.0014
C 29.49111 28.48368 0.00924
C 30.70035 27.78244 0.02326
C 30.64328 26.29924 0.00261
C 29.49618 25.5948 0.03265
C 29.48107 24.2254 -0.02049
C 30.74472 23.4053 -0.01854
C 30.72632 21.95973 -0.01415
C 29.47101 21.273 -0.03039
C 29.50035 32.63756 0.01177
C 31.93269 24.17765 0.03794
C 33.14298 23.44229 0.01927
C 33.13221 22.04885 0.01574
C 34.43298 25.55468 -0.05239
C 34.354 24.16101 0.03076
C 1.13965 23.37151 0.00723
C 1.11089 21.99165 0.02712
C 34.30948 21.29156 -0.02213
C 34.40095 19.86333 0.01951
C 1.12562 19.12664 -0.01678
C 1.03031 17.7105 0.01223
C 34.30172 16.99556 0.00648
C 34.30572 15.51566 0.02114
C 1.09968 14.84176 -0.02957
C 1.23364 26.31283 -0.00598
C 1.23009 13.41179 0.00343
C 34.31768 11.25857 -0.02442
C 1.17883 10.60996 -0.00027
C 1.22183 9.18845 -0.00583
C 0.02229 8.4665 -0.02302
C 34.40168 7.069 -0.02849
C 1.24188 6.36429 0.02931
C 1.31543 4.95739 0.00628
C 0.06757 4.22005 -0.0345
C 34.41895 2.85957 -0.00931
C 1.25086 2.12403 -0.00939
C 1.29779 0.73145 -0.00468
C 34.41057 12.68649 -0.02656
C 26.99788 12.74568 0.02316
C 1.23878 27.72121 -0.00439
C 0.01101 29.84833 0.01831
C 31.90424 21.28588 -0.02383
C 32.02271 19.86454 -0.01429
C 33.19827 19.20328 -0.0136
C 33.06925 17.71728 0.00594
C 31.86914 17.00791 -0.02474
C 31.84009 15.57785 0.00369
C 33.02341 14.80968 0.00455
C 33.09099 13.38449 -0.00644
C 31.97312 12.58788 -0.01839
C 31.95431 11.23917 0.00137
C 33.2045 10.48781 0.00199
C 34.40269 28.39739 -0.01037
C 33.12555 9.16784 0.04381
C 31.92663 7.03676 0.01504
C 33.24955 6.32859 -0.00069
C 33.3011 4.93475 0.04926
C 32.04908 4.23384 -0.03838
C 31.98716 2.86896 0.00349
C 33.203 2.09322 -0.00323
C 33.29989 0.69002 -0.00841
C 32.03186 0.00612 0.0001
C 34.41548 32.6452 -0.02927
C 1.20207 31.95807 -0.01404
C 1.22448 30.5658 0.01027
C 31.96055 8.36517 0.02806
C 3.69512 32.04464 -0.00141
C 28.18902 13.38925 0.01257
C 27.046 15.4771 -0.00294
C 23.33672 31.89412 0.00654
C 23.24844 30.50246 -0.00703
C 21.94648 29.81789 -0.04076
C 21.99031 28.38019 -0.00652
C 23.28414 27.71125 0.0058
C 23.30768 26.33418 -0.00865
C 22.10623 25.60187 0.00675
C 22.09839 24.20468 -0.00311
C 23.35817 23.40275 0.00742
C 23.26498 22.00967 -0.01594
C 22.05073 21.33257 0.0106
C 22.158 19.8729 -0.01154
C 23.30284 19.11538 -0.01721
C 23.40152 17.7524 -0.02422
C 22.06761 16.97861 0.01277
C 22.1051 15.57819 0.00096
C 23.3793 14.97604 -0.01527
C 23.29366 13.48765 0.01087
C 22.09936 12.74368 0.00199
C 22.12702 11.36082 0.01511
C 23.31932 10.62352 -0.00478
C 23.37583 9.24644 -0.01662
C 22.05299 8.60311 -0.01185
C 22.17211 32.66674 -0.04422
C 19.61844 0.03217 -0.02957
C 20.83378 0.70493 -0.00831
C 20.8624 2.16272 0.00364
C 20.77564 27.67645 0.00028
C 20.81882 26.34632 -0.02213
C 19.63418 25.58919 0.03698
C 19.60845 24.1345 -0.00109
C 20.85793 23.52294 -0.00491
C 20.85286 21.99368 0.03338
C 19.74882 21.30531 -0.0258
C 19.71864 19.89343 -0.0331
C 20.87562 19.1087 -0.00316
C 20.92869 17.73982 0.02188
C 19.7017 17.0763 -0.01979
C 22.07944 7.18633 0.01126
C 19.68373 15.52931 0.02691
C 20.80936 13.42873 0.01452
C 19.56309 12.84414 0.04892
C 19.56684 11.40123 -0.00111
C 20.82185 10.71017 -0.03557
C 20.82532 9.32781 0.03754
C 19.64606 8.55221 0.01739
C 19.66065 7.04675 0.00755
C 20.87667 6.40593 -0.0054
C 20.89012 5.02513 0.00667
C 19.69725 4.33965 0.00143
C 19.65992 2.92687 -0.017
C 20.91563 14.84871 -0.01581
C 23.25744 6.36934 0.01852
C 23.34493 4.97566 -0.00381
C 22.07977 4.22256 0.03046
C 24.47516 7.0123 -0.00285
C 25.80612 6.37963 -0.009
C 25.79207 4.98219 -0.01199
C 24.52503 4.25489 -0.00229
C 24.57078 2.80146 -0.00938
C 25.76707 2.12506 -0.0264
C 25.7921 0.73848 -0.01154
C 24.46415 34.06376 0.00684
C 27.0092 32.60881 -0.01052
C 28.26579 31.96293 -0.01679
C 28.24529 30.54736 0.00367
C 24.56243 8.51445 0.01423
C 27.02621 29.93731 0.04306
C 28.2927 27.82164 0.00195
C 28.21713 26.373 -0.00802
C 27.01993 25.66875 -0.00218
C 27.04373 24.17563 -0.01654
C 28.25723 23.5187 -0.00037
C 28.28991 22.02058 -0.0032
C 26.99006 21.42918 0.00622
C 27.17417 20.04811 -0.02815
C 28.31847 19.19886 -0.00942
C 28.21293 17.69313 0.00487
C 26.98644 16.93259 0.00826
C 26.94628 28.54867 0.00996
C 28.23775 14.78091 0.00152
C 25.80581 9.15812 0.02555
C 24.51117 11.31859 0.00135
C 22.07397 2.76422 0.0296
C 23.28771 2.13048 0.03374
C 23.2929 0.6913 -0.02845
C 21.98698 34.06478 -0.03213
C 24.49359 32.69619 0.02239
C 25.70368 32.04333 0.01153
C 25.6802 30.53723 0.02734
C 24.48531 29.78147 -0.0055
C 24.48481 28.35253 0.01515
C 25.74872 27.74103 -0.00225
C 25.77242 26.32199 0.00071
C 25.80813 10.67482 0.03102
C 24.59819 25.61344 -0.01107
C 25.77718 23.52349 -0.01971
C 25.80861 22.07976 -0.02118
C 24.55052 21.26816 0.00733
C 24.62495 19.87426 -0.00178
C 25.876 19.18843 0.00768
C 25.82457 17.76585 -0.0276
C 24.58337 17.13981 0.03005
C 24.59956 15.67031 -0.04078
C 25.79474 14.84831 0.02117
C 25.8026 13.44342 0.02737
C 24.53412 12.72771 -0.00498
C 24.51023 24.2008 -0.01586
C 2.50549 32.65323 -0.03951
