331
Graphene
C 0.01217 0.02991 0.01295
C 13.57023 17.72422 -0.02815
C 12.27515 17.11267 -0.04147
C 12.28698 15.67257 -0.05302
C 13.53773 14.8854 0.00213
C 13.55997 13.52278 -0.00066
C 12.32316 12.80015 -0.00289
C 12.28899 11.3311 0.00028
C 13.48359 19.15412 0.03505
C 13.52613 10.5538 -0.02213
C 12.29019 8.45818 -0.00109
C 12.34411 7.0989 -0.00491
C 13.55289 6.34926 0.03338
C 13.5736 4.95219 -0.0258
C 12.33274 4.23106 -0.0331
C 12.24902 2.91773 -0.00316
C 13.53171 2.11065 0.02188
C 13.52588 9.1711 0.03698
C 12.23577 19.8556 0.01443
C 13.56804 21.93137 0.00979
C 13.46056 26.26908 -0.00481
C 11.06484 10.67863 0.01965
C 11.07621 9.16538 0.02058
C 9.79802 8.56456 -0.01957
C 9.77043 7.15425 -0.0108
C 11.0926 6.41876 -0.00368
C 11.09545 4.96615 -0.02696
C 9.85372 4.27034 -0.00114
C 9.84919 2.85949 0.00228
C 11.04562 2.14646 0.00798
C 11.05516 0.72246 0.00422
C 9.86495 0.00983 0.0351
C 12.29935 32.7203 -0.03113
C 13.50549 31.95258 0.02098
C 13.52433 30.56951 0.01848
C 12.3197 29.77339 -0.00619
C 12.30949 28.41754 -0.02162
C 13.52541 27.71536 0.00889
C 13.60966 0.70063 -0.01979
C 12.28365 34.0585 0.02691
C 14.75255 32.68962 -0.01581
C 16.00466 31.91485 0.01452
C 14.68192 4.23327 -0.00311
C 14.78835 2.83093 0.00742
C 16.08733 2.10239 -0.01594
C 15.99424 0.71334 0.0106
C 14.78808 0.01946 -0.01154
C 17.17031 32.74438 -0.01721
C 18.40652 31.97118 -0.02422
C 18.42214 30.46564 0.01277
C 17.19874 29.76957 0.00096
C 17.21569 28.43634 -0.01527
C 18.45396 27.64229 0.01087
C 18.42091 26.26444 0.00199
C 17.18989 25.5714 0.01511
C 17.23116 24.12075 -0.00478
C 18.4798 23.48372 -0.01662
C 18.44812 21.97157 -0.01185
C 17.25147 21.27916 0.01126
C 14.77312 7.13823 0.00675
C 9.88342 11.33252 -0.03682
C 14.69287 8.4694 -0.00865
C 14.7843 12.76573 -0.00652
C 16.00889 30.47722 0.04892
C 14.79048 29.79495 -0.00111
C 14.7416 28.42265 -0.03557
C 15.96258 27.68629 0.03754
C 15.96243 26.26872 0.01739
C 14.66323 25.58676 0.00755
C 14.76521 24.15961 -0.0054
C 15.96035 23.44768 0.00667
C 16.03638 21.96674 0.00143
C 14.7672 21.30346 -0.017
C 14.77406 19.91548 0.00364
C 15.99441 19.20832 -0.00831
C 16.02639 17.77664 -0.02957
C 14.76423 17.05988 -0.04422
C 14.75723 15.60761 0.00654
C 15.96192 14.852 -0.00703
C 15.99043 13.47877 -0.04076
C 14.79535 11.37483 0.0058
C 17.19206 19.85961 0.01852
C 9.79743 12.78414 0.00052
C 11.02564 14.91862 -0.02813
C 2.42902 8.52236 -0.014
C 3.62842 0.7102 0.02147
C 2.46803 0.02269 0.00373
C 4.96417 32.66561 -0.00191
C 6.15384 31.93691 0.00438
C 6.12787 30.48449 0.01291
C 4.89771 29.79968 0.00093
C 3.71289 9.17048 -0.01118
C 4.88308 28.36658 0.00057
C 4.95911 25.55617 -0.00334
C 4.9692 21.33207 0.02339
C 4.91897 19.9568 0.01641
C 6.20475 19.1362 -0.00719
C 6.1322 17.78257 0.01364
C 4.91482 17.08237 -0.01062
C 4.91747 15.67145 -0.00033
C 6.18455 27.67415 -0.01634
C 3.66844 10.69124 -0.00131
C 2.41888 11.40676 -0.02896
C 2.39524 12.79208 -0.01004
C 3.68981 30.51631 0.03007
C 2.4595 29.8611 -0.00095
C 2.456 28.36801 0.01572
C 3.66793 27.71415 -0.04848
C 3.72641 26.26671 -0.00892
C 2.44281 25.57999 -0.01362
C 2.39571 24.21269 -0.0008
C 3.70539 23.47091 0.0288
C 3.70639 22.01762 0.00393
C 2.43896 21.30254 0.00895
C 2.42567 19.91935 0.00685
C 3.72382 19.11233 0.02888
C 3.73177 17.76907 -0.00482
C 2.42742 17.00734 -0.01384
C 2.52907 15.59233 0.03693
C 3.69499 14.88623 0.01745
C 3.6183 13.47352 0.00488
C 6.11394 14.9904 0.03589
C 6.14755 13.49064 -0.02759
C 4.94451 12.77077 0.0402
C 4.89033 11.37984 0.00572
C 7.41674 8.50446 0.01877
C 7.37348 7.06809 0.01363
C 8.64557 6.35756 -0.02162
C 8.51038 4.9308 0.00415
C 7.37331 4.33298 -0.0014
C 7.3323 2.89546 0.02162
C 8.59557 2.12523 0.0076
C 8.63451 0.7363 0.01241
C 7.38397 33.99626 -0.01454
C 9.86464 32.68034 0.01945
C 11.07735 32.01411 0.01416
C 11.05756 30.56333 0.03542
C 9.8612 29.82683 0.02299
C 11.06302 19.12526 0.00244
C 11.05862 17.73932 -0.01717
C 9.89124 17.02347 0.05265
C 9.83552 15.57941 -0.01952
C 8.60085 9.26015 -0.00925
C 11.07818 13.53228 0.00374
C 8.56621 10.65646 0.00444
C 7.42199 12.7752 0.02894
C 6.17271 10.67033 0.03592
C 6.15535 9.27586 0.00406
C 4.88723 8.41499 0.00943
C 6.12976 2.12119 0.02841
C 6.10618 0.7246 -0.01111
C 4.86476 34.06974 -0.01275
C 7.3884 32.64763 0.00985
C 8.5995 31.98284 -0.02245
C 8.58525 30.5636 -0.00428
C 7.40543 29.76445 0.03101
C 7.30925 28.39629 -0.01536
C 8.58685 19.18525 -0.02689
C 8.66096 17.80122 -0.01046
C 7.39965 17.02247 -0.00891
C 7.39911 15.6234 0.02819
C 8.63859 14.94465 0.00165
C 8.60399 13.50822 -0.02971
C 7.3402 11.41291 -0.01789
C 3.74321 31.93011 0.00054
C 18.45337 19.19185 -0.00381
C 17.22086 17.05818 0.0296
C 32.01095 29.87151 0.00026
C 31.92423 28.47045 0.00682
C 33.17549 27.7194 -0.01779
C 33.22183 26.29282 0.03794
C 31.9342 25.54669 0.01927
C 31.9904 24.15765 0.01574
C 33.23683 23.42754 -0.02383
C 33.24227 30.51125 0.0544
C 33.18688 22.05019 -0.01429
C 31.92553 19.92749 0.00594
C 33.21407 19.18711 -0.02474
C 33.16512 17.7267 0.00369
C 31.95061 17.05303 0.00455
C 31.9862 15.58483 -0.00644
C 33.21162 14.89456 -0.01839
C 33.15393 13.51576 0.00137
C 31.94792 21.32827 -0.0136
C 33.26216 31.99052 -0.02142
C 32.00006 32.61691 0.01428
C 29.51257 0.01313 -0.01694
C 30.71119 26.25689 0.01705
C 29.54605 25.56788 -0.0405
C 29.4921 24.17641 -0.01303
C 30.66298 23.43758 -0.01461
C 30.70937 22.01736 -0.02155
C 29.4962 21.24883 -0.00944
C 29.51866 19.93796 -0.03735
C 30.68608 19.17221 -0.00971
C 30.75777 17.78317 0.01518
C 29.52575 17.02967 0.01908
C 29.49656 15.62541 0.07705
C 30.71737 14.91021 0.0103
C 30.7912 13.52494 0.02108
C 30.77583 4.99173 0.00716
C 29.47268 2.78598 0.00307
C 30.72788 2.12071 0.00346
C 30.71149 0.70178 0.01713
C 31.88617 12.80933 0.00199
C 32.00938 11.36138 0.04381
C 33.215 10.61126 0.02806
C 33.22477 9.21113 0.01504
C 34.42119 19.89644 0.01223
C 1.22632 19.1718 0.00648
C 1.23326 17.74145 0.02114
C 34.4168 17.02661 -0.02957
C 34.42967 15.61125 0.00343
C 1.21517 14.92027 -0.02656
C 1.24329 13.54008 -0.02442
C 34.42156 12.73775 -0.00027
C 0.03387 11.32595 -0.00583
C 1.23838 10.66957 -0.02302
C 1.22168 9.25667 -0.02849
C 34.42764 8.44748 0.02931
C 34.36704 7.10576 0.00628
C 0.03091 4.19254 -0.0345
C 34.42178 2.79705 -0.00931
C 1.22492 2.15285 -0.00939
C 1.22376 0.69763 -0.00468
C 34.40712 21.3394 -0.01678
C 30.72274 27.6947 0.0101
C 1.2359 21.96912 0.01951
C 0.01837 24.14559 0.02712
C 31.97295 8.52468 -0.00069
C 32.03254 7.12352 0.04926
C 33.20455 6.32951 -0.03838
C 33.23543 4.98326 0.00349
C 31.99539 4.2316 -0.00323
C 31.94716 2.80344 -0.00841
C 33.20641 2.10909 0.0001
C 33.19756 0.71712 -0.02927
C 31.95692 0.01826 -0.01404
C 0.02287 32.71795 0.01027
C 1.20901 31.94905 0.01831
C 1.2668 30.5878 -0.01037
C 34.40776 29.82141 -0.00439
C 0.00891 28.40295 -0.00598
C 1.22103 27.70295 -0.05239
C 1.26019 26.32114 0.03076
C 0.02915 25.57498 0.00723
C 1.19405 23.39485 -0.02213
C 18.4488 17.76188 0.03046
C 29.52097 28.39619 -0.00669
C 30.77591 30.57062 0.01836
C 19.64423 34.03788 0.02737
C 22.13109 32.67155 -0.00498
C 23.35644 31.95675 0.00135
C 23.41866 30.52671 0.03102
C 22.06917 29.77231 0.02555
C 22.08853 28.4127 0.01423
C 23.3601 27.64049 -0.00285
C 20.90109 0.69693 0.02117
C 23.36463 26.21173 -0.009
C 22.11531 24.19925 -0.00229
C 23.38852 23.48507 -0.00938
C 23.3614 22.02571 -0.0264
C 22.15522 21.30404 -0.01154
C 22.08938 19.86025 0.00684
C 23.30328 19.16388 -0.01052
C 23.39589 17.73461 -0.01679
C 22.17919 25.50889 -0.01199
C 19.65008 17.01942 -0.04078
C 20.8639 17.78558 0.03005
C 20.89766 19.22203 -0.0276
C 17.18582 15.66909 0.03374
C 17.19952 2.83215 -0.02845
C 18.4123 0.69417 -0.03213
C 17.23038 0.07562 0.02239
C 19.7048 32.65001 0.01153
C 20.89529 31.93352 0.02734
C 20.87296 30.49209 -0.0055
C 19.64937 29.81834 0.01515
C 19.64631 28.41769 -0.00225
C 20.87145 27.77737 0.00071
C 20.9118 26.21409 -0.01107
C 19.68285 25.53008 -0.01586
C 19.62567 24.14062 -0.01971
C 20.88382 23.44903 -0.02118
C 20.92311 22.01684 0.00733
C 19.61241 21.22894 -0.00178
C 19.62647 19.87057 0.00768
C 22.1345 17.07778 0.00367
C 22.11462 34.06729 0.04306
C 24.55573 32.68765 0.00996
C 25.85733 31.92439 0.00195
C 28.28811 27.67826 0.01495
C 28.31984 26.29043 0.01259
C 27.04489 25.53824 0.01799
C 27.06414 24.07979 0.01699
C 28.27076 23.40284 -0.00416
C 28.23493 21.99416 0.01177
C 27.07156 21.28211 0.04266
C 27.09259 19.85106 0.01324
C 28.27707 19.19734 0.0014
C 28.21038 17.73474 0.00924
C 27.02596 16.99694 0.02326
C 28.26465 14.856 0.00261
C 28.28166 2.13105 0.03265
C 28.31766 0.66123 -0.02049
C 27.08563 0.00618 -0.01854
C 29.43497 32.68734 -0.01415
C 30.71275 31.91673 -0.03039
C 27.07355 28.38713 0.00235
C 29.51284 29.79583 0.03531
C 27.10535 29.77586 0.01094
C 28.32573 31.92772 0.02611
C 25.86746 30.52775 -0.00802
C 24.5954 29.84542 -0.00218
C 24.608 28.34665 -0.01654
C 25.79367 27.65955 -0.00037
C 25.82441 26.29812 -0.0032
C 24.63196 25.50933 0.00622
C 24.67018 24.09391 -0.02815
C 25.81036 23.37696 -0.00942
C 25.81316 21.98263 0.00487
C 24.59153 21.30404 0.00826
C 24.57945 19.86602 -0.00294
C 25.86073 19.17868 0.00152
C 25.80596 17.7284 0.01257
C 24.59378 17.04888 0.02316
C 25.8435 0.66499 0.04185
C 24.68433 0.02469 0.00194
C 27.08017 32.70006 -0.00621
C 28.291 30.55778 0.02198
C 2.49748 32.56332 -0.00494
