337
Graphene
C 34.41176 34.05955 0.01295
C 11.06636 4.98435 -0.00481
C 9.73297 4.3428 0.00979
C 9.79984 2.88768 0.01443
C 11.08845 2.11872 0.03505
C 11.06615 0.71949 -0.02815
C 9.78658 0.04482 -0.04147
C 12.33459 32.61662 -0.05302
C 13.48321 31.79835 0.00213
C 13.2844 30.34639 -0.00066
C 12.00517 29.6163 -0.00289
C 13.53035 13.50127 0.00028
C 12.27802 12.87109 -0.02213
C 12.39042 11.3431 0.03698
C 13.60699 10.58602 -0.00109
C 13.57404 9.26049 -0.00491
C 12.38233 8.55202 0.03338
C 12.29017 7.14452 -0.0258
C 11.06037 6.42278 0.00889
C 13.54049 6.40574 -0.0331
C 9.84488 7.19117 -0.02162
C 11.12982 9.24895 0.01848
C 8.57056 5.03802 -0.02813
C 7.29724 4.32169 0.00374
C 7.3305 2.94973 0.00052
C 8.58254 2.166 -0.03682
C 8.57704 0.75141 0.01965
C 7.38123 0.09904 0.02058
C 9.86478 32.75686 -0.01957
C 11.07703 31.98775 -0.0108
C 10.96268 30.5295 -0.00368
C 9.72189 29.96715 -0.02696
C 9.91775 28.52794 -0.00114
C 9.79308 15.60057 0.00228
C 10.86935 15.00571 0.00798
C 11.13064 13.56264 0.00422
C 9.89978 12.84318 0.0351
C 9.94227 11.4043 -0.03113
C 11.15729 10.60838 0.02098
C 9.86696 8.56003 -0.00619
C 8.62788 6.52442 -0.01952
C 13.58687 5.0071 -0.00316
C 12.22321 2.83672 -0.01979
C 18.51619 13.63506 0.0058
C 17.34766 12.75907 -0.00865
C 17.26684 11.29152 0.00675
C 18.47215 10.63745 -0.00311
C 18.47908 9.27725 0.00742
C 17.18492 8.65959 -0.01594
C 17.13959 7.155 0.0106
C 18.39661 6.4692 -0.01154
C 18.40879 5.04634 -0.01721
C 17.18265 4.17848 -0.02422
C 17.16433 2.74688 0.01277
C 18.42071 2.04274 0.00096
C 18.4121 0.60693 -0.01527
C 17.2172 34.0771 0.01087
C 19.58339 32.59122 0.00199
C 21.20281 15.0902 0.01511
C 20.9926 13.58585 -0.00478
C 18.43906 32.04626 -0.00652
C 12.28883 4.30184 0.02188
C 17.18713 32.6145 -0.04076
C 15.97912 0.54281 0.00654
C 13.51892 2.02184 0.02691
C 13.4899 0.64844 -0.01581
C 12.25833 34.07525 0.01452
C 14.73898 32.54636 0.04892
C 15.9631 31.95622 -0.00111
C 15.74751 30.6013 -0.03557
C 14.67395 29.84204 0.03754
C 16.01771 12.81755 0.01739
C 14.79613 13.39776 0.00755
C 16.05753 9.40816 -0.0054
C 14.87332 8.51911 0.00667
C 14.73809 7.08965 0.00143
C 15.96234 6.4721 -0.017
C 15.97533 4.9471 0.00364
C 14.72895 4.22944 -0.00831
C 14.7563 2.75624 -0.02957
C 15.99553 2.02571 -0.04422
C 14.71237 33.96995 -0.00703
C 7.27366 7.19306 0.05265
C 7.30684 8.59997 -0.01717
C 8.6331 9.24739 0.00244
C 2.47763 8.50447 0.01745
C 2.39153 7.0652 0.00488
C 3.61046 6.38704 -0.01004
C 3.61453 5.00607 -0.02896
C 2.4582 4.24027 -0.00131
C 2.43745 2.92594 -0.01118
C 3.6727 2.17792 -0.014
C 3.68778 0.76997 0.02147
C 2.49965 0.08434 0.00373
C 4.96499 32.68286 -0.00191
C 6.17412 32.09455 0.00438
C 6.20807 30.61091 0.01291
C 4.92396 29.89772 0.00093
C 4.92965 28.46646 0.00057
C 6.21793 27.72496 -0.01634
C 6.18709 26.19935 -0.00334
C 4.96191 25.51703 0.02339
C 3.6606 9.25474 0.03693
C 4.94904 24.11118 0.01641
C 3.68926 10.70869 -0.01384
C 2.35561 12.8427 0.02888
C 3.70066 30.56543 0.01396
C 2.39841 29.94044 0.01849
C 2.41019 28.50749 -0.01142
C 3.69341 27.72664 -0.00562
C 3.68112 26.32989 -0.00494
C 2.45955 25.62274 0.00054
C 2.44838 24.12868 0.03007
C 3.65889 23.41516 -0.00095
C 3.64657 21.99876 0.01572
C 2.47686 21.23039 -0.04848
C 2.41636 19.8788 -0.00892
C 3.64274 19.1888 -0.01362
C 3.6994 17.76193 -0.0008
C 2.42414 17.02553 0.0288
C 2.43172 15.56772 0.00393
C 3.68876 14.89416 0.00895
C 3.64208 13.39847 0.00685
C 2.45618 11.316 -0.00482
C 6.15656 23.40183 -0.00719
C 6.20582 22.01055 0.01364
C 4.91396 21.26889 -0.01062
C 8.51096 30.70053 0.02894
C 7.32805 29.80156 -0.01789
C 7.43844 28.46216 0.00444
C 8.70251 27.67944 -0.00925
C 8.46678 26.36088 0.01877
C 7.4053 25.52646 0.01363
C 7.30013 24.07272 -0.02162
C 7.25576 21.11237 0.00415
C 7.39573 19.92498 -0.0014
C 8.51579 17.86587 0.02162
C 7.39768 17.07008 0.0076
C 7.2968 15.58388 0.01241
C 8.53554 14.97834 -0.01454
C 8.71859 13.52125 0.01945
C 7.44056 12.73216 0.01416
C 7.45198 11.34274 0.03542
C 8.68371 10.71148 0.02299
C 8.57105 32.09889 -0.02971
C 7.35338 32.80875 0.00165
C 4.98221 0.05466 0.02819
C 6.16464 0.78798 -0.00891
C 4.86531 19.81885 -0.00033
C 6.1102 19.10583 0.03589
C 6.07255 17.72265 -0.02759
C 4.84704 16.98587 0.0402
C 4.91658 15.60573 0.00572
C 6.14815 14.92697 0.03592
C 6.19011 13.51294 0.00406
C 4.97221 12.76522 0.00943
C 19.66689 12.8668 -0.01662
C 4.90712 11.36785 0.02841
C 6.10878 9.25276 -0.01275
C 4.85459 8.55388 0.00985
C 4.73051 7.14977 -0.02245
C 6.03237 6.48937 -0.00428
C 6.07692 5.0296 0.03101
C 4.83199 4.31858 -0.01536
C 4.91869 2.86419 -0.02689
C 6.11839 2.19799 -0.01046
C 6.12964 10.72877 -0.01111
C 3.70704 31.99135 0.0127
C 19.6773 11.39495 -0.01185
C 20.93143 9.24717 0.01852
C 32.02003 28.39704 0.0544
C 33.19084 27.69155 0.00026
C 33.23698 26.31363 0.00682
C 32.03224 25.53171 -0.01779
C 32.0697 24.12459 0.03794
C 33.19699 23.38151 0.01927
C 33.17685 21.99925 0.01574
C 32.02744 21.2324 -0.02383
C 32.00047 19.85812 -0.01429
C 33.20795 19.2044 -0.0136
C 33.13004 17.71183 0.00594
C 31.86933 16.99265 -0.02474
C 31.86778 15.57215 0.00369
C 33.08489 14.78061 0.00455
C 33.06485 13.36054 -0.00644
C 31.80387 12.55704 -0.01839
C 31.93973 11.08098 0.00137
C 31.9176 29.80141 -0.02142
C 33.23166 10.58208 0.00199
C 33.12118 30.54773 0.01428
C 31.8958 32.65278 0.01713
C 30.69063 19.29052 0.0101
C 30.64037 17.82861 0.01705
C 29.41608 17.0511 -0.0405
C 29.46347 15.52232 -0.01303
C 30.71111 14.79958 -0.01461
C 30.59239 13.32074 -0.02155
C 29.30346 12.6228 -0.00944
C 30.95834 9.51113 -0.03735
C 29.64551 8.77378 -0.00971
C 29.55312 7.29754 0.01518
C 30.69222 6.43975 0.01908
C 30.65613 4.97191 0.07705
C 29.44191 4.28195 0.0103
C 29.458 2.85064 0.02108
C 30.7196 2.11107 0.00716
C 30.68023 0.67035 0.00307
C 29.44289 0.03527 0.00346
C 33.14875 31.92841 -0.01694
C 29.46259 19.96463 -0.00669
C 33.34695 9.11818 0.04381
C 32.0034 7.087 0.01504
C 1.11834 17.72331 0.01223
C 34.27765 17.00885 0.00648
C 34.35425 15.60227 0.02114
C 1.18009 14.95362 -0.02957
C 1.14091 13.53143 0.00343
C 34.35644 12.79594 -0.02656
C 0.00442 11.35245 -0.02442
C 1.26062 10.60744 -0.00027
C 1.26851 9.2287 -0.00583
C 0.07291 8.49003 -0.02302
C 34.43263 7.04146 -0.02849
C 1.18246 6.36446 0.02931
C 1.22251 4.92621 0.00628
C 34.37429 4.26119 -0.0345
C 34.35909 2.81148 -0.00931
C 1.2189 2.12353 -0.00939
C 1.21677 0.73166 -0.00468
C 1.13631 19.21033 -0.01678
C 32.00256 8.54154 0.02806
C 34.41669 19.93503 0.01951
C 1.24077 22.00149 0.02712
C 33.21256 6.35307 -0.00069
C 33.17889 4.94223 0.04926
C 31.9114 4.26258 -0.03838
C 31.87345 2.78469 0.00349
C 33.11427 2.1297 -0.00323
C 33.17466 0.7285 -0.00841
C 31.87656 34.07194 0.0001
C 0.02289 32.64438 -0.02927
C 1.2297 32.0068 -0.01404
C 1.14088 30.63669 0.01027
C 34.36555 29.90539 0.01831
C 34.36811 28.54169 -0.01037
C 1.17217 27.90082 -0.00439
C 1.22539 26.38145 -0.00598
C 0.03905 25.5917 -0.05239
C 34.42509 24.11315 0.03076
C 1.23115 23.44676 0.00723
C 34.40529 21.3197 -0.02213
C 29.38815 21.38455 0.03531
C 30.83535 21.97697 0.01836
C 30.85408 23.39917 -0.03039
C 23.23955 4.95485 0.03005
C 22.07973 4.25291 -0.04078
C 22.08288 2.84078 0.02117
C 23.24754 2.14985 0.02737
C 23.28408 0.7337 -0.00498
C 22.19971 33.94628 0.00135
C 24.51434 32.66008 0.03102
C 25.63884 32.03375 0.02555
C 26.02478 19.17541 0.01423
C 25.50138 17.75344 -0.00285
C 24.28263 16.99922 -0.009
C 24.54478 15.65769 -0.01199
C 25.83252 14.97639 -0.00229
C 25.73339 13.55969 -0.00938
C 24.5928 12.78616 -0.0264
C 24.51243 11.34383 -0.01154
C 25.7681 10.62101 0.00684
C 23.30099 6.40108 -0.0276
C 25.86141 9.17972 -0.01052
C 22.11106 7.10946 0.00768
C 23.30663 9.23024 0.00733
C 19.66673 8.60074 -0.00381
C 19.66144 7.15412 0.03046
C 20.83655 6.39577 0.0296
C 20.9164 4.99928 0.03374
C 19.64516 4.35149 -0.02845
C 19.61229 2.7748 -0.03213
C 20.8754 2.07129 0.02239
C 20.83667 0.71322 0.01153
C 19.68802 0.00696 0.02734
C 22.41094 32.50351 -0.0055
C 22.8006 16.99891 0.01515
C 22.23372 15.93589 -0.00225
C 23.41715 14.86336 0.00071
C 23.37251 13.48762 -0.01107
C 22.14218 12.85896 -0.01586
C 22.13825 11.42034 -0.01971
C 23.27915 10.68812 -0.02118
C 22.10647 8.49566 -0.00178
C 24.54447 8.54519 -0.01679
C 24.60169 7.10302 0.00367
C 25.7785 6.40162 0.04306
C 27.04134 7.18073 0.00235
C 28.32694 6.48002 0.01495
C 28.21782 4.97993 0.01259
C 26.96068 4.23503 0.01799
C 27.06065 2.7801 0.01699
C 28.27318 2.07978 -0.00416
C 28.24499 0.66827 0.01177
C 26.99243 34.04918 0.04266
C 29.50175 32.70093 0.01324
C 30.67456 31.93574 0.0014
C 30.61069 30.45651 0.00924
C 29.32735 29.68453 0.02326
C 29.42219 28.17712 0.00261
C 30.71123 27.69911 0.03265
C 30.80514 26.27648 -0.02049
C 29.71531 25.3187 -0.01854
C 29.45044 24.07989 -0.01415
C 27.13998 8.62001 0.01094
C 28.34655 9.43025 0.02198
C 28.29895 10.95125 0.02611
C 26.95458 11.41532 -0.00621
C 25.76737 4.90236 0.00996
C 24.54997 4.17936 0.00195
C 24.52084 2.78984 -0.00802
C 25.8285 2.07153 -0.00218
C 25.82341 0.67213 -0.01654
C 24.53236 0.04854 -0.00037
C 27.05488 32.63645 -0.0032
C 28.25897 31.83782 0.00622
C 20.93163 10.68597 0.01126
C 28.17519 30.46439 -0.02815
C 27.00341 19.94846 0.00487
C 28.30448 19.20309 0.00826
C 28.18345 17.76493 -0.00294
C 26.88405 17.08931 0.00152
C 26.91439 15.7476 0.01257
C 28.20182 14.9674 0.02316
C 28.19826 13.4733 0.04185
C 26.88266 12.82956 0.00194
C 28.33475 22.29495 -0.00942
C 2.4691 32.7862 0.02635
