427
Graphene
C 0.02202 0.02323 0.01295
C 12.35355 21.27486 -0.02759
C 12.2556 19.93931 0.0402
C 13.51069 19.20448 0.00572
C 13.53508 17.74649 0.03592
C 12.33186 17.08766 0.00406
C 12.30893 15.64007 0.00943
C 13.46434 14.88469 0.02841
C 13.47766 13.47649 -0.01111
C 12.26047 12.70473 -0.01275
C 12.29576 11.34167 0.00985
C 13.57062 22.04026 0.03589
C 13.55247 10.63037 -0.02245
C 12.332 8.4992 0.03101
C 12.32815 7.0677 -0.01536
C 13.50147 6.46264 -0.02689
C 13.55367 4.95666 -0.01046
C 12.32907 4.19657 -0.00891
C 12.26295 2.80111 0.02819
C 13.58613 2.07057 0.00165
C 13.48252 0.69523 -0.02971
C 12.28321 0.03357 0.02894
C 14.72994 32.62118 -0.01789
C 13.49176 9.28088 -0.00428
C 13.45456 23.49167 -0.00033
C 12.32941 24.22487 -0.01062
C 12.31691 25.59674 0.01364
C 11.08417 19.17818 0.02888
C 11.07849 17.75764 -0.00482
C 9.8081 17.04242 -0.01384
C 9.86093 15.60953 0.03693
C 11.08987 14.92525 0.01745
C 11.06051 13.56743 0.00488
C 9.79292 12.81046 -0.01004
C 9.82413 11.44851 -0.02896
C 11.09147 10.60856 -0.00131
C 11.09426 9.20587 -0.01118
C 9.85933 8.54559 -0.014
C 9.90718 7.10297 0.02147
C 11.04715 6.34663 0.00373
C 11.07587 5.00675 -0.00191
C 9.88051 4.22756 0.00438
C 9.77725 2.83655 0.01291
C 11.09317 2.1161 0.00093
C 11.14496 0.71771 0.00057
C 9.84921 0.03434 -0.01634
C 12.33339 32.67936 -0.00334
C 13.5254 32.07442 0.02339
C 12.28788 29.82417 0.01641
C 12.29603 28.38535 -0.00719
C 14.73784 24.08822 0.00444
C 15.98501 23.49896 -0.00925
C 15.99172 21.97491 0.01877
C 14.73604 21.3132 0.01363
C 18.43023 17.77106 0.00798
C 17.21479 17.03681 0.00422
C 17.26701 15.67014 0.0351
C 18.4434 14.86077 -0.03113
C 18.46039 13.47516 0.02098
C 17.23368 12.75526 0.01848
C 17.24505 11.32071 -0.00619
C 18.40265 10.6641 -0.02162
C 18.42181 9.22263 0.00889
C 17.22936 8.47724 -0.00481
C 17.22928 7.06738 0.00979
C 18.42936 6.42739 0.01443
C 18.39934 4.95443 0.03505
C 17.16754 4.27131 -0.02815
C 17.15816 2.89853 -0.04147
C 18.42269 2.17852 -0.05302
C 18.42327 0.7281 0.00213
C 17.24384 34.01924 -0.00066
C 19.69084 32.67424 -0.00289
C 20.93287 31.95701 0.00028
C 20.93554 30.57103 -0.02213
C 20.96157 26.29687 0.03698
C 19.68388 24.10267 -0.00109
C 18.45148 19.137 0.00228
C 9.8111 19.86358 0.00685
C 17.20278 19.86653 -0.00114
C 18.49637 22.02747 -0.00368
C 14.72088 19.87074 -0.02162
C 15.9389 19.1841 0.00415
C 15.94356 17.77795 -0.0014
C 14.75398 17.03161 0.02162
C 14.70133 15.60817 0.0076
C 15.98804 14.92215 0.01241
C 16.03132 13.45343 -0.01454
C 14.72587 12.7755 0.01945
C 14.74132 11.32467 0.01416
C 15.9455 10.63183 0.03542
C 16.01413 9.20892 0.02299
C 14.72537 8.49654 0.00244
C 14.7887 7.08508 -0.01717
C 16.04161 6.38451 0.05265
C 15.94125 5.00415 -0.01952
C 14.77184 4.21369 -0.02813
C 14.73133 2.83572 0.00374
C 15.96195 2.13725 0.00052
C 16.00853 0.76613 -0.03682
C 14.78402 34.02446 0.01965
C 17.20302 32.65852 0.02058
C 17.16977 24.16096 -0.01957
C 18.40457 23.4554 -0.0108
C 17.2211 21.29097 -0.02696
C 20.8866 23.46774 -0.00491
C 9.86738 21.26275 0.00895
C 11.08343 23.4753 0.0288
C 3.69802 2.13791 0.0064
C 3.70219 0.7061 0.00211
C 2.41948 0.04748 -0.00449
C 4.9432 32.67217 -0.01979
C 6.13413 31.92164 0.02784
C 6.10031 30.52406 -0.01977
C 4.87369 29.83504 -0.00561
C 4.95996 28.35075 0.00208
C 6.2113 27.72434 0.01707
C 6.13859 26.28587 0.02769
C 2.51711 2.8304 -0.00039
C 4.95521 25.54342 -0.03291
C 6.10384 23.40089 0.04505
C 6.11013 22.07381 0.03284
C 4.90902 21.28367 -0.04307
C 4.94396 19.84507 0.03189
C 6.13121 19.18882 0.00031
C 6.18618 17.75848 -0.003
C 4.89566 17.00785 0.01402
C 4.95185 15.61865 0.02379
C 6.07507 14.89197 0.00907
C 6.1209 13.56641 0.00643
C 4.89907 24.16359 -0.04999
C 2.44528 4.27336 0.02728
C 3.7081 5.00651 0.00245
C 3.68665 6.32237 0.00081
C 3.71888 30.55149 0.02426
C 2.49127 29.87257 0.01218
C 2.45697 28.42688 -0.01471
C 3.67148 27.68451 -0.02827
C 3.66124 26.21205 0.01078
C 2.45662 25.52376 -0.00112
C 2.51599 24.12232 0.03345
C 3.71284 23.37226 0.00748
C 3.68945 22.00579 0.00662
C 2.44375 21.35831 -0.0154
C 2.42624 19.87998 -0.01299
C 3.75241 19.14811 -0.00407
C 3.76199 17.74292 0.01138
C 2.51117 17.06573 0.03278
C 2.41857 15.50804 -0.00177
C 3.67219 14.89592 0.04421
C 3.64055 13.50694 0.00088
C 2.4033 12.74192 0.00828
C 2.45308 11.37459 -0.02375
C 3.68539 10.67534 0.00558
C 3.6713 9.26285 -0.0059
C 2.50139 8.44912 -0.01386
C 2.43204 7.09879 -0.02805
C 4.89256 12.80893 -0.01509
C 4.95498 11.37265 0.03267
C 6.15455 10.64811 0.02374
C 6.18015 9.23611 0.00402
C 8.63181 13.5339 -0.00966
C 7.35775 12.79204 -0.03337
C 7.35246 11.40654 0.01227
C 8.6699 10.66295 0.00873
C 8.62792 9.27911 -0.00049
C 7.38295 8.54708 0.00848
C 7.41376 7.15211 -0.01303
C 8.58464 6.48629 -0.01378
C 8.60681 5.00958 0.02635
C 7.4017 4.28072 0.0127
C 7.31517 2.83712 0.01396
C 8.60935 2.17916 0.01849
C 8.64307 0.71234 -0.01142
C 7.39559 34.05701 -0.00562
C 9.82853 32.68419 -0.00494
C 11.04936 31.99241 0.00054
C 11.09261 30.53042 0.03007
C 9.78339 29.80636 -0.00095
C 9.77902 28.44322 0.01572
C 11.04501 27.6614 -0.04848
C 11.09671 26.24589 -0.00892
C 9.77146 25.61286 -0.01362
C 9.80127 24.18174 -0.0008
C 8.67077 14.96299 -0.02929
C 11.09902 21.9808 0.00393
C 7.37812 15.652 0.03368
C 8.55358 17.75912 0.01305
C 4.93819 8.53342 0.0073
C 4.88835 7.13934 0.0174
C 6.0616 6.38113 0.03828
C 6.1027 4.9687 0.01226
C 4.8707 4.22504 -0.00279
C 4.92274 2.89405 0.01996
C 6.09721 2.13291 -0.03996
C 6.16299 0.74529 0.01465
C 4.92656 34.04791 -0.00074
C 7.38293 32.65248 -0.00518
C 8.62102 31.97453 0.0086
C 8.64037 30.5346 -0.00643
C 7.3879 29.88588 0.017
C 7.3802 28.39527 -0.03113
C 8.59236 27.69657 -0.02566
C 8.57175 26.27771 -0.00094
C 7.31184 25.59839 0.02322
C 7.42262 24.1184 -0.00725
C 8.62366 23.39724 -0.05697
C 8.66219 21.99181 0.01087
C 7.371 21.32713 -0.01343
C 7.35861 19.91594 0.00988
C 8.601 19.19593 0.0276
C 7.35548 17.0505 -0.00077
C 3.68129 31.96166 0.00787
C 20.87579 22.02616 0.03338
C 19.70368 19.91655 -0.0331
C 29.50873 12.71891 -0.01461
C 29.55784 11.32511 -0.02155
C 30.76478 10.65286 -0.00944
C 30.73679 9.27232 -0.03735
C 29.51314 8.4798 -0.00971
C 29.47799 7.11047 0.01518
C 30.78351 6.35395 0.01908
C 30.70916 4.93168 0.07705
C 29.4695 4.27401 0.0103
C 29.48863 2.81865 0.02108
C 30.70284 13.5289 -0.01303
C 30.73268 2.13082 0.00716
C 29.52404 34.02065 0.00346
C 31.98761 32.64075 0.01713
C 33.20531 31.97779 -0.01694
C 33.26486 30.51007 0.01428
C 31.97925 29.74287 -0.02142
C 32.00303 28.39417 0.0544
C 33.25139 27.67541 0.00026
C 33.16172 26.26375 0.00682
C 31.97325 25.53719 -0.01779
C 31.97576 24.15551 0.03794
C 30.73145 0.70485 0.00307
C 30.79025 14.98161 -0.0405
C 29.51155 15.62158 0.01705
C 29.53596 17.08222 0.0101
C 27.01745 7.12292 0.02198
C 28.29638 6.38858 0.01094
C 28.2811 4.96359 0.00235
C 27.09297 4.29592 0.01495
C 27.0944 2.84475 0.01259
C 28.26082 2.0834 0.01799
C 28.27819 0.72086 0.01699
C 27.06042 34.07723 -0.00416
C 29.53449 32.70387 0.01177
C 30.71383 31.86205 0.04266
C 30.70776 30.4927 0.01324
C 29.49922 29.80641 0.0014
C 29.57824 28.38664 0.00924
C 30.70574 27.63722 0.02326
C 30.67321 26.26217 0.00261
C 29.48945 25.49547 0.03265
C 29.48559 24.10277 -0.02049
C 30.74045 23.39377 -0.01854
C 30.75745 22.08083 -0.01415
C 29.54864 21.35387 -0.03039
C 29.52642 19.86987 0.01836
C 30.74316 19.14401 0.03531
C 30.71116 17.70797 -0.00669
C 33.15839 23.44056 0.01927
C 33.21609 22.02273 0.01574
C 32.02885 21.26424 -0.02383
C 31.98228 19.87356 -0.01429
C 34.38928 24.19337 0.03076
C 1.2318 23.47688 0.00723
C 1.20057 22.08415 0.02712
C 34.40443 21.31415 -0.02213
C 34.40195 19.88303 0.01951
C 1.23109 19.21165 -0.01678
C 1.25338 17.74271 0.01223
C 0.01422 17.02312 0.00648
C 34.40655 15.58335 0.02114
C 1.19825 14.8936 -0.02957
C 1.21055 13.5072 0.00343
C 34.41649 12.83062 -0.02656
C 34.41842 11.3174 -0.02442
C 1.21888 10.64272 -0.00027
C 1.18574 9.21442 -0.00583
C 34.42527 8.54538 -0.02302
C 0.02382 7.10032 -0.02849
C 1.14831 6.31791 0.02931
C 1.19132 4.94293 0.00628
C 0.01331 4.23506 -0.0345
C 34.42947 2.7785 -0.00931
C 1.22007 2.15355 -0.00939
C 1.27257 0.68093 -0.00468
C 0.00196 25.57622 -0.05239
C 27.09119 8.54329 0.02611
C 1.22138 26.24683 -0.00598
C 0.03255 28.34932 -0.01037
C 33.18791 19.15415 -0.0136
C 33.16103 17.74526 0.00594
C 31.98347 17.03859 -0.02474
C 32.0421 15.58468 0.00369
C 33.206 14.91787 0.00455
C 33.14013 13.47332 -0.00644
C 31.89582 12.75976 -0.01839
C 31.965 11.2874 0.00137
C 33.15246 10.65317 0.00199
C 33.22503 9.22024 0.04381
C 32.00031 8.51867 0.02806
C 31.87718 7.12484 0.01504
C 33.13435 6.34465 -0.00069
C 33.21847 4.95884 0.04926
C 31.97604 4.24664 -0.03838
C 32.01586 2.81002 0.00349
C 33.23854 2.07355 -0.00323
C 33.23686 0.67978 -0.00841
C 31.95982 0.00283 0.0001
C 0.01638 32.60199 -0.02927
C 1.19409 31.92859 -0.01404
C 1.21795 30.55589 0.01027
C 0.04324 29.76481 0.01831
C 1.30878 27.63833 -0.00439
C 19.65775 21.26893 -0.0258
C 28.28328 9.22722 -0.00621
C 27.07534 11.3534 0.04185
C 22.13876 24.11566 -0.00311
C 23.39797 23.43007 0.00742
C 23.34596 21.97727 -0.01594
C 22.14165 21.30718 0.0106
C 22.16607 19.88332 -0.01154
C 23.39978 19.18023 -0.01721
C 23.37173 17.78443 -0.02422
C 22.1352 17.0597 0.01277
C 22.14046 15.53358 0.00096
C 23.33586 14.91168 -0.01527
C 22.15697 25.58523 0.00675
C 23.35141 13.52857 0.01087
C 22.08827 11.34118 0.01511
C 23.36634 10.67926 -0.00478
C 23.3234 9.25955 -0.01662
C 22.12732 8.49909 -0.01185
C 22.18127 7.10454 0.01126
C 23.3536 6.42599 0.01852
C 23.35954 4.92282 -0.00381
C 22.16062 4.30258 0.03046
C 22.18804 2.84268 0.0296
C 23.41755 2.09367 0.03374
C 22.06911 12.73305 0.00199
C 23.40333 26.2809 -0.00865
C 23.34974 27.65994 0.0058
C 22.32568 28.44377 -0.00652
C 20.86484 19.21528 -0.00316
C 20.91196 17.74685 0.02188
C 19.69935 17.026 -0.01979
C 19.59558 15.6415 0.02691
C 20.82972 14.92263 -0.01581
C 20.86075 13.48521 0.01452
C 19.65471 12.76534 0.04892
C 19.70935 11.33143 -0.00111
C 20.81911 10.59299 -0.03557
C 20.90876 9.22285 0.03754
C 19.64482 8.52953 0.01739
C 19.6414 7.07412 0.00755
C 20.88308 6.40958 -0.0054
C 20.89776 4.98214 0.00667
C 19.67477 4.23497 0.00143
C 19.67088 2.84668 -0.017
C 20.93225 2.07514 0.00364
C 20.94322 0.7202 -0.00831
C 19.67109 34.06087 -0.02957
C 22.14889 32.6775 -0.04422
C 23.43991 32.04533 0.00654
C 23.36841 30.53214 -0.00703
C 22.08858 29.75237 -0.04076
C 23.35426 0.67714 -0.02845
C 22.13001 0.02475 -0.03213
C 24.56873 32.72191 0.02239
C 25.83038 31.91762 0.01153
C 25.8763 2.17796 -0.0264
C 25.87421 0.7394 -0.01154
C 24.58331 0.03263 0.00684
C 27.03754 32.58097 -0.01052
C 28.29586 31.97648 -0.01679
C 28.29035 30.54341 0.00367
C 27.03011 29.81207 0.04306
C 27.01978 28.38126 0.00996
C 28.28601 27.67112 0.00195
C 28.2658 26.26504 -0.00802
C 27.06047 25.58232 -0.00218
C 27.0676 24.13085 -0.01654
C 28.26867 23.46858 -0.00037
C 28.34282 22.0467 -0.0032
C 27.00857 21.29209 0.00622
C 27.06475 19.84103 -0.02815
C 28.2929 19.17968 -0.00942
C 28.28386 17.79046 0.00487
C 27.05533 17.01619 0.00826
C 27.0293 15.58844 -0.00294
C 28.35793 14.90913 0.00152
C 28.25455 13.53269 0.01257
C 27.06438 12.77887 0.02316
C 24.61642 2.88295 -0.00938
C 28.29873 10.63503 0.00194
C 24.59578 4.21342 -0.00229
C 25.77873 6.34939 -0.009
C 25.8518 30.50517 0.02734
C 24.56478 29.79173 -0.0055
C 24.54269 28.42532 0.01515
C 25.79892 27.69728 -0.00225
C 25.76917 26.29969 0.00071
C 24.60786 25.54074 -0.01107
C 24.55173 24.06524 -0.01586
C 25.79791 23.43417 -0.01971
C 25.80729 22.04 -0.02118
C 24.59925 21.34231 0.00733
C 24.57218 19.77887 -0.00178
C 25.83997 19.16873 0.00768
C 25.81564 17.81591 -0.0276
C 24.57301 17.05667 0.03005
C 24.56474 15.66317 -0.04078
C 25.8197 14.89422 0.02117
C 25.85468 13.47531 0.02737
C 24.62797 12.79228 -0.00498
C 24.60126 11.37737 0.00135
C 25.83054 10.61277 0.03102
C 25.84789 9.23559 0.02555
C 24.58383 8.51401 0.01423
C 24.60549 7.12191 -0.00285
C 25.8062 4.93714 -0.01199
C 2.42189 32.70502 0.00267
