439
Graphene
C 0.02106 0.0293 0.01295
C 12.35533 19.87572 -0.00334
C 13.49932 19.2432 0.02339
C 13.53416 17.80471 0.01641
C 12.34199 17.03308 -0.00719
C 12.33479 15.67501 0.01364
C 13.55562 14.95863 -0.01062
C 13.47204 13.46712 -0.00033
C 12.25371 12.75777 0.03589
C 12.26963 11.25188 -0.02759
C 13.52711 10.63036 0.0402
C 13.56441 9.25304 0.00572
C 12.30877 8.5103 0.03592
C 12.32318 7.0957 0.00406
C 13.56772 6.37033 0.00943
C 13.49139 5.04437 0.02841
C 12.30103 4.2332 -0.01111
C 12.297 2.79511 -0.01275
C 13.47426 2.09855 0.00985
C 13.56469 0.65819 -0.02245
C 12.23284 0.00045 -0.00428
C 14.73361 32.695 0.03101
C 15.97995 31.90412 -0.01536
C 15.95703 30.56993 -0.02689
C 12.23465 21.36659 -0.01634
C 13.55286 22.04391 0.00057
C 13.56051 23.44651 0.00093
C 12.31011 24.17205 0.01291
C 9.83034 15.63034 0.01572
C 11.03233 14.92241 -0.04848
C 11.07832 13.47712 -0.00892
C 9.84063 12.81319 -0.01362
C 9.83851 11.45809 -0.0008
C 11.04443 10.66707 0.0288
C 11.05561 9.30464 0.00393
C 9.86344 8.48136 0.00895
C 9.8514 7.09998 0.00685
C 11.09839 6.4025 0.02888
C 11.1326 4.95623 -0.00482
C 14.75284 29.77964 -0.01046
C 9.81495 4.276 -0.01384
C 11.0803 2.08397 0.01745
C 10.98512 0.6982 0.00488
C 9.82055 34.07393 -0.01004
C 12.36348 32.69625 -0.02896
C 13.53477 31.98768 -0.00131
C 13.56026 30.53309 -0.01118
C 12.25487 29.9048 -0.014
C 12.27781 28.43764 0.02147
C 13.51748 27.65196 0.00373
C 13.53844 26.26279 -0.00191
C 12.32822 25.60742 0.00438
C 9.85115 2.80828 0.03693
C 9.80993 17.04465 -0.00095
C 14.77503 28.41725 -0.00891
C 16.00839 26.25583 0.00165
C 17.2534 29.88053 -0.01957
C 17.22995 28.37617 -0.0108
C 18.46479 27.68759 -0.00368
C 18.46002 26.24695 -0.02696
C 17.25162 25.51678 -0.00114
C 17.1655 24.15116 0.00228
C 18.42303 23.4178 0.00798
C 18.44238 21.98495 0.00422
C 17.23416 21.25551 0.0351
C 17.1939 19.89011 -0.03113
C 18.40167 19.15112 0.02098
C 18.41541 17.74633 0.01848
C 17.16157 17.08781 -0.00619
C 17.1986 15.67132 -0.02162
C 18.4236 14.93635 0.00889
C 18.45526 13.47369 -0.00481
C 17.21626 12.77667 0.00979
C 17.23463 11.39074 0.01443
C 18.4444 10.67811 0.03505
C 18.47799 9.24751 -0.02815
C 17.22343 8.54907 -0.04147
C 17.2227 7.08363 -0.05302
C 18.41253 6.361 0.00213
C 18.4434 30.51007 0.02058
C 18.48878 31.96932 0.01965
C 17.20993 32.65041 -0.03682
C 14.71867 0.00234 0.00052
C 14.72533 25.59291 -0.02971
C 14.74857 24.13556 0.02894
C 15.92902 23.44416 -0.01789
C 15.98338 22.02658 0.00444
C 14.7901 21.28257 -0.00925
C 14.74178 19.86981 0.01877
C 15.98334 19.10805 0.01363
C 15.9477 17.71832 -0.02162
C 14.74648 17.02674 0.00415
C 14.73425 15.61217 -0.0014
C 16.01714 14.90137 0.02162
C 16.05158 27.69672 0.02819
C 15.95587 13.52796 0.0076
C 14.77927 11.31075 -0.01454
C 15.96376 10.66867 0.01945
C 15.96358 9.26473 0.01416
C 14.76077 8.56019 0.03542
C 14.79761 7.04404 0.02299
C 15.98497 6.39994 0.00244
C 15.96139 4.9859 -0.01717
C 14.73373 4.25154 0.05265
C 14.7396 2.8275 -0.01952
C 15.98178 2.1662 -0.02813
C 16.00272 0.65143 0.00374
C 14.75543 12.80337 0.01241
C 18.46001 4.97603 -0.00066
C 11.07941 17.74475 0.03007
C 9.79342 19.91869 -0.00494
C 3.70414 0.738 0.00088
C 2.46515 34.05703 0.00828
C 4.89166 32.68311 -0.02375
C 6.12387 31.97734 0.00558
C 6.18454 30.49232 -0.0059
C 4.98329 29.82019 -0.01386
C 4.90097 28.37607 -0.02805
C 6.22181 27.66687 0.00081
C 6.15389 26.2615 0.00245
C 4.86804 25.54923 0.02728
C 4.87427 24.22254 -0.00039
C 6.1339 23.43108 0.0064
C 6.1801 21.97942 0.00211
C 4.91893 21.29671 -0.00449
C 4.97007 19.85832 -0.01979
C 6.11807 19.12676 0.02784
C 6.16615 17.72674 -0.01977
C 4.83085 16.99486 -0.00561
C 4.90483 15.68626 0.00208
C 6.12338 14.96698 0.01707
C 6.14176 13.53117 0.02769
C 4.98016 12.80282 -0.03291
C 4.93697 11.2774 -0.04999
C 3.72481 2.15051 0.04421
C 2.48812 2.86896 -0.00177
C 2.48785 4.27913 0.03278
C 3.69776 4.96898 0.01138
C 3.67201 30.48638 -0.0005
C 2.44005 29.79811 -0.00018
C 2.48804 28.38615 0.01073
C 3.69821 27.65189 0.01984
C 3.70308 26.29023 0.00535
C 2.47868 25.62416 -0.00198
C 2.43055 24.17235 -0.00012
C 3.73621 23.41015 -0.04306
C 3.73702 21.98708 -0.03672
C 2.47026 21.34823 0.01913
C 2.42589 19.79301 0.00267
C 6.15132 10.6101 0.04505
C 3.65446 19.20592 0.00787
C 2.41476 16.99405 0.01218
C 2.45309 15.60122 -0.01471
C 3.66749 14.934 -0.02827
C 3.68567 13.51 0.01078
C 2.49803 12.71964 -0.00112
C 2.45807 11.36661 0.03345
C 3.69237 10.64093 0.00748
C 3.70815 9.22805 0.00662
C 2.43454 8.49803 -0.0154
C 2.45783 7.08118 -0.01299
C 3.73416 6.41173 -0.00407
C 3.6653 17.7547 0.02426
C 11.05034 19.20109 0.00054
C 6.17127 9.19976 0.03284
C 4.91986 7.13198 0.03189
C 8.60704 10.69334 -0.05697
C 8.64156 9.28738 0.01087
C 7.34756 8.59037 -0.01343
C 7.34817 7.1473 0.00988
C 8.60194 6.42841 0.0276
C 8.54394 4.98787 0.01305
C 7.37361 4.31189 -0.00077
C 7.40177 2.84688 0.03368
C 8.64216 2.10654 -0.02929
C 8.57847 0.74698 -0.00966
C 7.3362 0.04406 -0.03337
C 9.85718 32.67663 0.01227
C 11.04047 31.97057 0.00873
C 11.02817 30.5717 -0.00049
C 9.83695 29.78984 0.00848
C 9.86506 28.38953 -0.01303
C 11.03525 27.75749 -0.01378
C 11.06293 26.29391 0.02635
C 9.89548 25.61704 0.0127
C 9.8551 24.096 0.01396
C 11.06816 23.46468 0.01849
C 11.03468 22.01821 -0.01142
C 9.84292 21.28913 -0.00562
C 7.36213 11.37297 -0.00725
C 7.28759 12.7663 0.02322
C 8.54788 13.49188 -0.00094
C 8.58623 14.85636 -0.02566
C 6.15318 6.44008 0.00031
C 6.09375 4.99184 -0.003
C 4.91914 4.30452 0.01402
C 4.91786 2.83255 0.02379
C 6.14894 2.15462 0.00907
C 6.13621 0.74609 0.00643
C 4.93764 0.01335 -0.01509
C 7.40393 32.69543 0.03267
C 8.61305 31.94809 0.02374
C 8.62362 30.53784 0.00402
C 7.37811 29.826 0.0073
C 4.85719 8.55186 -0.04307
C 7.42066 28.40362 0.0174
C 8.62573 26.22607 0.01226
C 7.4018 25.5528 -0.00279
C 7.36897 24.16928 0.01996
C 8.60394 23.45451 -0.03996
C 8.62904 22.0149 0.01465
C 7.37145 21.28806 -0.00074
C 7.38196 19.86624 -0.00518
C 8.60812 19.19658 0.0086
C 8.64539 17.79123 -0.00643
C 7.37831 16.99095 0.017
C 7.41875 15.58572 -0.03113
C 8.61981 27.69091 0.03828
C 3.69162 31.99585 0.01116
C 17.22614 4.22161 -0.00289
C 18.41962 2.14696 -0.02213
C 30.81223 14.86592 -0.0405
C 30.7106 13.44927 -0.01303
C 29.47453 12.80758 -0.01461
C 29.50085 11.34327 -0.02155
C 30.71717 10.66776 -0.00944
C 30.73003 9.25214 -0.03735
C 29.50729 8.4599 -0.00971
C 29.56075 7.09001 0.01518
C 30.74607 6.43493 0.01908
C 30.80131 4.9598 0.07705
C 29.50719 4.19297 0.0103
C 29.51425 2.86095 0.02108
C 30.78639 2.09083 0.00716
C 30.71744 0.6856 0.00307
C 29.5261 34.04777 0.00346
C 31.95471 32.66427 0.01713
C 33.19279 31.96264 -0.01694
C 33.229 30.58808 0.01428
C 31.97039 29.81743 -0.02142
C 32.02337 28.44558 0.0544
C 33.17594 27.72354 0.00026
C 33.19262 26.28211 0.00682
C 31.96325 25.54922 -0.01779
C 29.56704 15.65446 0.01705
C 29.53275 17.03043 0.0101
C 30.71899 17.70027 -0.00669
C 30.73415 19.18593 0.03531
C 27.06552 15.632 0.00194
C 28.3196 14.97592 -0.00621
C 28.24309 13.43413 0.02611
C 27.01619 12.75978 0.02198
C 27.06747 11.35245 0.01094
C 28.35415 10.64825 0.00235
C 28.21275 9.18375 0.01495
C 27.00779 8.5546 0.01259
C 28.27658 2.06359 0.01799
C 28.2514 0.70989 0.01699
C 27.04763 34.01486 -0.00416
C 31.98158 24.20207 0.03794
C 29.50467 32.69365 0.01177
C 30.74365 30.52088 0.01324
C 29.51658 29.80086 0.0014
C 29.48694 28.36362 0.00924
C 30.70984 27.68691 0.02326
C 30.72754 26.27787 0.00261
C 29.53701 25.49153 0.03265
C 29.51193 24.08927 -0.02049
C 30.72137 23.47928 -0.01854
C 30.75846 22.05893 -0.01415
C 29.52853 21.36714 -0.03039
C 29.50147 19.88759 0.01836
C 30.72515 31.93077 0.04266
C 27.05991 17.0677 0.04185
C 33.22877 23.42002 0.01927
C 32.00623 21.3097 -0.02383
C 34.40406 24.12607 0.03076
C 1.20845 23.44557 0.00723
C 1.20242 22.04225 0.02712
C 34.41812 21.35867 -0.02213
C 0.00733 19.84068 0.01951
C 1.2325 19.14557 -0.01678
C 1.17416 17.73235 0.01223
C 34.42665 17.03934 0.00648
C 0.02751 15.61183 0.02114
C 1.16587 14.85247 -0.02957
C 1.20508 13.48235 0.00343
C 0.02042 12.76118 -0.02656
C 34.40674 11.32034 -0.02442
C 1.19387 10.68972 -0.00027
C 1.2511 9.19773 -0.00583
C 0.00319 8.51974 -0.02302
C 0.02258 7.11712 -0.02849
C 1.19665 6.35035 0.02931
C 1.24473 4.89635 0.00628
C 34.42309 4.21209 -0.0345
C 34.40841 2.81044 -0.00931
C 1.25662 2.13524 -0.00939
C 1.29092 0.6876 -0.00468
C 34.41376 25.61371 -0.05239
C 1.17082 26.26798 -0.00598
C 1.17289 27.65349 -0.00439
C 0.00446 28.35615 -0.01037
C 31.94086 19.89932 -0.01429
C 33.24003 19.16133 -0.0136
C 33.21209 17.74907 0.00594
C 31.89551 17.05156 -0.02474
C 31.9464 15.55079 0.00369
C 33.23095 14.87921 0.00455
C 33.22382 13.45684 -0.00644
C 31.99528 12.73653 -0.01839
C 32.00159 11.30121 0.00137
C 33.21745 10.62942 0.00199
C 33.17282 9.23916 0.04381
C 33.23333 21.94569 0.01574
C 31.93974 8.49785 0.02806
C 33.18404 6.42146 -0.00069
C 33.25125 4.92431 0.04926
C 32.05064 4.23168 -0.03838
C 31.95472 2.81852 0.00349
C 33.19136 2.10686 -0.00323
C 33.21496 0.6988 -0.00841
C 31.9733 34.05636 0.0001
C 0.03382 32.67547 -0.02927
C 1.20547 31.94829 -0.01404
C 1.23097 30.54503 0.01027
C 0.03337 29.80841 0.01831
C 32.01228 7.13001 0.01504
C 17.26865 2.87543 0.00028
C 28.27876 17.76914 0.02316
C 27.07773 19.79423 0.00152
C 20.91251 4.97537 -0.04076
C 19.72152 4.28372 -0.00652
C 19.66027 2.8966 0.0058
C 20.87467 2.12656 -0.00865
C 20.92072 0.72917 0.00675
C 19.63747 0.0323 -0.00311
C 22.13711 32.63437 0.00742
C 23.41403 31.93972 -0.01594
C 23.36038 30.56546 0.0106
C 22.12961 29.79872 -0.01154
C 22.14485 28.45226 -0.01721
C 23.36901 27.68271 -0.02422
C 23.39782 26.23547 0.01277
C 22.05682 25.5057 0.00096
C 22.149 24.15126 -0.01527
C 23.3557 23.38737 0.01087
C 23.49511 22.02978 0.00199
C 22.10621 21.31909 0.01511
C 22.13881 19.87434 -0.00478
C 23.36535 19.15254 -0.01662
C 23.28323 17.75053 -0.01185
C 22.08768 17.02502 0.01126
C 22.09139 15.59425 0.01852
C 20.87133 6.373 -0.00703
C 19.69659 7.08511 0.00654
C 19.59845 8.49238 -0.04422
C 20.90053 9.24491 -0.02957
C 18.40313 0.7305 0.03698
C 17.18291 34.02791 -0.00109
C 19.64004 32.6749 -0.00491
C 20.88763 31.94989 0.03338
C 20.90578 30.51431 -0.0258
C 19.65956 29.81678 -0.0331
C 19.67263 28.33783 -0.00316
C 20.92707 27.69061 0.02188
C 20.90985 26.25287 -0.01979
C 19.6873 25.57945 0.02691
C 19.75633 24.21391 -0.01581
C 23.37067 14.9024 -0.00381
C 20.87083 23.37924 0.01452
C 19.67322 21.27942 -0.00111
C 19.66074 19.89838 -0.03557
C 20.87924 19.19007 0.03754
C 20.91675 17.72243 0.01739
C 19.71434 17.06312 0.00755
C 19.70833 15.63083 -0.0054
C 20.88625 14.91521 0.00667
C 20.89706 13.43347 0.00143
C 19.6722 12.81681 -0.017
C 19.68838 11.38954 0.00364
C 20.88539 10.64707 -0.00831
C 20.8792 21.97739 0.04892
C 28.29331 19.15175 0.01257
C 23.35372 13.47296 0.03046
C 22.14415 11.34562 0.03374
C 25.85823 14.88492 -0.01199
C 25.80638 13.55144 -0.00229
C 24.64557 12.82282 -0.00938
C 24.55719 11.37037 -0.0264
C 25.8526 10.64087 -0.01154
C 25.81655 9.23002 0.00684
C 24.57739 8.54537 -0.01052
C 24.6486 2.79204 -0.01679
C 25.79338 2.10789 0.00367
C 25.91752 0.72892 0.04306
C 24.5609 0.05095 0.00996
C 27.06434 32.66788 0.00195
C 28.29023 31.9914 -0.00802
C 28.29132 30.53223 -0.00218
C 27.05643 29.76931 -0.01654
C 27.01102 28.36014 -0.00037
C 28.33962 27.67972 -0.0032
C 28.26733 26.24137 0.00622
C 27.00432 25.56792 -0.02815
C 27.05284 24.13045 -0.00942
C 28.23506 23.41858 0.00487
C 28.29188 21.99508 0.00826
C 26.99831 21.2322 -0.00294
C 24.57535 15.61166 -0.009
C 24.59367 17.05949 -0.00285
C 25.83894 17.78692 0.01423
C 25.79225 19.0773 0.02555
C 23.3949 10.6434 -0.02845
C 23.37339 9.2661 -0.03213
C 22.11756 8.56237 0.02239
C 22.1495 7.14849 0.01153
C 23.33936 6.32092 0.02734
C 23.37189 4.94839 -0.0055
C 22.15102 4.25551 0.01515
C 22.11555 2.84381 -0.00225
C 23.35962 2.13479 0.00071
C 23.39132 0.72929 -0.01107
C 22.1384 34.06163 -0.01586
C 22.15435 12.80249 0.0296
C 24.56939 32.66153 -0.01971
C 25.76804 30.57272 0.00733
C 24.56686 29.76886 -0.00178
C 24.51169 28.38273 0.00768
C 25.76329 27.71035 -0.0276
C 25.80549 26.28506 0.03005
C 24.60467 25.61376 -0.04078
C 24.56262 24.13078 0.02117
C 25.84571 23.47576 0.02737
C 25.83149 22.01153 -0.00498
C 24.6325 21.25702 0.00135
C 24.58454 19.88539 0.03102
C 25.7924 31.98848 -0.02118
C 2.50133 32.65191 -0.0213
