415
Graphene
C 34.37037 34.00785 0.01295
C 12.26367 19.99127 -0.01275
C 13.52291 19.21072 0.00985
C 13.51378 17.76784 -0.02245
C 12.2811 17.06975 -0.00428
C 12.2468 15.6351 0.03101
C 13.4483 14.82474 -0.01536
C 13.50474 13.40848 -0.02689
C 12.28115 12.77971 -0.01046
C 12.31049 11.33033 -0.00891
C 13.52195 10.61757 0.02819
C 12.26322 21.36469 -0.01111
C 13.57887 9.20791 0.00165
C 12.30267 7.06211 0.02894
C 13.51888 6.37041 -0.01789
C 13.54252 4.85164 0.00444
C 12.29427 4.16724 -0.00925
C 12.32452 2.75435 0.01877
C 13.5817 2.04093 0.01363
C 13.50306 0.5936 -0.02162
C 12.25015 33.99018 0.00415
C 14.68732 32.61401 -0.0014
C 15.98359 31.95103 0.02162
C 12.33753 8.50638 -0.02971
C 16.04492 30.52393 0.0076
C 13.4848 22.10226 0.02841
C 12.2618 24.26795 0.00406
C 11.06398 13.47741 -0.01118
C 9.78234 12.8469 -0.014
C 9.72557 11.42497 0.02147
C 11.00399 10.66424 0.00373
C 11.09033 9.21369 -0.00191
C 9.84993 8.56554 0.00438
C 9.80602 7.12652 0.01291
C 11.10057 6.38084 0.00093
C 11.09691 4.97585 0.00057
C 9.85952 4.27516 -0.01634
C 13.48538 23.50188 0.00943
C 9.85749 2.81276 -0.00334
C 11.0709 0.60978 0.01641
C 9.79772 34.0692 -0.00719
C 12.29142 32.60042 0.01364
C 13.4846 31.90686 -0.01062
C 13.4667 30.49833 -0.00033
C 12.1762 29.93371 0.03589
C 12.20431 28.52431 -0.02759
C 13.50453 27.81516 0.0402
C 13.50004 26.36528 0.00572
C 12.27089 25.69622 0.03592
C 11.06184 2.04589 0.02339
C 11.06354 14.94625 -0.00131
C 14.80437 29.85604 0.01241
C 16.01912 27.73592 0.01945
C 17.21758 32.68391 -0.02162
C 18.47295 31.94373 0.00889
C 18.49654 30.55795 -0.00481
C 17.25263 29.83974 0.00979
C 17.22047 28.47981 0.01443
C 18.39271 27.72671 0.03505
C 18.39491 26.25737 -0.02815
C 17.17884 25.52967 -0.04147
C 17.15995 24.11067 -0.05302
C 18.40931 23.39418 0.00213
C 14.70084 34.00372 -0.00619
C 18.3741 21.98681 -0.00066
C 17.12351 19.90777 0.00028
C 18.30618 19.18795 -0.02213
C 18.36685 17.77653 0.03698
C 17.09447 17.04404 -0.00109
C 17.18452 15.60789 -0.00491
C 18.38341 14.92902 0.03338
C 18.48529 13.5206 -0.0258
C 17.20074 12.83471 -0.0331
C 17.23312 11.42608 -0.00316
C 18.52238 10.62374 0.02188
C 17.12661 21.32281 -0.00289
C 14.79193 28.41619 -0.01454
C 16.03318 0.6569 0.01848
C 14.7746 2.76517 -0.03113
C 15.93936 26.33385 0.01416
C 14.71134 25.66866 0.03542
C 14.7303 24.24965 0.02299
C 15.92624 23.46972 0.00244
C 15.92563 22.07877 -0.01717
C 14.7553 21.3809 0.05265
C 14.69664 19.95349 -0.01952
C 15.87012 19.23696 -0.02813
C 15.88274 17.8266 0.00374
C 14.69661 17.05621 0.00052
C 16.04025 2.13501 0.02098
C 14.74689 15.65188 -0.03682
C 15.95536 13.48017 0.02058
C 14.74415 12.76969 -0.01957
C 14.74706 11.32581 -0.0108
C 16.02298 10.65496 -0.00368
C 15.99465 9.22338 -0.02696
C 14.82363 8.51213 -0.00114
C 14.82415 7.09185 0.00228
C 16.08499 6.2851 0.00798
C 15.99431 4.91204 0.00422
C 14.80739 4.17028 0.0351
C 15.94923 14.94303 0.01965
C 18.32218 9.24061 -0.01979
C 9.82835 15.62397 -0.02896
C 11.10932 17.8211 0.00488
C 4.93453 32.71176 -0.04999
C 6.14513 32.05795 0.04505
C 6.08582 30.66893 0.03284
C 4.83223 29.92016 -0.04307
C 4.86976 28.43367 0.03189
C 6.07633 27.6911 0.00031
C 6.05756 26.3001 -0.003
C 4.8384 25.54053 0.01402
C 4.87883 24.13614 0.02379
C 6.12659 23.40433 0.00907
C 2.45158 34.04775 -0.03291
C 6.15613 21.99367 0.00643
C 4.94956 19.89295 0.03267
C 6.15425 19.20179 0.02374
C 6.16317 17.77777 0.00402
C 4.9153 17.10627 0.0073
C 4.90364 15.71803 0.0174
C 6.13528 15.04652 0.03828
C 6.14009 13.6394 0.01226
C 4.92802 12.8111 -0.00279
C 5.28448 11.34724 0.01996
C 6.19955 6.32829 -0.03996
C 4.93724 21.29934 -0.01509
C 6.14873 4.95195 0.01465
C 3.67755 0.70901 0.02769
C 2.32334 2.79926 0.00208
C 3.61091 30.58562 0.01138
C 2.40004 29.81017 0.03278
C 2.38813 28.42683 -0.00177
C 3.64222 27.77391 0.04421
C 3.63221 26.24358 0.00088
C 2.40344 25.50183 0.00828
C 2.38984 24.1468 -0.02375
C 3.68322 23.39678 0.00558
C 3.71442 21.9983 -0.0059
C 2.49333 21.29007 -0.01386
C 3.62624 2.06594 0.01707
C 2.42475 19.90172 -0.02805
C 3.68219 17.82065 0.00245
C 2.44379 17.08759 0.02728
C 2.43679 15.66654 -0.00039
C 3.67051 14.88923 0.0064
C 3.72582 13.42932 0.00211
C 2.47453 12.8492 -0.00449
C 2.4971 11.40202 -0.01979
C 2.29863 7.3358 0.02784
C 3.55011 4.89895 -0.01977
C 2.3763 4.2339 -0.00561
C 3.70248 19.25634 0.00081
C 9.84497 17.02965 -0.01004
C 4.8566 4.24617 -0.00074
C 6.2117 2.18295 0.0086
C 7.1509 7.19643 0.01396
C 8.55399 6.49167 0.01849
C 8.64963 5.03999 -0.01142
C 7.35877 4.30611 -0.00562
C 7.3684 2.90792 -0.00494
C 8.56562 2.17637 0.00054
C 8.56396 0.75783 0.03007
C 7.38094 0.0645 -0.00095
C 9.7394 32.66579 0.01572
C 10.97543 31.96607 -0.04848
C 7.53634 8.48677 0.0127
C 11.02098 30.57151 -0.00892
C 9.71579 28.46997 -0.0008
C 10.99223 27.78653 0.0288
C 11.02509 26.39117 0.00393
C 9.76588 25.61468 0.00895
C 9.79096 24.2263 0.00685
C 11.08703 23.54538 0.02888
C 11.13842 22.15941 -0.00482
C 9.89957 21.37546 -0.01384
C 9.85441 19.99225 0.03693
C 11.01996 19.24937 0.01745
C 9.80585 29.83483 -0.01362
C 4.85921 2.8131 -0.00518
C 8.55787 9.34936 0.02635
C 7.15987 11.47377 -0.01303
C 6.14737 0.7542 -0.00643
C 4.948 0.01263 0.017
C 7.35277 32.76474 -0.03113
C 8.55662 32.01477 -0.02566
C 8.62837 30.60047 -0.00094
C 7.32496 29.91185 0.02322
C 7.34375 28.42632 -0.00725
C 8.52959 27.74855 -0.05697
C 8.50091 26.3363 0.01087
C 7.29034 25.59385 -0.01343
C 8.40378 10.82236 -0.01378
C 7.33719 24.17674 0.00988
C 8.64772 22.07524 0.01305
C 7.406 21.34876 -0.00077
C 7.35279 19.93565 0.03368
C 8.62954 19.22298 -0.02929
C 8.65112 17.77659 -0.00966
C 7.35701 17.08045 -0.03337
C 7.39775 15.68445 0.01227
C 8.62562 14.96662 0.00873
C 8.5751 13.53141 -0.00049
C 7.30545 12.90327 0.00848
C 8.54981 23.48873 0.0276
C 3.7437 31.98565 -0.00407
C 17.16468 8.58603 0.02691
C 18.4643 6.48962 0.01452
C 30.77102 10.5687 -0.00944
C 30.7633 9.20695 -0.03735
C 29.4873 8.51988 -0.00971
C 29.51332 7.11276 0.01518
C 30.69565 6.36371 0.01908
C 30.68377 4.94262 0.07705
C 29.51403 4.22034 0.0103
C 29.46456 2.91464 0.02108
C 30.71069 2.12917 0.00716
C 30.80167 0.7058 0.00307
C 29.52591 11.2804 -0.02155
C 29.47531 0.10776 0.00346
C 33.19858 31.89267 -0.01694
C 33.14752 30.47372 0.01428
C 31.86508 29.78775 -0.02142
C 31.89246 28.38401 0.0544
C 33.07693 27.63695 0.00026
C 33.14123 26.22859 0.00682
C 31.90866 25.52042 -0.01779
C 31.90772 24.12701 0.03794
C 33.18704 23.43117 0.01927
C 33.16937 21.9724 0.01574
C 32.01836 32.62003 0.01713
C 31.94381 21.30201 -0.02383
C 29.50658 12.7021 -0.01461
C 30.70681 14.87737 -0.0405
C 28.36969 6.24688 0.01495
C 28.40251 5.012 0.01259
C 28.18164 2.23448 0.01799
C 28.20704 0.85828 0.01699
C 27.0219 0.10934 -0.00416
C 29.50621 32.75 0.01177
C 30.81147 31.98955 0.04266
C 30.65709 30.57692 0.01324
C 29.41496 29.85367 0.0014
C 29.43156 28.42093 0.00924
C 30.74996 13.41412 -0.01303
C 30.67508 27.68041 0.02326
C 29.51072 25.60563 0.03265
C 29.5029 24.14211 -0.02049
C 30.68955 23.42549 -0.01854
C 30.64469 22.02011 -0.01415
C 29.48081 21.29805 -0.03039
C 29.47063 19.83957 0.01836
C 30.69086 19.15785 0.03531
C 30.72588 17.7529 -0.00669
C 29.44962 17.03121 0.0101
C 29.45507 15.59089 0.01705
C 30.69478 26.3057 0.00261
C 27.08715 8.41101 0.00235
C 31.92181 19.87991 -0.01429
C 33.09908 17.74389 0.00594
C 1.21127 23.43284 0.00723
C 1.2232 22.0599 0.02712
C 0.01833 21.32373 -0.02213
C 0.03305 19.89687 0.01951
C 1.26034 19.17596 -0.01678
C 1.21846 17.77709 0.01223
C 34.41529 17.0692 0.00648
C 0.02109 15.64266 0.02114
C 1.2266 14.90747 -0.02957
C 1.22782 13.52503 0.00343
C 0.00598 24.126 0.03076
C 0.00424 12.72902 -0.02656
C 1.41933 10.4583 -0.00027
C 1.25703 8.98189 -0.00583
C 34.3835 8.45918 -0.02302
C 34.35323 7.07345 -0.02849
C 1.17365 6.41402 0.02931
C 1.14861 4.96391 0.00628
C 34.37496 4.16922 -0.0345
C 34.35378 2.8129 -0.00931
C 1.11607 2.11049 -0.00939
C 1.16318 0.68387 -0.00468
C 0.11055 11.28943 -0.02442
C 33.21163 19.15658 -0.0136
C 34.40105 25.57458 -0.05239
C 1.19525 27.64991 -0.00439
C 31.89566 17.05818 -0.02474
C 31.88116 15.59753 0.00369
C 33.17499 14.97961 0.00455
C 33.24044 13.53974 -0.00644
C 31.96871 12.76374 -0.01839
C 32.01956 11.28011 0.00137
C 33.28059 10.61208 0.00199
C 33.21304 9.21453 0.04381
C 32.0286 8.47256 0.02806
C 31.90276 7.07757 0.01504
C 1.20827 26.27084 -0.00598
C 33.15652 6.39614 -0.00069
C 31.92858 4.2363 -0.03838
C 31.98311 2.85089 0.00349
C 33.15469 2.10716 -0.00323
C 33.12861 0.66138 -0.00841
C 31.97651 34.02647 0.0001
C 34.40603 32.56956 -0.02927
C 1.27197 31.90909 -0.01404
C 1.18872 30.48028 0.01027
C 34.3795 29.76547 0.01831
C 34.34845 28.35649 -0.01037
C 33.14902 4.94981 0.04926
C 17.20802 7.16872 -0.01581
C 28.30094 9.11784 0.01094
C 27.05802 11.24758 0.02611
C 19.76543 11.26429 -0.01721
C 20.91315 10.56342 -0.02422
C 20.75798 9.15328 0.01277
C 19.56763 8.61712 0.00096
C 21.09283 0.48635 -0.01527
C 19.73755 0.05933 0.01087
C 22.27356 32.51055 0.00199
C 23.45986 31.86012 0.01511
C 23.44871 30.50772 -0.00478
C 22.13043 29.79531 -0.01662
C 19.72692 12.74312 -0.01154
C 22.1061 28.37254 -0.01185
C 23.36736 26.27737 0.01852
C 22.14072 25.60734 -0.00381
C 22.08746 24.18003 0.03046
C 23.33211 23.45213 0.0296
C 23.30952 22.01792 0.03374
C 22.0695 21.3588 -0.02845
C 22.09041 19.91493 -0.03213
C 23.33561 19.20114 0.02239
C 23.25939 17.73274 0.01153
C 21.97353 17.05112 0.02734
C 23.42114 27.66627 0.01126
C 22.09461 15.66928 -0.0055
C 20.95534 13.52108 0.0106
C 19.60504 15.64021 0.00742
C 18.28081 5.16025 0.04892
C 17.27545 4.17002 -0.00111
C 17.28587 2.74809 -0.03557
C 18.482 2.08983 0.03754
C 18.52415 0.71484 0.01739
C 17.33452 34.0557 0.00755
C 19.75027 32.70822 -0.0054
C 20.92839 31.94712 0.00667
C 20.94936 30.4868 0.00143
C 19.70321 29.81068 -0.017
C 20.89808 14.94288 -0.01594
C 19.68403 28.44298 0.00364
C 20.89808 26.23316 -0.02957
C 19.649 25.49098 -0.04422
C 19.70116 24.0995 0.00654
C 20.89661 23.39956 -0.00703
C 20.87834 22.03922 -0.04076
C 19.66475 21.29706 -0.00652
C 19.57551 19.84308 0.0058
C 20.80506 19.16495 -0.00865
C 20.8201 17.77042 0.00675
C 19.56622 17.04852 -0.00311
C 20.87813 27.66502 -0.00831
C 28.25251 10.52754 0.02198
C 23.32757 14.88605 0.01515
C 22.14188 12.81129 0.00071
C 25.76742 0.59615 -0.01679
C 24.63143 33.9559 0.00367
C 27.11247 32.78951 0.04306
C 28.28224 31.99256 0.00996
C 28.25078 30.57274 0.00195
C 27.10336 29.86992 -0.00802
C 27.04244 28.46251 -0.00218
C 28.2122 27.71963 -0.01654
C 28.28082 26.28825 -0.00037
C 27.09861 25.59797 -0.0032
C 26.15657 9.2841 -0.01052
C 27.05512 24.10835 0.00622
C 28.2584 22.02296 -0.00942
C 27.02675 21.27075 0.00487
C 27.01677 19.84278 0.00826
C 28.2283 19.1234 -0.00294
C 28.1962 17.67029 0.00152
C 26.94239 17.03502 0.01257
C 26.96585 15.50936 0.02316
C 28.25269 14.81218 0.04185
C 28.30243 13.36773 0.00194
C 27.07472 12.66931 -0.00621
C 28.32628 23.4286 -0.02815
C 23.37052 13.43111 -0.00225
C 25.77979 10.64769 0.00684
C 24.60611 12.72086 -0.0264
C 22.11803 11.28026 -0.01107
C 23.35185 10.57879 -0.01586
C 22.25964 33.98185 -0.01971
C 24.58976 32.54858 -0.02118
C 25.84495 32.02768 0.00733
C 25.88049 30.54696 -0.00178
C 24.66007 29.77904 0.00768
C 24.60833 28.40999 -0.0276
C 25.82393 27.70958 0.03005
C 25.81022 26.26225 -0.04078
C 24.59797 11.31628 -0.01154
C 24.59362 25.58961 0.02117
C 25.85802 23.41952 -0.00498
C 25.81505 22.01876 0.00135
C 24.59456 21.27467 0.03102
C 24.53353 19.85922 0.02555
C 25.79356 19.1793 0.01423
C 25.70379 17.76494 -0.00285
C 24.49493 17.04606 -0.009
C 24.55454 15.56195 -0.01199
C 25.75004 14.8333 -0.00229
C 25.89606 13.44594 -0.00938
C 24.59781 24.13453 0.02737
C 2.43551 32.66732 -0.01299
