325
Graphene
C 34.3948 34.07976 0.01295
C 14.63497 2.74553 -0.00066
C 15.91079 2.13891 -0.00289
C 16.03438 0.72194 0.00028
C 14.76602 0.08593 -0.02213
C 17.23486 32.73058 0.03698
C 18.46296 31.98871 -0.00109
C 18.42881 30.56467 -0.00491
C 16.03111 18.99069 0.00213
C 17.19735 29.86104 0.03338
C 18.39242 27.56416 -0.0331
C 18.51063 26.11831 -0.00316
C 17.23902 25.45757 0.02188
C 17.16985 24.1075 -0.01979
C 17.33905 21.35739 0.02691
C 17.21998 20.0119 -0.01581
C 18.50432 6.31325 0.01452
C 17.1438 28.38419 -0.0258
C 18.35839 4.92961 0.04892
C 15.00976 19.73015 -0.05302
C 16.1059 21.98925 -0.02815
C 13.57157 23.42074 -0.02696
C 13.52469 21.99358 -0.00114
C 12.30284 21.44816 0.00228
C 13.26714 2.18315 0.00798
C 13.45271 0.84701 0.00422
C 12.31163 0.02088 0.0351
C 14.80734 32.72631 -0.03113
C 14.73463 21.20566 -0.04147
C 15.99746 31.9657 0.02098
C 14.74152 29.80734 -0.00619
C 14.74816 28.39635 -0.02162
C 15.9526 27.64134 0.00889
C 16.00223 26.12421 -0.00481
C 14.75553 25.52469 0.00979
C 14.78395 24.08797 0.01443
C 15.97189 23.3991 0.03505
C 15.98893 30.56561 0.01848
C 17.12866 4.25446 -0.00111
C 17.18683 2.74187 -0.03557
C 18.46868 2.07204 0.03754
C 19.66126 2.81749 -0.01154
C 20.8252 2.15288 -0.01721
C 20.86162 0.72119 -0.02422
C 19.72081 34.04426 0.01277
C 22.1145 32.68103 0.00096
C 23.37587 31.92544 -0.01527
C 23.33342 30.56199 0.01087
C 19.60228 4.23593 0.0106
C 22.04549 29.86449 0.00199
C 23.22263 27.67992 -0.00478
C 23.33189 26.34124 -0.01662
C 22.16018 25.63272 -0.01185
C 22.16911 24.25563 0.01126
C 23.4305 23.38613 0.01852
C 23.23079 21.93106 -0.00381
C 22.11777 21.33932 0.03046
C 22.03257 28.47899 0.01511
C 20.87111 4.94537 -0.01594
C 20.93539 6.4341 0.00742
C 19.62503 7.13411 -0.00311
C 18.47043 0.63543 0.01739
C 17.2442 0.01964 0.00755
C 19.6818 32.64492 -0.0054
C 20.87294 31.95222 0.00667
C 20.82129 30.58541 0.00143
C 19.6244 29.77838 -0.017
C 19.63607 28.33241 0.00364
C 20.86889 27.73854 -0.00831
C 20.88522 26.28605 -0.02957
C 19.76181 25.37678 -0.04422
C 20.83843 23.68295 0.00654
C 20.87435 22.18461 -0.00703
C 19.80932 21.10482 -0.04076
C 19.3455 19.97429 -0.00652
C 21.15785 10.67989 0.0058
C 20.85607 9.22448 -0.00865
C 19.735 8.46755 0.00675
C 12.36074 24.12724 -0.00368
C 12.24995 25.60065 -0.0108
C 13.54942 26.24101 -0.01957
C 13.49097 27.65161 0.02058
C 2.50148 0.03063 0.00093
C 4.89527 32.70479 0.00057
C 6.17416 31.98264 -0.01634
C 6.14696 30.56366 -0.00334
C 4.95585 29.87327 0.02339
C 4.90696 28.4159 0.01641
C 6.0947 27.70257 -0.00719
C 3.6992 0.71992 0.01291
C 6.10662 26.27928 0.01364
C 4.91413 24.10225 -0.00033
C 6.10377 23.35915 0.03589
C 6.10481 21.90812 -0.02759
C 4.93552 21.2755 0.0402
C 4.85943 19.84501 0.00572
C 6.21056 19.31166 0.03592
C 4.73563 4.41598 0.00406
C 4.87818 25.62759 -0.01062
C 3.7165 2.1915 0.00438
C 2.46959 2.82159 -0.00191
C 2.35115 4.30049 0.00373
C 3.69558 30.54502 -0.0008
C 2.47136 29.81403 0.0288
C 2.46307 28.40417 0.00393
C 3.65192 27.72523 0.00895
C 3.68149 26.25395 0.00685
C 2.45676 25.66682 0.02888
C 2.45087 24.23028 -0.00482
C 3.65924 23.41995 -0.01384
C 3.63656 22.03204 0.03693
C 2.40948 21.37126 0.01745
C 2.38876 19.97401 0.00488
C 3.60702 19.22723 -0.01004
C 3.63443 17.90635 -0.02896
C 2.56485 16.94161 -0.00131
C 2.55276 15.56728 -0.01118
C 2.3963 7.19369 -0.014
C 3.69574 4.96049 0.02147
C 4.94556 2.83716 0.00943
C 22.19629 19.79834 0.0296
C 6.19304 2.25968 0.02841
C 4.95978 0.09896 -0.01275
C 9.84854 28.33595 0.0076
C 11.04504 27.69183 0.01241
C 11.01862 26.21519 -0.01454
C 9.71458 25.49082 0.01945
C 9.77165 24.06557 0.01416
C 11.00612 23.37474 0.03542
C 11.01288 21.81093 0.02299
C 9.79636 29.82212 0.02162
C 9.68836 21.31544 0.00244
C 11.14078 0.8139 0.05265
C 9.89755 0.02166 -0.01952
C 12.37932 32.72551 -0.02813
C 13.58875 31.99566 0.00374
C 13.52419 30.5775 0.00052
C 12.32526 29.88634 -0.03682
C 12.29047 28.40565 0.01965
C 11.12177 2.18716 -0.01717
C 11.10008 30.55214 -0.0014
C 11.08521 31.98759 0.00415
C 9.92447 32.78239 -0.02162
C 7.41306 32.77364 0.00985
C 8.63469 31.99904 -0.02245
C 8.59113 30.52996 -0.00428
C 7.33847 29.80337 0.03101
C 7.34174 28.38847 -0.01536
C 8.54752 27.6141 -0.02689
C 8.56903 26.28515 -0.01046
C 7.34095 25.56616 -0.00891
C 7.30494 24.08763 0.02819
C 8.50037 23.39532 0.00165
C 8.50669 22.0191 -0.02971
C 7.34611 21.23346 0.02894
C 7.22193 19.81438 -0.01789
C 7.55502 2.84541 0.00444
C 8.54426 2.17906 -0.00925
C 8.65959 0.72421 0.01877
C 7.38608 0.05603 0.01363
C 6.19943 0.79348 -0.01111
C 3.71451 31.94068 -0.01362
C 22.8948 18.81902 0.03374
C 23.39916 10.65534 -0.03213
C 33.19214 26.28426 0.00682
C 31.90504 25.60367 -0.01779
C 31.94007 24.159 0.03794
C 33.2181 23.43517 0.01927
C 33.23161 22.04996 0.01574
C 31.97876 21.40179 -0.02383
C 31.92382 19.95721 -0.01429
C 33.16273 27.72079 0.00026
C 33.17406 19.24022 -0.0136
C 31.94097 17.17542 -0.02474
C 31.98805 15.67141 0.00369
C 33.20649 14.96048 0.00455
C 33.24038 13.55019 -0.00644
C 31.96442 12.8456 -0.01839
C 32.02478 11.39963 0.00137
C 33.19625 10.69697 0.00199
C 33.26198 17.7602 0.00594
C 33.1564 9.25018 0.04381
C 31.90661 28.39079 0.0544
C 33.14462 30.53274 0.01428
C 30.71537 13.49075 -0.01303
C 29.47523 12.71367 -0.01461
C 29.45647 11.32316 -0.02155
C 30.76391 10.64972 -0.00944
C 30.7168 9.22976 -0.03735
C 29.46858 8.51492 -0.00971
C 29.41644 7.0458 0.01518
C 31.91388 29.79525 -0.02142
C 30.72493 6.34011 0.01908
C 29.4038 4.2681 0.0103
C 29.46396 2.80605 0.02108
C 30.71613 2.14109 0.00716
C 30.73855 0.68802 0.00307
C 29.47546 0.02737 0.00346
C 31.98223 32.66357 0.01713
C 33.20385 31.90632 -0.01694
C 30.71687 4.95071 0.07705
C 31.91606 8.53165 0.02806
C 31.93428 7.14424 0.01504
C 33.15085 6.40773 -0.00069
C 0.13033 16.96717 0.00648
C 0.08194 15.53544 0.02114
C 1.31006 14.72092 -0.02957
C 1.28905 13.36082 0.00343
C 0.01324 12.76083 -0.02656
C 34.36838 11.42442 -0.02442
C 1.03719 10.57919 -0.00027
C 1.36109 17.74111 0.01223
C 1.16258 9.22783 -0.00583
C 34.36407 7.07261 -0.02849
C 1.22253 6.45937 0.02931
C 1.19662 5.01427 0.00628
C 0.04607 4.29923 -0.0345
C 0.00049 2.88751 -0.00931
C 1.22283 2.17112 -0.00939
C 1.25106 0.63034 -0.00468
C 34.31263 8.50112 -0.02302
C 1.216 19.25472 -0.01678
C 34.3465 19.95444 0.01951
C 34.42078 21.35487 -0.02213
C 33.19509 4.9663 0.04926
C 31.96274 4.23792 -0.03838
C 31.92565 2.82424 0.00349
C 33.17171 2.12124 -0.00323
C 33.18307 0.70235 -0.00841
C 31.95395 0.02213 0.0001
C 34.39124 32.63658 -0.02927
C 1.19832 31.91952 -0.01404
C 1.19982 30.51943 0.01027
C 34.3895 29.81606 0.01831
C 34.37172 28.44553 -0.01037
C 1.21992 27.77493 -0.00439
C 1.23594 26.38778 -0.00598
C 34.41963 25.65766 -0.05239
C 34.42762 24.24787 0.03076
C 1.21099 23.5002 0.00723
C 1.2227 22.11063 0.02712
C 30.7469 14.87965 -0.0405
C 29.53661 15.5485 0.01705
C 29.49623 16.96647 0.0101
C 30.70359 17.87937 -0.00669
C 24.77304 15.90654 0.03102
C 25.83368 14.90592 0.02555
C 25.8263 13.50848 0.01423
C 24.54204 12.84179 -0.00285
C 24.66179 11.44677 -0.009
C 25.77154 10.61444 -0.01199
C 25.76318 9.24583 -0.00229
C 24.50657 17.34329 0.00135
C 24.57373 8.54996 -0.00938
C 25.73612 6.31389 -0.01154
C 25.76123 4.96863 0.00684
C 24.55361 4.28919 -0.01052
C 24.52618 2.91082 -0.01679
C 25.73927 2.14109 0.00367
C 25.76105 0.76299 0.04306
C 24.55405 0.02539 0.00996
C 24.57747 7.07327 -0.0264
C 25.86014 17.4341 -0.00498
C 24.46564 24.21167 0.02737
C 24.52729 25.62222 0.02117
C 23.30929 9.36434 0.02239
C 22.12467 8.60423 0.01153
C 22.13631 7.18017 0.02734
C 23.29415 6.36212 -0.0055
C 23.28495 4.94174 0.01515
C 22.04508 4.2828 -0.00225
C 22.09423 2.85224 0.00071
C 23.34298 2.14635 -0.01107
C 23.35326 0.75507 -0.01586
C 22.09597 0.0341 -0.01971
C 24.55737 32.69339 -0.02118
C 25.80264 32.00893 0.00733
C 25.74519 30.55078 -0.00178
C 24.52309 29.75056 0.00768
C 24.46165 28.40807 -0.0276
C 25.76152 27.66332 0.03005
C 25.76873 26.28424 -0.04078
C 27.06234 32.63866 0.00195
C 22.09011 11.32689 -0.02845
C 28.2916 31.87256 -0.00802
C 26.92358 29.7201 -0.01654
C 28.22238 0.72462 0.01699
C 27.07053 34.0581 -0.00416
C 29.44995 32.64318 0.01177
C 30.72718 32.00357 0.04266
C 30.7066 30.49519 0.01324
C 29.37269 29.74389 0.0014
C 29.36391 28.3485 0.00924
C 28.25893 2.12812 0.01799
C 30.61348 27.65851 0.02326
C 29.45464 25.48182 0.03265
C 29.49368 24.0446 -0.02049
C 30.73894 23.4547 -0.01854
C 30.73279 22.05091 -0.01415
C 29.48531 21.42787 -0.03039
C 29.3058 19.99316 0.01836
C 30.59594 19.277 0.03531
C 30.65021 26.26487 0.00261
C 26.98243 2.84628 0.01259
C 27.00474 4.22915 0.01495
C 28.18839 4.96821 0.00235
C 26.9684 28.33658 -0.00037
C 28.17234 27.56223 -0.0032
C 28.19543 26.15356 0.00622
C 26.93922 25.4682 -0.02815
C 28.28518 19.10972 -0.00942
C 28.33152 17.70594 0.00487
C 27.20681 16.88886 0.00826
C 27.07642 15.56231 -0.00294
C 28.29487 14.83433 0.00152
C 28.26991 13.48332 0.01257
C 27.07203 12.79961 0.02316
C 26.99802 11.34351 0.04185
C 28.20671 10.63415 0.00194
C 28.22654 9.17181 -0.00621
C 27.00737 8.46974 0.02611
C 26.99427 7.06897 0.02198
C 28.21214 6.35596 0.01094
C 28.21553 30.4653 -0.00218
C 2.46939 32.67207 -0.00892
