344
Graphene
C 0.00394 0.00843 0.01295
C 13.51854 6.37973 0.02098
C 13.49886 5.02041 0.01848
C 12.28039 4.30304 -0.00619
C 12.33046 2.84681 -0.02162
C 13.58206 2.18779 0.00889
C 13.54822 0.75242 -0.00481
C 12.25649 0.0264 0.00979
C 14.7448 32.64129 0.01443
C 15.95543 31.86382 0.03505
C 16.04118 30.44505 -0.02815
C 14.75683 29.7937 -0.04147
C 14.82128 28.34505 -0.05302
C 16.00927 27.62485 0.00213
C 16.01957 26.20649 -0.00066
C 14.69099 25.7823 -0.00289
C 16.24459 14.92263 0.00028
C 15.86384 13.46928 -0.02213
C 12.25706 7.0338 -0.03113
C 12.29964 8.40615 0.0351
C 13.50071 9.20068 0.00422
C 13.43478 10.6261 0.00798
C 9.82851 8.52879 0.03542
C 9.72878 7.132 0.02299
C 10.96108 6.45085 0.00244
C 11.0738 5.03397 -0.01717
C 9.90476 4.27794 0.05265
C 9.87355 2.87245 -0.01952
C 11.10838 2.15018 -0.02813
C 11.02111 0.74896 0.00374
C 14.72287 12.66371 0.03698
C 9.85042 0.01551 0.00052
C 13.51135 32.03333 0.01965
C 13.52259 30.61405 0.02058
C 12.3101 29.84978 -0.01957
C 12.37266 28.37828 -0.0108
C 13.5534 27.66949 -0.00368
C 13.60681 26.32355 -0.02696
C 12.51064 12.70855 -0.00114
C 12.24504 11.35046 0.00228
C 12.26233 32.67637 -0.03682
C 11.09827 9.12601 0.01416
C 14.68816 11.38373 -0.00109
C 16.01271 9.23597 0.03338
C 17.22287 15.54214 0.00654
C 18.52407 14.99357 -0.00703
C 18.46746 13.52926 -0.04076
C 17.20795 12.84712 -0.00652
C 17.17862 11.41773 0.0058
C 18.39845 10.59947 -0.00865
C 18.41057 9.20741 0.00675
C 17.22769 8.51665 -0.00311
C 17.17353 7.09634 0.00742
C 18.3833 6.43613 -0.01594
C 18.40644 5.01289 0.0106
C 17.20721 4.29321 -0.01154
C 17.28111 2.88372 -0.01721
C 18.48714 2.11475 -0.02422
C 18.42178 0.68249 0.01277
C 17.23024 34.07312 0.00096
C 19.7098 32.58237 -0.01527
C 18.39686 17.83494 -0.04422
C 18.43085 19.02083 -0.02957
C 18.49076 21.97223 -0.00831
C 18.37198 23.30227 0.00364
C 14.68531 8.56366 -0.0258
C 14.6946 7.16594 -0.0331
C 15.94483 6.42016 -0.00316
C 15.91468 5.04328 0.02188
C 14.69025 4.33872 -0.01979
C 14.80063 2.86335 0.02691
C 16.03101 2.13579 -0.01581
C 16.00514 0.71361 0.01452
C 15.9775 10.6927 -0.00491
C 14.7478 0.07057 0.04892
C 18.47314 31.97657 -0.03557
C 18.39096 30.52258 0.03754
C 17.22664 29.75206 0.01739
C 17.23239 28.34174 0.00755
C 18.43871 27.70032 -0.0054
C 18.4884 26.28409 0.00667
C 17.21692 25.52353 0.00143
C 17.19809 24.16476 -0.017
C 17.13389 32.60754 -0.00111
C 20.90095 31.93286 0.01087
C 11.04665 10.5749 0.01945
C 9.82099 12.77369 0.01241
C 2.4627 7.08432 0.00895
C 3.69963 6.3334 0.00685
C 3.63705 4.92012 0.02888
C 2.43565 4.15951 -0.00482
C 2.47326 2.79634 -0.01384
C 3.66795 2.0988 0.03693
C 3.73764 0.72442 0.01745
C 2.54914 34.04145 0.00488
C 4.93467 32.74051 -0.01004
C 6.11347 31.94073 -0.02896
C 6.11874 30.55439 -0.00131
C 4.90582 29.88815 -0.01118
C 4.95705 28.43949 -0.014
C 6.1759 27.68142 0.02147
C 6.09553 26.24631 0.00373
C 4.86302 25.54557 -0.00191
C 4.84443 24.21121 0.00438
C 2.43358 8.51478 0.00393
C 3.67099 9.29197 0.0288
C 3.69641 10.67275 -0.0008
C 2.47893 11.37962 -0.01362
C 3.6939 30.52882 0.00873
C 2.46009 29.89061 -0.00049
C 2.38688 28.44609 0.00848
C 3.64528 27.76377 -0.01303
C 3.64571 26.26871 -0.01378
C 2.41682 25.56548 0.02635
C 2.39499 24.13962 0.0127
C 3.82135 23.34146 0.01396
C 4.97211 15.64701 0.01291
C 3.57792 21.94777 0.01849
C 2.61539 19.84829 -0.00562
C 3.71487 18.98709 -0.00494
C 3.58414 17.80953 0.00054
C 2.46073 17.06983 0.03007
C 2.42756 15.64306 -0.00095
C 3.80904 14.93732 0.01572
C 3.69699 13.51467 -0.04848
C 2.46699 12.8028 -0.00892
C 2.43778 21.25197 -0.01142
C 9.83541 11.45323 -0.01454
C 6.12167 13.3446 0.00093
C 4.87873 11.38928 -0.01634
C 8.59031 9.30611 -0.02689
C 7.35156 8.53319 -0.01046
C 7.42433 7.12618 -0.00891
C 8.62894 6.3693 0.02819
C 8.69109 4.93227 0.00165
C 7.41204 4.32965 -0.02971
C 7.37888 2.93082 0.02894
C 8.57518 2.10214 -0.01789
C 8.55151 0.66551 0.00444
C 7.31091 34.07808 -0.00925
C 9.87366 32.67025 0.01877
C 11.08457 31.94526 0.01363
C 11.06205 30.59099 -0.02162
C 9.87846 29.87236 0.00415
C 9.84405 28.47823 -0.0014
C 11.12497 27.58981 0.02162
C 11.20823 26.29032 0.0076
C 8.61979 10.69444 -0.01536
C 7.32277 11.25891 0.03101
C 7.2115 12.73745 -0.00428
C 7.43542 25.73194 -0.02245
C 6.03243 10.60452 -0.00334
C 6.12206 9.19563 0.02339
C 4.89551 8.5533 0.01641
C 4.87988 7.13757 -0.00719
C 6.22397 6.42 0.01364
C 6.13787 4.9787 -0.01062
C 4.92893 4.27915 -0.00033
C 4.93913 2.8685 0.03589
C 4.84358 12.83642 0.00057
C 6.15644 2.19498 -0.02759
C 4.95543 0.07107 0.00572
C 7.34884 32.64883 0.03592
C 8.59192 32.00671 0.00406
C 8.61988 30.60947 0.00943
C 7.38314 29.87901 0.02841
C 7.36646 28.48394 -0.01111
C 8.63443 27.74765 -0.01275
C 8.37391 26.40163 0.00985
C 6.13509 0.76166 0.0402
C 20.90732 30.52506 0.00199
C 19.6557 29.83415 0.01511
C 19.66572 28.40901 -0.00478
C 29.48241 15.58068 -0.02142
C 30.70838 14.87976 0.0544
C 30.87535 13.4834 0.00026
C 30.80266 0.83004 0.00682
C 29.54842 0.12683 -0.01779
C 31.89139 32.67554 0.03794
C 33.09279 31.97234 0.01927
C 33.19954 30.54283 0.01574
C 31.95555 29.83232 -0.02383
C 31.92595 28.44137 -0.01429
C 33.17572 27.79027 -0.0136
C 33.25727 26.35651 0.00594
C 32.03759 25.53034 -0.02474
C 31.95513 24.1569 0.00369
C 33.18007 23.42408 0.00455
C 33.18127 22.00511 -0.00644
C 31.96701 21.30478 -0.01839
C 29.38902 17.01609 0.01428
C 30.64441 17.67857 -0.01694
C 30.72134 19.11307 0.01713
C 29.49917 19.90277 0.00346
C 28.23143 17.77374 0.03531
C 27.03037 17.04854 -0.00669
C 27.02688 15.44242 0.0101
C 28.29883 14.93662 0.01705
C 28.28581 0.73137 -0.0405
C 27.12887 0.07284 -0.01303
C 29.53439 32.67511 -0.01461
C 30.67975 31.93768 -0.02155
C 31.93157 19.89953 0.00137
C 30.75152 30.54166 -0.00944
C 29.45601 28.41589 -0.00971
C 30.72717 27.70811 0.01518
C 30.8083 26.20321 0.01908
C 29.55818 25.52416 0.07705
C 29.51456 24.1367 0.0103
C 30.71337 23.44367 0.02108
C 30.7262 22.06929 0.00716
C 29.51124 21.29729 0.00307
C 29.52605 29.77972 -0.03735
C 28.25199 19.21538 0.01836
C 33.21412 19.2075 0.00199
C 31.94498 17.02431 0.02806
C 1.25166 17.76192 0.01223
C 0.01977 17.08282 0.00648
C 0.01954 15.67009 0.02114
C 1.22631 14.89482 -0.02957
C 1.20386 13.43731 0.00343
C 0.00787 12.71864 -0.02656
C 34.34395 11.27 -0.02442
C 1.14522 10.65354 -0.00027
C 1.1328 9.25048 -0.00583
C 34.38656 8.41117 -0.02302
C 0.05486 7.25863 -0.02849
C 1.21256 6.34984 0.02931
C 1.21759 4.9235 0.00628
C 0.03451 4.25115 -0.0345
C 0.05279 2.85076 -0.00931
C 1.24039 2.03779 -0.00939
C 1.25315 0.66742 -0.00468
C 1.28382 19.1076 -0.01678
C 0.03235 19.8603 0.01951
C 0.02381 21.27575 -0.02213
C 1.22633 21.9799 0.02712
C 31.98923 15.57502 0.01504
C 33.20759 14.98223 -0.00069
C 33.23186 13.48069 0.04926
C 31.91117 13.03257 -0.03838
C 31.92878 2.84395 0.00349
C 33.15981 2.17717 -0.00323
C 33.24407 0.73335 -0.00841
C 31.92935 0.05816 0.0001
C 33.25251 17.73182 0.04381
C 34.36605 32.65946 -0.02927
C 1.22875 30.60206 0.01027
C 0.0537 29.88257 0.01831
C 0.01075 28.4181 -0.01037
C 1.16311 27.66582 -0.00439
C 1.16802 26.20376 -0.00598
C 34.41058 25.54368 -0.05239
C 34.42835 24.15421 0.03076
C 1.19146 23.3966 0.00723
C 1.1773 31.95633 -0.01404
C 26.98419 19.84119 -0.03039
C 27.0303 21.23614 -0.01415
C 28.25207 21.88227 -0.01854
C 19.62022 4.34081 -0.00178
C 19.69019 2.8853 0.00768
C 20.88546 2.11207 -0.0276
C 20.88774 0.69502 0.03005
C 19.67219 34.03314 -0.04078
C 22.10395 32.67498 0.02117
C 23.31427 31.95514 0.02737
C 23.37286 30.49092 -0.00498
C 22.15854 29.81469 0.00135
C 22.07644 28.43437 0.03102
C 23.35944 27.78806 0.02555
C 23.34422 26.33778 0.01423
C 22.10959 25.58803 -0.00285
C 22.13751 24.13883 -0.009
C 23.37826 23.51058 -0.01199
C 23.44468 22.00172 -0.00229
C 22.10354 21.26657 -0.00938
C 20.9466 4.97291 0.00733
C 20.78429 6.39547 -0.02118
C 19.65588 7.13073 -0.01971
C 19.68927 8.59435 -0.01586
C 20.90502 27.63787 -0.01662
C 20.88936 26.21583 -0.01185
C 19.60432 25.54591 0.01126
C 19.7173 24.15053 0.01852
C 20.90659 23.39506 -0.00381
C 20.87744 21.96218 0.03046
C 19.607 21.24136 0.0296
C 19.64443 19.87412 0.03374
C 22.1291 19.86387 -0.0264
C 20.86608 19.16211 -0.02845
C 19.65646 16.96728 0.02239
C 19.68225 15.62351 0.01153
C 20.93987 14.88878 0.02734
C 20.8947 13.46416 -0.0055
C 19.69915 12.69295 0.01515
C 19.60616 11.28674 -0.00225
C 20.96733 10.59644 0.00071
C 20.88348 9.25852 -0.01107
C 20.88854 17.75107 -0.03213
C 23.29235 19.15807 -0.01154
C 23.28647 17.74728 0.00684
C 22.08205 17.00194 -0.01052
C 24.58411 19.81567 0.02611
C 25.82795 19.14042 0.02198
C 25.83799 17.7428 0.01094
C 24.58476 17.0629 0.00235
C 24.52521 15.66264 0.01495
C 25.6367 14.86384 0.01259
C 25.82413 0.62203 0.01799
C 24.60902 0.02438 0.01699
C 24.62719 21.23042 -0.00621
C 27.07658 32.60801 -0.00416
C 28.26737 30.53695 0.04266
C 27.0601 29.80548 0.01324
C 27.03575 28.36412 0.0014
C 28.2478 27.65688 0.00924
C 28.27896 26.25115 0.02326
C 27.15377 25.46883 0.00261
C 27.14338 24.06476 0.03265
C 28.31119 23.36135 -0.02049
C 28.35443 31.92898 0.01177
C 3.70564 31.97939 0.01227
C 25.81502 21.99604 0.00194
C 24.68302 24.20809 0.02316
C 22.04998 15.58563 -0.01679
C 23.32611 14.88223 0.00367
C 23.45138 13.54922 0.04306
C 22.32478 12.7761 0.00996
C 22.1025 11.4408 0.00195
C 22.10064 4.29896 -0.00802
C 22.23022 2.83438 -0.00218
C 23.35593 2.10334 -0.01654
C 25.86673 23.43697 0.04185
C 23.3897 0.793 -0.00037
C 24.58892 32.66826 0.00622
C 25.81456 31.99425 -0.02815
C 25.79813 30.55328 -0.00942
C 24.62186 29.82375 0.00487
C 24.6078 28.42903 0.00826
C 25.82951 27.70108 -0.00294
C 25.86896 26.26049 0.00152
C 24.59411 25.61404 0.01257
C 22.10848 0.02396 -0.0032
C 2.48972 32.65776 -0.03337
