365
Graphene
C 0.01565 0.02884 0.01295
C 16.01588 31.91874 0.00052
C 15.974 10.72295 -0.03682
C 15.9647 9.28605 0.01965
C 14.80078 8.46564 0.02058
C 14.79331 7.14295 -0.01957
C 16.01815 6.41433 -0.0108
C 15.94229 4.93997 -0.00368
C 14.73159 4.22024 -0.02696
C 14.73799 32.54318 0.00374
C 14.75942 2.80045 -0.00114
C 16.03 0.72955 0.00798
C 14.7662 34.05748 0.00422
C 17.2562 32.59711 0.0351
C 18.49287 31.90563 -0.03113
C 17.20196 21.36721 0.02098
C 18.45664 19.0857 0.01848
C 18.46324 17.72675 -0.00619
C 18.38984 14.90304 -0.02162
C 16.05037 2.08006 0.00228
C 12.23418 34.04861 -0.02813
C 13.48444 0.72212 -0.01952
C 13.54196 2.07055 0.05265
C 11.03734 5.00779 0.02894
C 9.75984 4.32721 -0.01789
C 9.852 2.8788 0.00444
C 11.0891 2.15259 -0.00925
C 11.08266 0.72674 0.01877
C 9.85784 0.01063 0.01363
C 12.27516 32.66173 -0.02162
C 13.52204 31.93304 0.00415
C 13.56049 30.57111 -0.0014
C 12.33787 29.88755 0.02162
C 12.26137 28.38917 0.0076
C 12.267 25.58766 0.01241
C 12.33618 24.07848 -0.01454
C 13.50226 22.02499 0.01945
C 12.32932 7.1474 0.01416
C 13.58924 6.38247 0.03542
C 13.52936 4.91239 0.02299
C 12.29585 4.28557 0.00244
C 12.32617 2.80092 -0.01717
C 18.35862 13.49962 0.00889
C 17.22412 12.76988 -0.00481
C 17.26785 11.37385 0.00979
C 18.46222 10.67601 0.01443
C 19.69232 11.37143 -0.03557
C 20.87044 10.72737 0.03754
C 20.89178 9.24288 0.01739
C 19.6469 8.45595 0.00755
C 19.68717 7.06264 -0.0054
C 20.92335 6.43119 0.00667
C 20.916 4.93763 0.00143
C 19.64536 4.28066 -0.017
C 19.67821 2.88608 0.00364
C 20.93725 2.123 -0.00831
C 20.95947 0.77841 -0.02957
C 19.68254 34.04667 -0.04422
C 22.15478 32.66801 0.00654
C 23.37014 31.92778 -0.00703
C 23.41403 30.4869 -0.04076
C 22.09158 29.81931 -0.00652
C 22.13046 28.38754 0.0058
C 23.3555 27.62748 -0.00865
C 23.41241 26.22754 0.00675
C 19.67414 12.8191 -0.00111
C 11.0293 6.42307 -0.02971
C 20.88067 13.4874 0.04892
C 19.61015 15.66587 -0.01581
C 18.42051 9.25443 0.03505
C 17.19622 8.53309 -0.02815
C 17.25623 7.08476 -0.04147
C 18.46376 6.39593 -0.05302
C 18.44577 4.99063 0.00213
C 17.21236 4.28851 -0.00066
C 17.26658 2.85584 -0.00289
C 18.4825 2.14339 0.00028
C 18.46753 0.6661 -0.02213
C 17.1939 34.05822 0.03698
C 19.65976 32.61289 -0.00109
C 20.94355 31.94827 -0.00491
C 20.8663 30.53189 0.03338
C 20.86607 22.00266 -0.0258
C 19.63973 21.33034 -0.0331
C 19.6384 19.88761 -0.00316
C 20.85293 19.17517 0.02188
C 20.91959 17.77476 -0.01979
C 19.72 17.04106 0.02691
C 20.86797 14.88921 0.01452
C 9.82806 7.04003 0.00165
C 9.75432 19.83043 0.02819
C 9.9118 21.26654 -0.00891
C 3.64077 6.36623 0.00848
C 3.72507 4.96384 -0.01303
C 2.51716 4.29619 -0.01378
C 2.44619 2.89626 0.02635
C 3.71047 2.09872 0.0127
C 3.67019 0.7104 0.01396
C 2.45461 0.01713 0.01849
C 4.94974 32.70261 -0.01142
C 6.15524 31.87854 -0.00562
C 6.13391 30.51852 -0.00494
C 4.90246 29.82593 0.00054
C 4.89473 28.39068 0.03007
C 6.15061 27.69095 -0.00095
C 6.12272 26.32273 0.01572
C 4.91842 25.50864 -0.04848
C 4.92165 24.15431 -0.00892
C 6.15065 23.45374 -0.01362
C 6.14694 22.04036 -0.0008
C 4.88103 21.35956 0.0288
C 2.47558 7.11939 -0.00049
C 4.91448 19.86858 0.00393
C 2.45413 8.52705 0.00873
C 3.62405 10.67653 -0.03337
C 3.74825 30.48552 -0.00518
C 2.5324 29.84184 0.0086
C 2.43712 28.3876 -0.00643
C 3.75105 27.67566 0.017
C 3.70379 26.25557 -0.03113
C 2.41128 25.55059 -0.02566
C 2.42451 24.22321 -0.00094
C 3.67892 23.41973 0.02322
C 3.71991 21.97655 -0.00725
C 2.43217 21.33037 -0.05697
C 2.50995 19.88666 0.01087
C 3.67316 19.13259 -0.01343
C 3.72673 17.72277 0.00988
C 2.35663 17.01585 0.0276
C 2.43805 15.7041 0.01305
C 3.63316 14.93951 -0.00077
C 3.67012 13.56931 0.03368
C 2.52144 12.80714 -0.02929
C 2.46731 11.29675 -0.00966
C 3.75611 9.26308 0.01227
C 22.16568 24.18155 -0.00311
C 6.15603 19.21081 0.00895
C 4.93836 17.04639 0.02888
C 7.34068 7.07351 -0.01062
C 8.58662 6.39898 -0.00033
C 8.6198 4.97417 0.03589
C 7.38483 4.22524 -0.02759
C 7.38312 2.87364 0.0402
C 8.60777 2.19039 0.00572
C 8.55875 0.73237 0.03592
C 7.41046 0.00644 0.00406
C 9.87908 32.65504 0.00943
C 11.08214 31.99338 0.02841
C 11.02713 30.43714 -0.01111
C 9.82028 29.82234 -0.01275
C 9.79186 28.43007 0.00985
C 11.01386 27.65204 -0.02245
C 11.0621 26.27402 -0.00428
C 9.82016 25.58137 0.03101
C 9.80987 24.16559 -0.01536
C 11.09347 23.37085 -0.02689
C 11.08296 22.06036 -0.01046
C 8.64291 19.25175 0.01364
C 6.13182 17.77115 0.00685
C 7.38521 19.87328 -0.00719
C 8.62615 22.02481 0.02339
C 4.94991 8.53767 -0.00482
C 4.89871 7.09304 -0.01384
C 6.12669 6.42995 0.03693
C 6.18726 4.94377 0.01745
C 4.92292 4.30925 0.00488
C 4.8896 2.88334 -0.01004
C 6.16716 2.20834 -0.02896
C 6.11319 0.81327 -0.00131
C 4.91471 0.03153 -0.01118
C 7.37499 32.67332 -0.014
C 8.53953 31.9576 0.02147
C 8.61449 30.58177 0.00373
C 7.4035 29.82164 -0.00191
C 7.40561 28.39169 0.00438
C 8.58216 27.73416 0.01291
C 8.5894 26.32124 0.00093
C 7.39488 25.57618 0.00057
C 7.32194 24.1528 -0.01634
C 8.57581 23.47887 -0.00334
C 7.39119 21.2984 0.01641
C 3.71873 31.93338 -0.00074
C 23.31126 23.47737 0.00742
C 22.11572 21.31408 0.0106
C 29.55001 0.03686 0.00346
C 31.97754 32.60834 0.01713
C 33.19311 31.95971 -0.01694
C 33.16284 30.51866 0.01428
C 31.9896 29.81313 -0.02142
C 31.96696 28.43186 0.0544
C 33.13059 27.70136 0.00026
C 33.14659 26.28601 0.00682
C 30.72875 0.64747 0.00307
C 31.96995 25.59886 -0.01779
C 33.16139 23.42135 0.01927
C 33.22063 22.03832 0.01574
C 31.99281 21.27892 -0.02383
C 31.9676 19.88112 -0.01429
C 33.19849 19.20239 -0.0136
C 33.23146 17.75803 0.00594
C 31.99912 17.08741 -0.02474
C 31.98052 15.59182 0.00369
C 31.97326 24.15735 0.03794
C 30.72746 2.12166 0.00716
C 29.46649 2.89124 0.02108
C 29.54602 4.25786 0.0103
C 29.52414 24.06194 -0.02049
C 30.80276 23.41357 -0.01854
C 30.7483 22.04795 -0.01415
C 29.53028 21.33691 -0.03039
C 29.53765 19.87429 0.01836
C 30.72757 19.14945 0.03531
C 30.74122 17.72172 -0.00669
C 29.48566 17.06026 0.0101
C 29.56346 15.65309 0.01705
C 30.77617 14.84464 -0.0405
C 30.77912 13.45591 -0.01303
C 29.52702 12.80314 -0.01461
C 29.51985 11.39792 -0.02155
C 30.75491 10.60308 -0.00944
C 30.69517 9.24845 -0.03735
C 29.55112 8.47661 -0.00971
C 29.48433 7.05876 0.01518
C 30.71336 6.42051 0.01908
C 30.72133 4.95582 0.07705
C 33.1801 14.91807 0.00455
C 33.20507 13.48278 -0.00644
C 31.97849 12.72287 -0.01839
C 31.99456 11.32782 0.00137
C 0.00439 19.91741 0.01951
C 1.29579 19.16949 -0.01678
C 1.21087 17.68219 0.01223
C 0.00321 17.02334 0.00648
C 0.02826 15.5883 0.02114
C 1.19794 14.89458 -0.02957
C 1.25269 13.47548 0.00343
C 0.00099 12.77589 -0.02656
C 34.40049 11.37287 -0.02442
C 1.23251 10.73308 -0.00027
C 1.22497 9.24006 -0.00583
C 0.0302 8.57318 -0.02302
C 34.38864 7.12537 -0.02849
C 1.21725 6.38201 0.02931
C 1.22279 4.94967 0.00628
C 0.04027 4.27661 -0.0345
C 0.03939 2.82345 -0.00931
C 1.22809 2.10117 -0.00939
C 1.24318 0.73938 -0.00468
C 34.42719 21.3101 -0.02213
C 29.52732 25.58793 0.03265
C 1.17655 21.95496 0.02712
C 34.38891 24.13567 0.03076
C 33.17808 10.64097 0.00199
C 33.24516 9.2329 0.04381
C 31.91897 8.49212 0.02806
C 31.91068 7.12314 0.01504
C 33.17837 6.35947 -0.00069
C 33.17816 4.96756 0.04926
C 31.96242 4.22594 -0.03838
C 31.97472 2.90201 0.00349
C 33.20752 2.16415 -0.00323
C 33.20473 0.69614 -0.00841
C 31.97691 34.0575 0.0001
C 34.38632 32.63713 -0.02927
C 1.17533 31.97082 -0.01404
C 1.24373 30.54787 0.01027
C 0.03223 29.77806 0.01831
C 0.00496 28.39702 -0.01037
C 1.19661 27.71519 -0.00439
C 1.23958 26.29555 -0.00598
C 34.41602 25.63793 -0.05239
C 1.19344 23.4606 0.00723
C 30.702 26.26006 0.00261
C 30.76057 27.71032 0.02326
C 29.53657 28.39299 0.00924
C 24.60299 29.80368 -0.0055
C 24.56865 28.37628 0.01515
C 25.78962 27.6956 -0.00225
C 25.79553 26.30873 0.00071
C 24.57378 25.61959 -0.01107
C 24.60808 24.08598 -0.01586
C 25.81976 23.41179 -0.01971
C 25.76431 21.99612 -0.02118
C 24.58964 21.30894 0.00733
C 24.6169 19.86313 -0.00178
C 25.74695 19.1147 0.00768
C 25.78706 17.75509 -0.0276
C 24.59499 17.05264 0.03005
C 24.55384 15.56982 -0.04078
C 25.7809 14.93687 0.02117
C 25.87262 13.47102 0.02737
C 24.64093 12.79416 -0.00498
C 24.62875 11.38984 0.00135
C 25.80082 10.62218 0.03102
C 25.81969 30.46163 0.02734
C 25.80054 9.19191 0.02555
C 25.80324 31.92677 0.01153
C 22.14373 0.00136 -0.03213
C 22.15975 19.86544 -0.01154
C 23.34486 19.20364 -0.01721
C 23.27052 17.74749 -0.02422
C 22.07058 16.99796 0.01277
C 22.10977 15.54081 0.00096
C 23.31066 14.91143 -0.01527
C 23.41467 13.4595 0.01087
C 22.17187 12.75952 0.00199
C 22.0457 11.36943 0.01511
C 23.30475 10.6018 -0.00478
C 23.36401 9.22018 -0.01662
C 22.13224 8.49024 -0.01185
C 22.18946 7.04024 0.01126
C 23.40778 6.32441 0.01852
C 23.39187 4.94607 -0.00381
C 22.12938 4.25061 0.03046
C 22.16705 2.77733 0.0296
C 23.33492 2.08995 0.03374
C 23.34362 0.72414 -0.02845
C 24.64122 32.6387 0.02239
C 23.44047 21.95268 -0.01594
C 24.56436 8.48373 0.01423
C 25.82479 6.3765 -0.009
C 28.2995 14.91234 0.00152
C 28.28875 13.47372 0.01257
C 27.09113 12.77675 0.02316
C 27.0294 11.33583 0.04185
C 28.29936 10.6731 0.00194
C 28.33343 9.23026 -0.00621
C 27.11392 8.54304 0.02611
C 27.08771 7.13547 0.02198
C 28.29859 6.41012 0.01094
C 28.3164 4.90013 0.00235
C 27.0368 4.26224 0.01495
C 27.08878 2.86777 0.01259
C 28.26482 2.18339 0.01799
C 28.25658 0.70465 0.01699
C 27.05756 0.00715 -0.00416
C 29.46924 32.68335 0.01177
C 30.7431 31.92289 0.04266
C 30.77487 30.54169 0.01324
C 29.49222 29.87681 0.0014
C 27.03842 15.59131 -0.00294
C 24.62371 7.13378 -0.00285
C 27.07411 17.04196 0.00826
C 28.3314 19.13795 -0.00942
C 25.76822 4.92498 -0.01199
C 24.60996 4.28797 -0.00229
C 24.59158 2.82741 -0.00938
C 25.95053 2.18416 -0.0264
C 25.81819 0.75425 -0.01154
C 24.59789 0.00369 0.00684
C 27.0618 32.61757 -0.01052
C 28.21891 31.95172 -0.01679
C 28.21648 30.55162 0.00367
C 27.01725 29.81955 0.04306
C 27.02258 28.40137 0.00996
C 28.30989 27.65906 0.00195
C 28.21339 26.23842 -0.00802
C 27.04178 25.58547 -0.00218
C 27.01576 24.16969 -0.01654
C 28.24499 23.39638 -0.00037
C 28.26439 22.03359 -0.0032
C 27.03547 21.29746 0.00622
C 27.05111 19.843 -0.02815
C 28.26226 17.74916 0.00487
C 2.47835 32.585 0.01465
