358
Graphene
C 34.39221 0.01543 0.01295
C 17.18079 28.38946 -0.01957
C 18.54879 27.69069 -0.0108
C 18.4961 26.31248 -0.00368
C 17.27006 25.6649 -0.02696
C 17.28116 24.17495 -0.00114
C 18.44725 23.36805 0.00228
C 18.42797 21.9985 0.00798
C 17.20731 21.15756 0.00422
C 17.15617 29.9064 0.02058
C 17.25083 19.84369 0.0351
C 18.58854 17.7611 0.02098
C 18.55816 14.75013 0.01848
C 18.60335 13.46309 -0.00619
C 18.54235 10.69005 -0.02162
C 18.19257 9.33536 0.00889
C 17.3065 8.40362 -0.00481
C 17.13081 7.1152 0.00979
C 18.41012 6.33845 0.01443
C 18.361 19.12155 -0.03113
C 18.39171 4.92776 0.03505
C 18.40475 30.49374 0.01965
C 17.22084 32.70065 0.00052
C 15.96186 32.00409 0.01363
C 15.97324 30.59207 -0.02162
C 14.74489 29.82292 0.00415
C 14.76669 28.42708 -0.0014
C 15.98491 27.65419 0.02162
C 16.01638 26.27253 0.0076
C 14.82453 25.54338 0.01241
C 14.71742 24.11848 -0.01454
C 18.42133 31.92736 -0.03682
C 16.03157 23.42774 0.01945
C 14.75733 21.42203 0.03542
C 15.85926 6.31125 0.02299
C 15.90122 5.01263 0.00244
C 14.66958 4.25498 -0.01717
C 14.78546 2.78855 0.05265
C 16.02931 2.09168 -0.01952
C 15.95027 0.73943 -0.02813
C 14.68189 0.02072 0.00374
C 15.94709 21.94443 0.01416
C 17.20799 4.18713 -0.02815
C 17.30625 2.7637 -0.04147
C 18.50228 2.09325 -0.05302
C 20.86581 10.62845 -0.0054
C 20.88936 9.24665 0.00667
C 19.60899 8.6115 0.00143
C 19.58521 7.14214 -0.017
C 20.84732 6.38612 0.00364
C 20.86597 4.93468 -0.00831
C 19.62183 4.2375 -0.02957
C 19.75226 2.88829 -0.04422
C 19.69954 11.34605 0.00755
C 20.96146 2.05479 0.00654
C 19.63768 0.03237 -0.04076
C 22.13037 32.59243 -0.00652
C 23.36713 31.93842 0.0058
C 23.35699 30.52052 -0.00865
C 22.16663 29.76961 0.00675
C 22.1172 28.39625 -0.00311
C 23.38173 27.65046 0.00742
C 23.394 26.28887 -0.01594
C 20.93057 0.72445 -0.00703
C 19.63608 12.74523 0.01739
C 20.80474 13.48831 0.03754
C 20.84166 14.95091 -0.03557
C 18.4377 0.7083 0.00213
C 17.20786 34.04168 -0.00066
C 19.70992 32.64949 -0.00289
C 20.9412 31.95315 0.00028
C 20.92927 30.54645 -0.02213
C 19.6873 29.87383 0.03698
C 19.69218 28.47887 -0.00109
C 20.91884 27.7292 -0.00491
C 20.92779 26.31899 0.03338
C 19.70425 25.57725 -0.0258
C 19.68909 24.16324 -0.0331
C 20.93863 23.41431 -0.00316
C 20.91297 21.98946 0.02188
C 19.57913 21.3069 -0.01979
C 19.62963 19.88647 0.02691
C 20.85111 19.16436 -0.01581
C 20.8706 17.74095 0.01452
C 19.65488 16.99682 0.04892
C 19.55317 15.61496 -0.00111
C 14.72222 32.71747 0.01877
C 12.24428 34.06784 -0.00925
C 13.48967 0.6883 0.00444
C 13.5569 2.11769 -0.01789
C 4.86279 29.77075 -0.01142
C 4.91491 28.3655 -0.00562
C 6.20297 27.69616 -0.00494
C 6.20409 26.27393 0.00054
C 4.96033 25.57218 0.03007
C 4.96707 24.12905 -0.00095
C 6.21907 23.39264 0.01572
C 6.01075 22.06191 -0.04848
C 6.03699 30.56478 0.01849
C 4.82266 21.50865 -0.00892
C 6.02656 6.30316 -0.0008
C 6.13456 4.99872 0.0288
C 4.90809 4.28426 0.00393
C 4.8921 2.91327 0.00895
C 6.14459 2.20986 0.00685
C 6.15454 0.76869 0.02888
C 4.89056 0.13279 -0.00482
C 7.37952 32.76023 -0.01384
C 4.97843 7.04558 -0.01362
C 6.08763 32.05303 0.01396
C 4.87991 32.65954 0.0127
C 2.44586 0.04755 0.02635
C 3.64408 30.51602 0.02322
C 2.40164 29.84041 -0.00725
C 2.46738 28.34631 -0.05697
C 3.67856 27.67924 0.01087
C 3.71481 26.23146 -0.01343
C 2.48563 25.52538 0.00988
C 2.45798 24.11008 0.0276
C 3.73891 23.3985 0.01305
C 3.67557 21.99329 -0.00077
C 2.41935 21.26665 0.03368
C 2.39462 20.02049 -0.02929
C 2.44943 8.47003 -0.00966
C 2.50247 7.11787 -0.03337
C 3.7133 6.45254 0.01227
C 3.67043 4.99108 0.00873
C 2.37765 4.26685 -0.00049
C 2.39332 2.90001 0.00848
C 3.60931 2.19164 -0.01303
C 3.70964 0.78146 -0.01378
C 8.54351 31.94045 0.03693
C 22.12276 25.57293 0.0106
C 8.53417 30.58994 0.01745
C 7.34599 28.4312 -0.01004
C 9.89452 2.96182 0.03592
C 11.07394 2.14465 0.00406
C 11.04052 0.72389 0.00943
C 9.80168 0.09553 0.02841
C 12.30935 32.65753 -0.01111
C 13.52048 31.91664 -0.01275
C 13.52398 30.55172 0.00985
C 12.25755 29.87078 -0.02245
C 9.79555 4.57982 0.00572
C 12.31328 28.44158 -0.00428
C 13.59097 26.37068 -0.01536
C 12.38685 25.59473 -0.02689
C 12.28361 24.05585 -0.01046
C 13.42967 23.32055 -0.00891
C 13.53474 21.92502 0.02819
C 13.49039 4.88174 0.00165
C 12.25115 4.30191 -0.02971
C 12.31537 2.78995 0.02894
C 13.55991 27.75906 0.03101
C 11.09276 4.98605 0.0402
C 11.13782 23.43977 -0.02759
C 9.92374 24.07859 0.03589
C 8.61868 27.74487 -0.02896
C 8.59563 26.32517 -0.00131
C 7.44414 25.58762 -0.01118
C 7.43591 24.09352 -0.014
C 8.64965 23.59784 0.02147
C 8.51568 4.96503 0.00373
C 7.36076 4.29977 -0.00191
C 7.3424 2.92663 0.00438
C 8.68375 2.24579 0.01291
C 8.61202 0.82722 0.00093
C 7.3639 0.11191 0.00057
C 9.74989 32.62806 -0.01634
C 10.98524 32.00903 -0.00334
C 10.99454 30.60214 0.02339
C 9.84275 29.85233 0.01641
C 9.81939 28.40643 -0.00719
C 11.06418 27.69086 0.01364
C 11.12518 26.24372 -0.01062
C 9.88309 25.61385 -0.00033
C 7.31084 29.81935 0.00488
C 22.05651 24.15465 -0.01154
C 23.29968 23.44126 -0.01721
C 23.35707 21.97574 -0.02422
C 31.9758 32.61701 0.01713
C 33.19079 31.99069 -0.01694
C 33.20869 30.55703 0.01428
C 32.02298 29.84108 -0.02142
C 32.0135 28.41221 0.0544
C 33.22703 27.72482 0.00026
C 33.11517 26.27122 0.00682
C 31.92877 25.60045 -0.01779
C 29.61143 0.0702 0.00346
C 31.8984 24.14971 0.03794
C 33.13014 22.05116 0.01574
C 31.85604 21.2438 -0.02383
C 31.94819 19.86562 -0.01429
C 33.22269 19.18325 -0.0136
C 33.26347 17.78477 0.00594
C 32.01598 16.96064 -0.02474
C 32.01918 15.60913 0.00369
C 33.28589 14.83442 0.00455
C 33.11972 23.47126 0.01927
C 30.77445 0.76454 0.00307
C 30.74386 2.16046 0.00716
C 29.38723 2.86709 0.02108
C 30.67538 23.44702 -0.01854
C 30.66204 22.02377 -0.01415
C 29.4993 21.25298 -0.03039
C 29.50663 19.89443 0.01836
C 30.75605 19.11645 0.03531
C 30.73788 17.71188 -0.00669
C 29.54496 17.04583 0.0101
C 29.54973 15.63407 0.01705
C 30.72069 14.90976 -0.0405
C 30.76369 13.48323 -0.01303
C 29.55518 12.75266 -0.01461
C 29.47948 11.35352 -0.02155
C 30.60645 10.65955 -0.00944
C 30.66102 9.19607 -0.03735
C 29.50161 8.42733 -0.00971
C 29.46855 7.05764 0.01518
C 30.75479 6.38094 0.01908
C 30.63785 4.99085 0.07705
C 29.35881 4.3112 0.0103
C 33.24466 13.43513 -0.00644
C 29.41334 24.20925 -0.02049
C 32.01966 12.74395 -0.01839
C 33.22035 10.63882 0.00199
C 1.35462 19.10775 -0.01678
C 1.09735 17.80652 0.01223
C 0.00037 17.06912 0.00648
C 0.0846 15.58104 0.02114
C 1.19697 14.78723 -0.02957
C 1.24341 13.51914 0.00343
C 0.13994 12.77161 -0.02656
C 0.00341 11.26465 -0.02442
C 0.01168 19.96777 0.01951
C 1.11018 10.51665 -0.00027
C 34.42611 8.51116 -0.02302
C 34.36394 7.05522 -0.02849
C 1.2153 6.45464 0.02931
C 1.2381 5.00984 0.00628
C 0.00849 4.34248 -0.0345
C 34.34319 2.86155 -0.00931
C 1.13754 2.11303 -0.00939
C 1.17926 0.73646 -0.00468
C 1.37603 9.26256 -0.00583
C 34.38941 21.34192 -0.02213
C 1.17029 22.07993 0.02712
C 1.23808 23.48974 0.00723
C 33.2422 9.20802 0.04381
C 31.9691 8.54878 0.02806
C 31.97633 7.08349 0.01504
C 33.17353 6.37158 -0.00069
C 33.15831 4.9347 0.04926
C 31.91218 4.22177 -0.03838
C 31.93989 2.83665 0.00349
C 33.23285 2.13589 -0.00323
C 33.17914 0.68237 -0.00841
C 31.96348 34.02635 0.0001
C 0.01121 32.70543 -0.02927
C 1.2128 32.04203 -0.01404
C 1.18587 30.53466 0.01027
C 34.39563 29.86824 0.01831
C 0.01217 28.42461 -0.01037
C 1.19797 27.68733 -0.00439
C 1.16622 26.24486 -0.00598
C 34.35532 25.53431 -0.05239
C 34.39115 24.14383 0.03076
C 31.94239 11.41187 0.00137
C 3.64778 31.92403 -0.00094
C 29.39923 25.57464 0.03265
C 30.80459 27.74191 0.02326
C 25.83058 30.58135 0.00071
C 24.61254 29.84886 -0.01107
C 24.55126 28.43408 -0.01586
C 25.78935 27.73117 -0.01971
C 25.75591 26.3279 -0.02118
C 24.57843 25.54271 0.00733
C 24.50036 24.17223 -0.00178
C 25.71888 23.45955 0.00768
C 25.82958 32.05745 -0.00225
C 25.72318 21.95515 -0.0276
C 24.58209 19.83088 -0.04078
C 25.83496 19.15398 0.02117
C 25.79724 17.72174 0.02737
C 24.52184 16.9772 -0.00498
C 24.57596 15.6016 0.00135
C 25.83936 14.88341 0.03102
C 25.79698 13.41146 0.02555
C 24.52928 12.694 0.01423
C 24.52709 21.26234 0.03005
C 24.5677 32.65119 0.01515
C 22.17987 0.03361 -0.0055
C 23.41074 0.73545 0.02734
C 22.10421 21.26905 0.01277
C 22.14787 19.86351 0.00096
C 23.32001 19.10265 -0.01527
C 23.27478 17.67161 0.01087
C 22.05458 17.02563 0.00199
C 22.11552 15.59892 0.01511
C 23.36133 14.93585 -0.00478
C 23.32728 13.43895 -0.01662
C 22.09842 12.80218 -0.01185
C 22.09367 11.38399 0.01126
C 23.35845 10.64895 0.01852
C 23.39471 9.15414 -0.00381
C 22.08524 8.49441 0.03046
C 22.02901 7.06144 0.0296
C 23.34449 6.30445 0.03374
C 23.37558 4.9491 -0.02845
C 22.10007 4.16559 -0.03213
C 22.19336 2.7188 0.02239
C 23.44546 2.14603 0.01153
C 24.57877 11.31448 -0.00285
C 30.65837 26.32895 0.00261
C 25.91344 10.55385 -0.009
C 24.56832 8.40943 -0.00229
C 27.04758 17.03645 0.02316
C 27.02668 15.53166 0.04185
C 28.30306 14.87977 0.00194
C 28.27895 13.4504 -0.00621
C 27.06166 12.73137 0.02611
C 27.10227 11.34111 0.02198
C 27.0867 8.50036 0.01094
C 27.08327 7.19853 0.00235
C 28.23115 17.7545 0.01257
C 28.27461 6.44002 0.01495
C 28.20469 2.06528 0.01799
C 28.36351 0.7462 0.01699
C 27.1564 34.07015 -0.00416
C 29.56368 32.68927 0.01177
C 30.73183 31.89703 0.04266
C 30.73475 30.54855 0.01324
C 29.60209 29.7796 0.0014
C 29.54042 28.38389 0.00924
C 28.11446 5.03685 0.01259
C 28.2934 19.22992 0.00152
C 27.01749 19.90712 -0.00294
C 26.98407 21.33198 0.00826
C 24.51611 6.97071 -0.00938
C 25.83569 6.43374 -0.0264
C 25.81145 5.08066 -0.01154
C 24.71432 4.32528 0.00684
C 24.84148 2.81856 -0.01052
C 25.99739 2.05647 -0.01679
C 25.91549 0.69294 0.00367
C 24.61061 34.06504 0.04306
C 27.08621 32.68453 0.00996
C 28.36925 32.01407 0.00195
C 28.29803 30.55845 -0.00802
C 27.09766 29.89451 -0.00218
C 27.06917 28.5017 -0.01654
C 28.26535 27.72698 -0.00037
C 28.16363 26.2578 -0.0032
C 26.95811 25.54845 0.00622
C 26.94771 24.1579 -0.02815
C 28.17055 23.41846 -0.00942
C 28.17449 22.03438 0.00487
C 25.88118 9.17789 -0.01199
C 2.44114 32.67652 -0.02566
