438
Graphene
C 0.0182 0.02907 0.01295
C 12.35505 21.29259 -0.00334
C 12.26002 19.95163 0.02339
C 13.52887 19.22214 0.01641
C 13.57283 17.7465 -0.00719
C 12.36265 17.1123 0.01364
C 12.32446 15.6726 -0.01062
C 13.46502 14.87892 -0.00033
C 13.46621 13.46382 0.03589
C 12.25244 12.66234 -0.02759
C 12.29878 11.32247 0.0402
C 13.57653 10.67744 0.00572
C 13.56144 9.2016 0.03592
C 12.32699 8.51273 0.00406
C 12.33006 7.08659 0.00943
C 13.50447 6.46996 0.02841
C 13.5291 4.94854 -0.01111
C 12.29842 4.1873 -0.01275
C 12.2388 2.80095 0.00985
C 13.57419 2.05875 -0.02245
C 13.47029 0.69415 -0.00428
C 12.24875 0.05086 0.03101
C 14.7621 32.61545 -0.01536
C 15.95415 32.00483 -0.02689
C 13.46154 22.07839 -0.01634
C 16.02947 30.58245 -0.01046
C 13.55644 23.46621 0.00057
C 12.31049 25.59487 0.01291
C 9.83735 15.62581 -0.04848
C 11.06069 14.93529 -0.00892
C 11.07566 13.48451 -0.01362
C 9.84155 12.82795 -0.0008
C 9.85684 11.46864 0.0288
C 11.04511 10.68003 0.00393
C 11.0515 9.30999 0.00895
C 9.86158 8.46411 0.00685
C 9.85792 7.08239 0.02888
C 11.09859 6.39996 -0.00482
C 11.14169 4.95073 -0.01384
C 9.81088 4.20091 0.03693
C 9.82432 2.86383 0.01745
C 11.06989 2.09067 0.00488
C 10.9839 0.70944 -0.01004
C 9.83158 0.00502 -0.02896
C 12.39187 32.67885 -0.00131
C 13.53672 31.96309 -0.01118
C 13.5538 30.53716 -0.014
C 12.24694 29.92338 0.02147
C 12.28788 28.44313 0.00373
C 13.51261 27.63719 -0.00191
C 13.5285 26.24222 0.00438
C 12.32222 24.20506 0.00093
C 14.78388 29.79694 -0.00891
C 14.72654 28.41625 0.02819
C 15.97784 27.72655 0.00165
C 18.45881 30.50766 -0.01957
C 17.27445 29.88886 -0.0108
C 17.23329 28.37059 -0.00368
C 18.47049 27.67384 -0.02696
C 18.46061 26.24792 -0.00114
C 17.24485 25.52242 0.00228
C 17.13966 24.14357 0.00798
C 18.40758 23.41184 0.00422
C 18.45653 21.9491 0.0351
C 17.2314 21.25803 -0.03113
C 17.19049 19.8903 0.02098
C 18.40613 19.16579 0.01848
C 18.40904 17.75994 -0.00619
C 17.13644 17.10761 -0.02162
C 17.19306 15.67772 0.00889
C 18.4111 14.94244 -0.00481
C 18.4791 13.47048 0.00979
C 17.2315 12.76876 0.01443
C 17.22028 11.38391 0.03505
C 18.44776 10.69783 -0.02815
C 18.49396 9.27124 -0.04147
C 17.22035 8.54178 -0.05302
C 17.21735 7.06636 0.00213
C 18.41101 31.91355 0.02058
C 17.20326 32.64047 0.01965
C 14.78287 0.01962 -0.03682
C 15.96181 0.7168 0.00052
C 15.95545 26.29402 -0.02971
C 14.72496 25.57908 0.02894
C 14.74712 24.13461 -0.01789
C 15.91104 23.43302 0.00444
C 15.98122 22.02733 -0.00925
C 14.79753 21.28819 0.01877
C 14.74657 19.86819 0.01363
C 15.9723 19.10286 -0.02162
C 15.93489 17.73037 0.00415
C 14.76296 17.00395 -0.0014
C 14.71728 15.58483 0.02162
C 9.85071 17.02821 0.01572
C 16.03417 14.91528 0.0076
C 14.71565 12.83102 -0.01454
C 14.77107 11.33053 0.01945
C 15.9527 10.67245 0.01416
C 15.977 9.26134 0.03542
C 14.77482 8.55796 0.02299
C 14.77373 7.0459 0.00244
C 15.9688 6.39017 -0.01717
C 15.95936 4.98069 0.05265
C 14.71444 4.24697 -0.01952
C 14.75262 2.83455 -0.02813
C 15.98319 2.18308 0.00374
C 16.01219 13.43132 0.01241
C 11.07833 17.77859 -0.00095
C 11.09141 19.18785 0.03007
C 9.84991 19.8683 0.00054
C 3.63214 0.77385 0.00828
C 2.48056 0.05067 -0.02375
C 4.92491 32.63834 0.00558
C 6.14114 31.94152 -0.0059
C 6.10726 30.56219 -0.01386
C 4.95483 29.76547 -0.02805
C 4.98045 28.41172 0.00081
C 6.13525 27.66822 0.00245
C 6.23071 26.23296 0.02728
C 4.93114 25.53843 -0.00039
C 4.83526 24.11276 0.0064
C 6.11589 23.51817 0.00211
C 6.16753 22.0103 -0.00449
C 4.96905 21.27123 -0.01979
C 4.88784 19.88627 0.02784
C 6.18967 19.15588 -0.01977
C 6.13662 17.70512 -0.00561
C 4.96569 17.01768 0.00208
C 4.83071 15.58268 0.01707
C 6.12789 15.00133 0.02769
C 6.12109 13.54396 -0.03291
C 4.92038 12.79034 -0.04999
C 4.96125 11.38999 0.04505
C 3.696 2.07625 0.00088
C 2.50484 2.85693 0.04421
C 2.49285 4.30563 -0.00177
C 3.68822 5.00854 0.03278
C 3.66579 30.5209 -0.00018
C 2.40615 29.74896 0.01073
C 2.44353 28.35001 0.01984
C 3.74652 27.69399 0.00535
C 3.70791 26.24934 -0.00198
C 2.46988 25.60785 -0.00012
C 2.45875 24.21187 -0.04306
C 3.62977 23.41947 -0.03672
C 3.75677 21.99047 0.01913
C 2.52256 21.32302 0.00267
C 2.4817 19.93458 0.00787
C 6.10099 10.53679 0.03284
C 3.662 19.16368 0.02426
C 2.41756 17.04723 -0.01471
C 2.40304 15.55769 -0.02827
C 3.67966 14.89447 0.01078
C 3.67995 13.5076 -0.00112
C 2.44406 12.78581 0.03345
C 2.4913 11.28055 0.00748
C 3.68912 10.66536 0.00662
C 3.66524 9.24374 -0.0154
C 2.47753 8.53241 -0.01299
C 2.4623 7.07158 -0.00407
C 3.72111 6.38471 0.01138
C 3.73362 17.78466 0.01218
C 18.4272 6.38292 -0.00066
C 6.08548 9.24035 -0.04307
C 4.95808 7.08343 0.00031
C 8.62521 10.72149 0.01087
C 8.61227 9.26994 -0.01343
C 7.39882 8.5917 0.00988
C 7.31605 7.2065 0.0276
C 8.56781 6.45113 0.01305
C 8.61542 5.00213 -0.00077
C 7.30739 4.27367 0.03368
C 7.3967 2.87728 -0.02929
C 8.62673 2.11285 -0.00966
C 8.60954 0.69795 -0.03337
C 7.34707 0.04535 0.01227
C 9.84316 32.72963 0.00873
C 11.10273 31.97486 -0.00049
C 10.99999 30.54247 0.00848
C 9.78671 29.86151 -0.01303
C 9.84782 28.38051 -0.01378
C 11.09682 27.69253 0.02635
C 11.01346 26.32845 0.0127
C 9.80166 25.60243 0.01396
C 9.90899 24.21224 0.01849
C 11.10867 23.3881 -0.01142
C 11.05977 22.01521 -0.00562
C 9.78345 21.28078 -0.00494
C 7.37931 11.34621 -0.05697
C 7.34163 12.79965 -0.00725
C 8.51383 13.49054 0.02322
C 8.54812 14.89741 -0.00094
C 6.11956 6.3542 -0.003
C 6.14329 5.03031 0.01402
C 4.87325 4.27311 0.02379
C 4.93306 2.89088 0.00907
C 6.15114 2.11284 0.00643
C 6.12159 0.71081 -0.01509
C 4.90381 0.02302 0.03267
C 7.43145 32.67202 0.02374
C 8.6615 32.01368 0.00402
C 8.59826 30.52741 0.0073
C 7.36507 29.83168 0.0174
C 4.88092 8.50673 0.03189
C 7.31201 28.45319 0.03828
C 8.63961 26.27245 -0.00279
C 7.40008 25.51497 0.01996
C 7.43816 24.10993 -0.03996
C 8.62315 23.46282 0.01465
C 8.6086 22.04176 -0.00074
C 7.40815 21.3091 -0.00518
C 7.37172 19.87379 0.0086
C 8.60591 19.16677 -0.00643
C 8.58558 17.79049 0.017
C 7.43305 17.08279 -0.03113
C 7.38794 15.56907 -0.02566
C 8.64361 27.67248 0.01226
C 18.47865 4.98698 -0.00289
C 17.22508 4.2964 0.00028
C 17.23217 2.79499 -0.02213
C 30.70217 14.92229 -0.0405
C 30.7831 13.44152 -0.01303
C 29.47895 12.74306 -0.01461
C 29.46771 11.3784 -0.02155
C 30.71843 10.62968 -0.00944
C 30.69597 9.24849 -0.03735
C 29.50214 8.52369 -0.00971
C 29.52761 7.04289 0.01518
C 30.78758 6.38578 0.01908
C 30.75429 5.00587 0.07705
C 29.57896 4.24043 0.0103
C 29.51081 2.75628 0.02108
C 30.7683 2.12497 0.00716
C 30.78869 0.67614 0.00307
C 29.47595 34.06502 0.00346
C 31.9829 32.63598 0.01713
C 33.19682 31.96064 -0.01694
C 33.19152 30.54649 0.01428
C 31.9968 29.88749 -0.02142
C 31.96599 28.40454 0.0544
C 33.23545 27.75245 0.00026
C 33.15742 26.30624 0.00682
C 31.96262 25.55949 -0.01779
C 29.50319 15.6091 0.01705
C 29.55428 17.08313 0.0101
C 30.78227 17.73131 -0.00669
C 30.70913 19.11475 0.03531
C 28.30162 10.71555 0.00194
C 28.25731 9.27971 -0.00621
C 27.0881 8.56622 0.02611
C 27.01859 7.03647 0.02198
C 28.25783 6.35467 0.01094
C 28.27988 4.95443 0.00235
C 27.11456 4.25798 0.01495
C 26.99753 2.81204 0.01259
C 28.22632 2.12968 0.01799
C 28.26175 0.66419 0.01699
C 27.01942 34.07341 -0.00416
C 31.97797 24.08737 0.03794
C 29.50059 32.71304 0.01177
C 30.75334 30.57101 0.01324
C 29.52575 29.81044 0.0014
C 29.52956 28.38042 0.00924
C 30.70691 27.64726 0.02326
C 30.66883 26.26673 0.00261
C 29.49946 25.55747 0.03265
C 29.5516 24.07215 -0.02049
C 30.76291 23.42342 -0.01854
C 30.72659 22.06772 -0.01415
C 29.53485 21.33687 -0.03039
C 29.5036 19.93208 0.01836
C 30.71113 31.96636 0.04266
C 27.03843 12.76661 0.04185
C 33.21277 23.46701 0.01927
C 31.99483 21.30429 -0.02383
C 0.01583 24.16152 0.03076
C 1.20507 23.41162 0.00723
C 1.20435 22.01037 0.02712
C 34.41343 21.32339 -0.02213
C 34.41593 19.95797 0.01951
C 1.23914 19.13216 -0.01678
C 1.22062 17.71189 0.01223
C 34.36703 17.01462 0.00648
C 34.41673 15.62323 0.02114
C 1.25 14.89734 -0.02957
C 1.16404 13.41854 0.00343
C 34.40175 12.76158 -0.02656
C 0.00648 11.35505 -0.02442
C 1.21106 10.60591 -0.00027
C 1.19221 9.24692 -0.00583
C 0.02579 8.47938 -0.02302
C 0.01013 7.08483 -0.02849
C 1.26106 6.39158 0.02931
C 1.20126 4.93345 0.00628
C 0.01348 4.18291 -0.0345
C 34.41754 2.78813 -0.00931
C 1.21237 2.12679 -0.00939
C 1.2414 0.72709 -0.00468
C 0.03868 25.54774 -0.05239
C 1.21968 26.31228 -0.00598
C 1.14243 27.6892 -0.00439
C 34.37367 28.39778 -0.01037
C 31.9655 19.81669 -0.01429
C 33.16727 19.18931 -0.0136
C 33.23821 17.74117 0.00594
C 32.0172 17.02813 -0.02474
C 31.89008 15.62247 0.00369
C 33.14113 14.83165 0.00455
C 33.2175 13.45731 -0.00644
C 31.98275 12.74197 -0.01839
C 32.00586 11.2935 0.00137
C 33.23895 10.59649 0.00199
C 33.23485 9.20181 0.04381
C 33.19505 22.02268 0.01574
C 31.99735 8.46399 0.02806
C 33.16295 6.36382 -0.00069
C 33.18782 4.99218 0.04926
C 32.02833 4.21728 -0.03838
C 32.05969 2.80182 0.00349
C 33.17968 2.06997 -0.00323
C 33.20054 0.68412 -0.00841
C 31.98997 34.07004 0.0001
C 0.0043 32.64352 -0.02927
C 1.28518 31.97407 -0.01404
C 1.19549 30.51858 0.01027
C 34.42904 29.84549 0.01831
C 32.01536 7.09079 0.01504
C 3.74733 31.96736 -0.0005
C 28.27729 13.50923 0.02316
C 27.04351 15.65068 0.00152
C 20.9359 6.30343 -0.04076
C 20.91832 4.9619 -0.00652
C 19.71342 4.28576 0.0058
C 19.64704 2.90666 -0.00865
C 20.85978 2.13284 0.00675
C 20.90681 0.73518 -0.00311
C 19.63081 0.02767 0.00742
C 22.13975 32.6274 -0.01594
C 23.40882 31.97478 0.0106
C 23.34571 30.60007 -0.01154
C 22.12149 29.78708 -0.01721
C 22.16928 28.45163 -0.02422
C 23.39462 27.67895 0.01277
C 23.38521 26.23157 0.00096
C 22.05054 25.51214 -0.01527
C 22.15798 24.14501 0.01087
C 23.34876 23.39617 0.00199
C 23.49522 22.05453 0.01511
C 22.11468 21.33126 -0.00478
C 22.13165 19.86707 -0.01662
C 23.37836 19.1423 -0.01185
C 23.27756 17.73636 0.01126
C 22.06018 17.04959 0.01852
C 19.63031 7.08469 -0.00703
C 19.64358 8.51436 0.00654
C 20.97135 9.21688 -0.04422
C 20.78821 10.62134 -0.02957
C 18.4421 2.12331 0.03698
C 18.39241 0.70994 -0.00109
C 17.16973 34.03336 -0.00491
C 19.62878 32.68264 0.03338
C 20.89801 31.94795 -0.0258
C 20.88702 30.50644 -0.0331
C 19.65005 29.82453 -0.00316
C 19.69383 28.31109 0.02188
C 20.94088 27.69371 -0.01979
C 20.89516 26.25659 0.02691
C 19.68327 25.56003 -0.01581
C 22.23968 15.67487 -0.00381
C 19.67488 24.15009 0.01452
C 20.86297 21.94489 -0.00111
C 19.6673 21.26317 -0.03557
C 19.67191 19.90096 0.03754
C 20.86323 19.18835 0.01739
C 20.90066 17.73147 0.00755
C 19.72181 17.07472 -0.0054
C 19.71168 15.63247 0.00667
C 20.89883 14.92325 0.00143
C 20.91712 13.42607 -0.017
C 19.66313 12.83657 0.00364
C 19.70023 11.38138 -0.00831
C 20.87359 23.39798 0.04892
C 28.26199 14.89652 0.01257
C 23.34793 14.86984 0.03046
C 22.09751 8.45387 0.03374
C 25.83555 6.37028 -0.01199
C 25.85908 4.95262 -0.00229
C 24.58337 4.33776 -0.00938
C 24.63528 2.89595 -0.0264
C 25.77717 2.12957 -0.01154
C 25.82724 0.68029 0.00684
C 24.59508 0.01856 -0.01052
C 27.06579 32.70487 -0.01679
C 28.30354 31.92397 0.00367
C 28.28643 30.49068 0.04306
C 27.14335 29.82573 0.00996
C 27.00885 28.45353 0.00195
C 28.2953 27.72024 -0.00802
C 28.29011 26.31615 -0.00218
C 27.05227 25.54049 -0.01654
C 27.05818 24.06833 -0.00037
C 28.24072 23.37271 -0.0032
C 28.33612 21.99177 0.00622
C 27.03833 21.27391 -0.02815
C 27.02058 19.90438 -0.00942
C 28.27181 19.16275 0.00487
C 28.23615 17.76179 0.00826
C 27.06019 17.04138 -0.00294
C 24.54757 7.04321 -0.009
C 24.56352 8.47072 -0.00285
C 25.84343 14.96645 0.01423
C 24.60556 15.61362 0.02555
C 22.11825 7.00936 -0.02845
C 23.38647 6.39171 -0.03213
C 23.36947 5.04355 0.02239
C 22.13881 4.26793 0.01153
C 22.1224 2.88779 0.02734
C 23.37054 2.10202 -0.0055
C 23.37145 0.67848 0.01515
C 22.13794 34.0575 -0.00225
C 24.59732 32.65846 0.00071
C 25.8351 31.92586 -0.01107
C 25.8694 30.55129 -0.01586
C 22.13054 12.77378 0.0296
C 24.60068 29.87393 -0.01971
C 25.78015 27.67788 0.00733
C 25.76832 26.30185 -0.00178
C 24.55077 25.5221 0.00768
C 24.51739 24.13162 -0.0276
C 25.75283 23.43623 0.03005
C 25.80752 22.01537 -0.04078
C 24.62454 21.37084 0.02117
C 24.57752 19.87665 0.02737
C 25.8352 19.22061 -0.00498
C 25.80818 17.7345 0.00135
C 24.61924 16.98131 0.03102
C 24.5683 28.43262 -0.02118
C 2.46036 32.73212 0.01116
