436
Graphene
C 0.01419 33.9895 0.01295
C 13.49758 22.01676 0.02339
C 12.24299 21.33351 0.01641
C 12.29128 19.87034 -0.00719
C 13.50716 19.15113 0.01364
C 13.51185 17.76998 -0.01062
C 12.27147 17.02296 -0.00033
C 12.29938 15.56255 0.03589
C 13.52938 14.90812 -0.02759
C 13.52309 13.47752 0.0402
C 12.30293 12.73555 0.00572
C 12.33562 11.36361 0.03592
C 13.5435 10.63833 0.00406
C 13.5202 9.22436 0.00943
C 12.31278 8.4891 0.02841
C 12.23354 7.08259 -0.01111
C 13.55842 6.33073 -0.01275
C 13.51092 4.90087 0.00985
C 12.2023 4.26449 -0.02245
C 12.33005 2.81976 -0.00428
C 13.46712 2.12652 0.03101
C 13.54348 0.74828 -0.01536
C 12.30005 0.01522 -0.02689
C 14.71852 32.69248 -0.01046
C 13.51744 23.48623 -0.00334
C 15.97323 31.99449 -0.00891
C 12.34452 24.17989 -0.01634
C 13.46006 26.35424 0.00093
C 9.88288 17.09573 -0.00892
C 9.81238 15.7041 -0.01362
C 11.07655 14.97755 -0.0008
C 11.04688 13.50157 0.0288
C 9.7791 12.86551 0.00393
C 9.90544 11.37941 0.00895
C 11.09126 10.71436 0.00685
C 11.14229 9.22248 0.02888
C 9.91641 8.57678 -0.00482
C 9.79112 7.17069 -0.01384
C 11.03867 6.37507 0.03693
C 10.9911 4.95058 0.01745
C 9.76371 4.32174 0.00488
C 9.80021 2.8439 -0.01004
C 10.98403 2.11603 -0.02896
C 11.01722 0.67233 -0.00131
C 9.79162 34.06599 -0.01118
C 12.24467 32.70318 -0.014
C 13.48753 31.94084 0.02147
C 13.47328 30.55943 0.00373
C 12.2624 29.90834 -0.00191
C 12.22347 28.4823 0.00438
C 13.43257 27.79515 0.01291
C 12.27371 25.60133 0.00057
C 15.91562 30.5633 0.02819
C 14.72644 29.85317 0.00165
C 14.74505 28.45339 -0.02971
C 18.43358 31.95131 -0.0108
C 18.41902 30.53467 -0.00368
C 17.09476 29.80323 -0.02696
C 17.18833 28.43083 -0.00114
C 18.40108 27.68797 0.00228
C 18.44454 26.20078 0.00798
C 17.1904 25.54814 0.00422
C 17.16884 24.10278 0.0351
C 18.3606 23.4135 -0.03113
C 18.41457 22.02855 0.02098
C 17.15696 21.30064 0.01848
C 17.17853 19.85391 -0.00619
C 18.39808 19.17599 -0.02162
C 18.38978 17.76064 0.00889
C 17.19044 17.01079 -0.00481
C 17.15686 15.60043 0.00979
C 18.42844 14.9468 0.01443
C 18.4165 13.54261 0.03505
C 17.22611 12.77941 -0.02815
C 17.17075 11.40174 -0.04147
C 18.39331 10.70841 -0.05302
C 18.44573 9.25672 0.00213
C 17.1927 8.50075 -0.00066
C 17.1457 32.63912 -0.01957
C 14.77371 34.05862 0.02058
C 16.01991 0.76774 0.01965
C 15.96518 2.16408 -0.03682
C 15.98269 27.67824 0.02894
C 16.00881 26.2829 -0.01789
C 14.72239 25.61342 0.00444
C 14.73764 24.17103 -0.00925
C 15.98305 23.4567 0.01877
C 15.97092 22.00947 0.01363
C 14.65731 21.35285 -0.02162
C 14.68978 19.90363 0.00415
C 15.92797 19.17498 -0.0014
C 15.99028 17.68538 0.02162
C 14.66173 16.97768 0.0076
C 11.05438 17.78089 -0.04848
C 14.74477 15.60661 0.01241
C 15.97924 13.54292 0.01945
C 14.77702 12.79399 0.01416
C 14.77051 11.34644 0.03542
C 16.02672 10.58357 0.02299
C 15.97837 9.22833 0.00244
C 14.75175 8.44254 -0.01717
C 14.79998 7.06179 0.05265
C 15.99333 6.37524 -0.01952
C 15.95229 4.96175 -0.02813
C 14.72621 4.25297 0.00374
C 14.73634 2.89278 0.00052
C 15.96769 14.8608 -0.01454
C 17.16801 7.19108 -0.00289
C 11.04778 19.23059 0.01572
C 9.8979 21.35265 0.03007
C 3.65809 2.13415 -0.02375
C 3.71527 0.67083 0.00558
C 2.47114 34.03885 -0.0059
C 4.94982 32.62924 -0.01386
C 6.11794 32.00444 -0.02805
C 6.09282 30.53309 0.00081
C 4.96399 29.75125 0.00245
C 4.9388 28.34281 0.02728
C 6.21428 27.68023 -0.00039
C 6.17245 26.27286 0.0064
C 4.94317 25.50271 0.00211
C 4.98099 24.16544 -0.00449
C 6.17825 23.42726 -0.01979
C 6.1822 22.0084 0.02784
C 4.92899 21.31093 -0.01977
C 4.9319 19.8595 -0.00561
C 6.09267 19.1743 0.00208
C 6.07131 17.7888 0.01707
C 4.77271 17.00702 0.02769
C 4.80445 15.62057 -0.03291
C 6.09351 14.96739 -0.04999
C 6.11451 13.573 0.04505
C 4.87572 12.91318 0.03284
C 2.49873 2.76952 0.00828
C 4.87108 11.458 -0.04307
C 2.43523 4.27936 0.00088
C 3.64037 6.45273 -0.00177
C 3.73857 30.47426 0.01984
C 2.50433 29.7921 0.00535
C 2.45884 28.43747 -0.00198
C 3.73181 27.74999 -0.00012
C 3.71833 26.23849 -0.04306
C 2.42372 25.54978 -0.03672
C 2.43683 24.14558 0.01913
C 3.71193 23.4185 0.00267
C 3.75254 21.99581 0.00787
C 2.42942 21.27664 0.02426
C 2.36847 19.90912 0.01218
C 3.57951 19.15073 -0.01471
C 3.61242 17.81461 -0.02827
C 2.37714 17.06573 0.01078
C 2.30336 15.6082 -0.00112
C 3.52826 14.88685 0.03345
C 3.55882 13.51002 0.00748
C 2.35872 12.77675 0.00662
C 2.4693 11.35165 -0.0154
C 3.66478 10.71373 -0.01299
C 3.68587 9.29187 -0.00407
C 2.45665 8.56787 0.01138
C 2.42338 7.14245 0.03278
C 3.63292 4.99697 0.04421
C 6.13849 10.78674 0.03189
C 6.1548 9.33662 0.00031
C 4.91021 8.65016 -0.003
C 7.43433 11.4608 -0.01343
C 8.66604 10.74748 0.00988
C 8.63654 9.29612 0.0276
C 7.41077 8.60114 0.01305
C 7.39235 7.22172 -0.00077
C 8.59076 6.46154 0.03368
C 8.59992 5.02025 -0.02929
C 7.31075 4.30836 -0.00966
C 7.35622 2.90912 -0.03337
C 8.57562 2.19195 0.01227
C 8.54723 0.77594 0.00873
C 7.31133 0.05702 -0.00049
C 9.76301 32.65067 0.00848
C 11.08531 31.95512 -0.01303
C 11.02424 30.55433 -0.01378
C 9.78875 29.91487 0.02635
C 9.8122 28.42219 0.0127
C 11.05634 27.78412 0.01396
C 11.01621 26.40047 0.01849
C 9.82063 25.59832 -0.01142
C 9.7771 24.20798 -0.00562
C 11.04341 23.49301 -0.00494
C 11.10187 22.12187 0.00054
C 7.33308 12.94162 0.01087
C 8.58775 13.61286 -0.05697
C 8.59775 15.00218 -0.00725
C 7.28639 15.66469 0.02322
C 4.86384 7.19479 0.01402
C 6.14691 6.46787 0.02379
C 6.15376 5.11321 0.00907
C 4.84536 4.30157 0.00643
C 4.88887 2.87083 -0.01509
C 6.1475 2.15331 0.03267
C 6.12114 0.78449 0.02374
C 4.94227 0.021 0.00402
C 7.39486 32.68522 0.0073
C 8.57598 32.01226 0.0174
C 8.58159 30.55231 0.03828
C 9.86403 19.9297 -0.00095
C 7.3361 29.89894 0.01226
C 8.58238 27.68994 0.01996
C 8.65105 26.21155 -0.03996
C 7.354 25.5296 0.01465
C 7.40609 24.14528 -0.00074
C 8.55297 23.43255 -0.00518
C 8.64688 22.00314 0.0086
C 7.37357 21.32 -0.00643
C 7.36097 19.91316 0.017
C 8.66588 19.18421 -0.03113
C 8.59351 17.80021 -0.02566
C 7.30472 17.12853 -0.00094
C 7.40629 28.38969 -0.00279
C 18.39738 6.38658 0.00028
C 18.4433 4.97575 -0.02213
C 17.16793 4.31739 0.03698
C 30.662 14.80929 -0.0405
C 30.6769 13.41701 -0.01303
C 29.47529 12.68566 -0.01461
C 29.45375 11.2391 -0.02155
C 30.6831 10.58117 -0.00944
C 30.68138 9.16854 -0.03735
C 29.43694 8.58181 -0.00971
C 29.45178 7.20985 0.01518
C 30.65194 6.38898 0.01908
C 30.69669 4.93863 0.07705
C 29.5022 4.11867 0.0103
C 29.50849 2.71602 0.02108
C 30.75966 2.02422 0.00716
C 30.75854 0.67331 0.00307
C 29.51609 34.05664 0.00346
C 32.03031 32.63226 0.01713
C 33.26828 31.88311 -0.01694
C 33.19363 30.51774 0.01428
C 31.943 29.80929 -0.02142
C 31.9565 28.43633 0.0544
C 33.16271 27.70811 0.00026
C 33.19497 26.32009 0.00682
C 31.88125 25.62921 -0.01779
C 29.47432 15.58367 0.01705
C 31.94475 24.19488 0.03794
C 29.52855 17.04007 0.0101
C 30.78455 19.17181 0.03531
C 27.11433 15.59721 -0.00621
C 28.32027 14.87962 0.02611
C 28.18117 13.42307 0.02198
C 27.06114 12.57746 0.01094
C 27.03904 11.18518 0.00235
C 28.3335 10.35335 0.01495
C 27.12674 2.83764 0.01259
C 28.34831 2.05596 0.01799
C 28.30088 0.71321 0.01699
C 27.10024 0.06947 -0.00416
C 29.40286 32.65183 0.01177
C 30.75345 31.9901 0.04266
C 30.72275 30.50151 0.01324
C 29.49247 29.78911 0.0014
C 29.42196 28.36991 0.00924
C 30.66606 27.7204 0.02326
C 30.6837 26.37691 0.00261
C 29.46721 25.63871 0.03265
C 29.49134 24.16028 -0.02049
C 30.73696 23.47323 -0.01854
C 30.6955 22.02108 -0.01415
C 29.49088 21.29209 -0.03039
C 29.4166 19.88411 0.01836
C 30.7463 17.73238 -0.00669
C 33.1413 23.47521 0.01927
C 33.18704 22.03995 0.01574
C 31.95962 21.34152 -0.02383
C 34.38077 24.1634 0.03076
C 1.21047 23.43281 0.00723
C 1.20595 22.03654 0.02712
C 34.40567 21.35421 -0.02213
C 34.39716 19.94962 0.01951
C 1.12593 19.1343 -0.01678
C 1.14456 17.73554 0.01223
C 34.33832 16.99972 0.00648
C 34.33143 15.58814 0.02114
C 1.10713 14.82912 -0.02957
C 1.10002 13.38915 0.00343
C 34.35867 12.6538 -0.02656
C 34.37968 11.26051 -0.02442
C 1.2291 10.69048 -0.00027
C 1.14934 9.20338 -0.00583
C 34.31519 8.39994 -0.02302
C 34.36791 7.03148 -0.02849
C 1.23167 6.35083 0.02931
C 1.1784 4.92436 0.00628
C 0.00675 4.20275 -0.0345
C 0.00255 2.77821 -0.00931
C 1.30814 2.07534 -0.00939
C 1.2404 0.63221 -0.00468
C 34.38441 25.5871 -0.05239
C 1.21069 26.32434 -0.00598
C 1.26414 27.72167 -0.00439
C 34.39163 28.45165 -0.01037
C 31.98595 19.89536 -0.01429
C 33.19678 19.16896 -0.0136
C 33.15383 17.74594 0.00594
C 31.9251 17.03119 -0.02474
C 31.86833 15.53805 0.00369
C 33.1093 14.8639 0.00455
C 33.14181 13.46005 -0.00644
C 31.93271 12.67549 -0.01839
C 31.90361 11.23498 0.00137
C 33.15229 10.57871 0.00199
C 33.09182 9.12958 0.04381
C 27.0413 17.02841 0.00194
C 31.90358 8.40129 0.02806
C 33.16104 6.30323 -0.00069
C 33.19949 4.85551 0.04926
C 31.97772 4.15976 -0.03838
C 32.01518 2.79419 0.00349
C 33.26898 2.01073 -0.00323
C 33.23324 0.61397 -0.00841
C 31.95912 34.01708 0.0001
C 0.02632 32.55423 -0.02927
C 1.28877 31.91625 -0.01404
C 1.26638 30.46403 0.01027
C 0.02008 29.81901 0.01831
C 31.89433 7.02211 0.01504
C 28.2606 17.75683 0.04185
C 28.20489 19.14667 0.02316
C 27.01188 19.87808 0.01257
C 19.66939 7.1037 -0.00652
C 20.88056 6.39882 0.0058
C 20.85642 4.96802 -0.00865
C 19.67026 4.28523 0.00675
C 19.6966 2.86934 -0.00311
C 20.91765 2.19288 0.00742
C 20.87626 0.71163 -0.01594
C 19.64829 0.09052 0.0106
C 22.10032 32.72666 -0.01154
C 23.3479 32.00524 -0.01721
C 23.33963 30.58024 -0.02422
C 22.09237 29.87774 0.01277
C 22.10993 28.42375 0.00096
C 23.33606 27.77814 -0.01527
C 23.36754 26.29326 0.01087
C 22.10211 25.57176 0.00199
C 22.10711 24.12412 0.01511
C 23.45412 23.45246 -0.00478
C 23.3303 21.91338 -0.01662
C 22.17084 21.32647 -0.01185
C 22.08413 19.88491 0.01126
C 23.35317 19.19461 0.01852
C 23.33387 17.75203 -0.00381
C 19.72046 8.53028 -0.04076
C 20.99702 9.16304 -0.00703
C 20.83844 10.61367 0.00654
C 19.58853 11.3932 -0.04422
C 17.19877 2.86958 -0.00109
C 18.32426 2.17858 -0.00491
C 18.38505 0.78845 0.03338
C 17.13859 0.03216 -0.0258
C 19.66165 32.69122 -0.0331
C 20.88629 31.99908 -0.00316
C 20.87625 30.51531 0.02188
C 19.66005 29.72306 -0.01979
C 19.67539 28.36559 0.02691
C 20.94189 27.68612 -0.01581
C 20.85201 26.31041 0.01452
C 22.11341 17.03085 0.03046
C 19.65102 25.47123 0.04892
C 20.97416 23.41779 -0.03557
C 20.90699 22.00917 0.03754
C 19.64723 21.33296 0.01739
C 19.61905 19.91722 0.00755
C 20.87718 19.17169 -0.0054
C 20.85947 17.7718 0.00667
C 19.67887 17.05846 0.00143
C 19.6492 15.70918 -0.017
C 20.86961 14.94846 0.00364
C 20.92643 13.47011 -0.00831
C 19.63082 12.79732 -0.02957
C 19.67654 24.08128 -0.00111
C 3.72588 31.90875 0.01073
C 22.06005 15.62582 0.0296
C 23.30414 13.47362 -0.02845
C 24.62631 15.58971 -0.00229
C 25.89499 14.85565 -0.00938
C 25.8175 13.37733 -0.0264
C 24.55405 12.76808 -0.01154
C 24.5034 11.41926 0.00684
C 25.75039 10.65819 -0.01052
C 24.36835 4.35523 -0.01679
C 24.63632 2.94694 0.00367
C 25.89642 2.21681 0.04306
C 25.86326 0.73655 0.00996
C 24.58197 0.03026 0.00195
C 26.99108 32.71953 -0.00802
C 28.23715 31.97402 -0.00218
C 28.21891 30.50311 -0.01654
C 27.03489 29.75482 -0.00037
C 27.04122 28.43851 -0.0032
C 28.18951 27.74653 0.00622
C 28.27091 26.3271 -0.02815
C 27.01619 25.58711 -0.00942
C 26.98091 24.14228 0.00487
C 28.22749 23.41999 0.00826
C 28.22001 22.01978 -0.00294
C 27.06025 21.24586 0.00152
C 24.55769 17.00874 -0.01199
C 25.80921 17.7228 -0.009
C 25.78211 19.07649 -0.00285
C 24.63046 19.86243 0.01423
C 22.12068 12.69917 -0.03213
C 22.08106 11.39371 0.02239
C 23.26047 10.622 0.01153
C 23.3864 9.3181 0.02734
C 22.25069 8.46927 -0.0055
C 22.10968 7.02455 0.01515
C 23.25012 5.11786 -0.00225
C 22.06806 4.35705 0.00071
C 22.1617 2.85253 -0.01107
C 23.39853 2.15522 -0.01586
C 23.30424 0.7515 -0.01971
C 23.33054 14.90385 0.03374
C 22.08665 0.03545 -0.02118
C 25.78194 31.96526 -0.00178
C 25.79606 30.55788 0.00768
C 24.54617 29.84525 -0.0276
C 24.58173 28.43432 0.03005
C 25.81465 27.67379 -0.04078
C 25.7977 26.34481 0.02117
C 24.59423 25.62939 0.02737
C 24.63581 24.19236 -0.00498
C 25.7923 23.43374 0.00135
C 25.86124 21.92819 0.03102
C 24.67195 21.24998 0.02555
C 24.5701 32.69948 0.00733
C 2.49747 32.61304 -0.00018
