368
Graphene
C 0.0008 0.04757 0.01295
C 11.00992 10.68666 -0.01952
C 11.04423 9.21781 -0.02813
C 9.7917 8.54864 0.00374
C 9.79221 7.16762 0.00052
C 11.01193 6.40366 -0.03682
C 10.9411 4.97647 0.01965
C 9.8224 4.29523 0.02058
C 9.88389 2.82398 -0.01957
C 11.09947 2.12533 -0.0108
C 11.07471 0.64438 -0.00368
C 9.75225 0.01515 -0.02696
C 12.33041 32.67402 -0.00114
C 13.47983 31.93818 0.00228
C 13.48193 30.55162 0.00798
C 12.33701 29.78882 0.00422
C 12.34555 28.47637 0.0351
C 13.52142 27.69201 -0.03113
C 13.57323 26.24647 0.02098
C 12.22372 25.57472 0.01848
C 9.84313 11.35138 0.05265
C 12.27135 24.06471 -0.00619
C 9.80239 12.78578 -0.01717
C 11.02276 14.89453 0.02299
C 8.63028 0.73213 0.02819
C 7.28558 0.06889 0.00165
C 9.81531 32.70818 -0.02971
C 11.08671 31.99507 0.02894
C 11.06807 30.57115 -0.01789
C 9.85435 29.86366 0.00444
C 9.87926 28.44994 -0.00925
C 11.11095 27.75484 0.01877
C 11.09636 26.29135 0.01363
C 9.90569 25.66451 -0.02162
C 9.89909 24.16277 0.00415
C 11.03016 23.44756 -0.0014
C 11.09887 22.00016 0.02162
C 9.85971 21.29306 0.0076
C 9.85916 19.93985 0.01241
C 11.14142 19.19566 -0.01454
C 11.09125 17.67505 0.01945
C 9.84859 16.97324 0.01416
C 9.77848 15.54668 0.03542
C 11.04447 13.484 0.00244
C 8.52774 2.16699 -0.00891
C 13.51538 23.41151 -0.02162
C 12.32481 21.25411 -0.00481
C 14.74293 29.75415 0.04892
C 14.73778 28.3489 -0.00111
C 16.01772 27.65079 -0.03557
C 16.03392 26.23991 0.03754
C 14.77887 25.49413 0.01739
C 14.75379 24.16051 0.00755
C 16.04824 23.38868 -0.0054
C 16.11901 21.97262 0.00667
C 14.80235 21.38085 0.00143
C 14.79587 19.8334 -0.017
C 16.02311 19.06003 0.00364
C 16.03709 17.62724 -0.00831
C 14.80804 16.9925 -0.02957
C 14.78626 15.60432 -0.04422
C 16.09882 14.84128 0.00654
C 16.03253 13.43575 -0.00703
C 14.74379 12.76791 -0.04076
C 14.69489 11.35399 -0.00652
C 15.96259 10.60975 0.0058
C 15.98169 30.50034 0.01452
C 13.58085 22.02143 0.00889
C 15.93281 31.89554 -0.01581
C 12.3333 33.99729 -0.01979
C 12.37808 19.83854 0.00979
C 13.59377 19.20948 0.01443
C 13.61398 17.77964 0.03505
C 12.35748 17.07335 -0.02815
C 12.28016 15.63215 -0.04147
C 13.52485 14.88895 -0.05302
C 13.56072 13.45615 0.00213
C 12.31801 12.78376 -0.00066
C 12.32476 11.36617 -0.00289
C 13.50419 10.64068 0.00028
C 13.40796 9.25041 -0.02213
C 12.2625 8.61127 0.03698
C 12.29034 7.18093 -0.00109
C 13.50383 6.431 -0.00491
C 13.39373 4.97799 0.03338
C 12.22299 4.2279 -0.0258
C 12.26059 2.76637 -0.0331
C 13.47458 2.06568 -0.00316
C 13.5528 0.6622 0.02188
C 14.68778 32.68262 0.02691
C 15.9316 9.27218 -0.00865
C 7.3588 2.91041 -0.01046
C 8.58421 5.02715 -0.01536
C 3.70313 6.4428 0.01227
C 3.6894 4.98111 0.00873
C 2.53124 4.275 -0.00049
C 2.45336 2.95293 0.00848
C 3.72962 2.14527 -0.01303
C 3.71509 0.70918 -0.01378
C 2.45818 0.01809 0.02635
C 4.89222 32.71934 0.0127
C 6.11936 31.94773 0.01396
C 6.15259 30.51549 0.01849
C 4.93505 29.82213 -0.01142
C 4.95612 28.41012 -0.00562
C 6.20569 27.70194 -0.00494
C 6.16074 26.3403 0.00054
C 4.88773 25.59333 0.03007
C 4.93525 24.21051 -0.00095
C 6.17141 23.52802 0.01572
C 6.17647 22.08303 -0.04848
C 4.88018 21.33855 -0.00892
C 2.50444 7.17768 -0.03337
C 4.92308 19.90512 -0.01362
C 2.39691 8.56697 -0.00966
C 3.7497 10.74577 0.03368
C 3.64497 30.51006 -0.03996
C 2.52282 29.81369 0.01465
C 2.48371 28.4313 -0.00074
C 3.74504 27.67712 -0.00518
C 3.68349 26.30419 0.0086
C 2.36183 25.59232 -0.00643
C 2.48749 24.20854 0.017
C 3.69056 23.51474 -0.03113
C 3.66212 22.02729 -0.02566
C 2.42328 21.26625 -0.00094
C 2.49654 19.86961 0.02322
C 3.64784 19.14932 -0.00725
C 3.68515 17.74302 -0.05697
C 2.37591 17.02375 0.01087
C 2.41347 15.66679 -0.01343
C 3.59627 14.97017 0.00988
C 3.65713 13.52938 0.0276
C 2.52317 12.82574 0.01305
C 2.52249 11.33755 -0.00077
C 3.60989 9.22209 -0.02929
C 7.34547 4.26912 -0.02689
C 6.14896 19.15844 -0.0008
C 4.86237 17.03441 0.00393
C 7.42312 25.56287 0.01641
C 7.42295 24.14027 -0.00719
C 8.67168 23.46493 0.01364
C 8.63871 21.9963 -0.01062
C 7.33205 21.3445 -0.00033
C 7.41987 19.94233 0.03589
C 8.63582 19.23787 -0.02759
C 8.63587 17.75563 0.0402
C 7.37696 17.01503 0.00572
C 7.34512 15.64548 0.03592
C 8.51719 14.8234 0.00406
C 8.5813 13.38466 0.00943
C 7.37623 12.8084 0.02841
C 7.36483 11.34826 -0.01111
C 8.58152 10.61133 -0.01275
C 8.55161 9.21628 0.00985
C 7.2959 8.61552 -0.02245
C 7.33729 7.08439 -0.00428
C 8.58952 6.40209 0.03101
C 8.59922 26.29141 0.02339
C 6.10117 17.72056 0.0288
C 8.63462 27.72064 -0.00334
C 7.33427 29.83508 0.00057
C 4.81388 15.5857 0.00895
C 6.08959 14.87044 0.00685
C 6.09853 13.52366 0.02888
C 4.90878 12.84871 -0.00482
C 4.95687 11.47207 -0.01384
C 6.10518 10.7444 0.03693
C 6.15548 9.29348 0.01745
C 4.91326 8.60567 0.00488
C 4.89904 7.19189 -0.01004
C 6.15365 6.42968 -0.02896
C 6.1252 4.98946 -0.00131
C 4.92605 4.29175 -0.01118
C 4.92036 2.90937 -0.014
C 6.17952 2.16705 0.02147
C 6.13327 0.76113 0.00373
C 4.91426 34.07028 -0.00191
C 7.34111 32.76586 0.00438
C 8.60415 32.0034 0.01291
C 8.5943 30.63143 0.00093
C 7.40687 28.45562 -0.01634
C 14.68761 8.53197 0.00675
C 14.71497 7.14001 -0.00311
C 15.87903 6.40118 0.00742
C 30.69198 0.77981 0.00307
C 29.49649 0.04223 0.00346
C 31.96515 32.67726 0.01713
C 33.16583 32.02606 -0.01694
C 33.10489 30.58132 0.01428
C 31.92409 29.84826 -0.02142
C 31.92348 28.43384 0.0544
C 33.15894 27.77617 0.00026
C 33.16374 26.26143 0.00682
C 31.98946 25.61429 -0.01779
C 32.03613 24.15919 0.03794
C 33.25104 23.48176 0.01927
C 33.19253 21.98391 0.01574
C 31.93153 21.28924 -0.02383
C 31.95287 19.87667 -0.01429
C 33.19395 19.06547 -0.0136
C 33.1735 17.71432 0.00594
C 31.90546 16.93805 -0.02474
C 32.01233 15.62037 0.00369
C 30.79041 2.0932 0.00716
C 33.12675 14.92865 0.00455
C 29.4959 2.82743 0.02108
C 30.70637 4.98518 0.07705
C 29.50072 32.71816 0.03265
C 30.68707 31.96928 -0.02049
C 30.61014 30.56236 -0.01854
C 29.41671 29.82374 -0.01415
C 29.42212 28.42563 -0.03039
C 30.64523 27.71268 0.01836
C 30.66356 26.28327 0.03531
C 29.32775 25.43943 -0.00669
C 29.61049 24.07071 0.0101
C 30.84814 23.41812 0.01705
C 30.72946 22.01992 -0.0405
C 29.5941 21.34502 -0.01303
C 29.52153 19.91024 -0.01461
C 30.77187 19.13176 -0.02155
C 30.68063 17.70037 -0.00944
C 29.28699 17.28894 -0.03735
C 30.57692 9.05629 -0.00971
C 29.42448 7.20168 0.01518
C 30.61492 6.37047 0.01908
C 29.54211 4.24839 0.0103
C 27.07593 0.03027 0.00261
C 33.07 13.51448 -0.00644
C 32.06192 11.39701 0.00137
C 0.021 19.82033 0.01951
C 1.24299 19.1089 -0.01678
C 1.10703 17.75527 0.01223
C 34.41264 17.04711 0.00648
C 34.425 15.64048 0.02114
C 1.23789 14.91712 -0.02957
C 1.2783 13.49894 0.00343
C 34.34579 12.80692 -0.02656
C 34.40883 11.40696 -0.02442
C 1.2098 10.68898 -0.00027
C 1.16612 9.31045 -0.00583
C 34.35409 8.54786 -0.02302
C 34.42787 7.13249 -0.02849
C 1.20641 6.40297 0.02931
C 1.21389 5.0246 0.00628
C 0.02875 4.31824 -0.0345
C 34.39233 2.83194 -0.00931
C 1.22449 2.22899 -0.00939
C 1.20255 0.76881 -0.00468
C 0.02553 21.26268 -0.02213
C 32.00931 12.75715 -0.01839
C 1.23744 21.94692 0.02712
C 0.00162 24.15864 0.03076
C 33.18583 10.60403 0.00199
C 33.12276 9.16483 0.04381
C 31.8066 8.48938 0.02806
C 31.8966 7.00065 0.01504
C 33.19125 6.44139 -0.00069
C 33.22341 4.94238 0.04926
C 32.00625 4.23767 -0.03838
C 31.96893 2.85248 0.00349
C 33.15967 2.10975 -0.00323
C 33.17404 0.70523 -0.00841
C 31.93796 34.05178 0.0001
C 0.04677 32.69325 -0.02927
C 1.26645 31.9689 -0.01404
C 1.22021 30.51203 0.01027
C 34.36938 29.87527 0.01831
C 34.35939 28.48539 -0.01037
C 1.22329 27.79829 -0.00439
C 1.13285 26.41185 -0.00598
C 34.40633 25.59547 -0.05239
C 1.2934 23.39067 0.00723
C 28.28252 0.72237 0.02326
C 28.25727 2.1101 0.00924
C 27.13706 2.90989 0.0014
C 18.46767 10.64265 0.01153
C 18.46672 9.26758 0.02734
C 17.20357 8.52813 -0.0055
C 17.21209 7.16812 0.01515
C 18.43965 6.35739 -0.00225
C 18.42126 4.93864 0.00071
C 17.07306 4.27073 -0.01107
C 17.12713 2.86349 -0.01586
C 18.43769 2.14856 -0.01971
C 18.35058 0.66849 -0.02118
C 17.14738 34.03552 0.00733
C 19.48 32.63027 -0.00178
C 20.81272 31.86835 0.00768
C 20.88144 30.47547 -0.0276
C 19.71733 29.74134 0.03005
C 19.60643 28.42544 -0.04078
C 19.31586 16.85963 0.02117
C 19.7275 15.64462 0.02737
C 19.56115 12.63765 -0.00498
C 17.24627 11.31534 0.02239
C 19.58686 11.31975 0.00135
C 17.21955 12.75043 -0.03213
C 18.61831 14.8235 0.03374
C 15.86423 5.02194 -0.01594
C 14.66267 4.2192 0.0106
C 14.72146 2.80629 -0.01154
C 16.01753 2.09585 -0.01721
C 15.96934 0.70868 -0.02422
C 14.74287 34.07177 0.01277
C 17.13841 32.6145 0.00096
C 18.30518 31.90929 -0.01527
C 18.38214 30.41702 0.01087
C 17.1943 29.69318 0.00199
C 17.27889 28.23776 0.01511
C 18.57369 27.66983 -0.00478
C 17.2472 25.537 -0.01662
C 17.06921 24.19084 -0.01185
C 17.14647 21.15532 0.01126
C 17.16383 19.80379 0.01852
C 18.52253 17.81288 -0.00381
C 17.29876 17.04047 0.03046
C 17.24671 15.57063 0.0296
C 18.55056 13.49656 -0.02845
C 20.91472 9.15593 0.03102
C 19.68533 8.51193 0.02555
C 19.66047 7.05848 0.01423
C 25.95537 27.80101 -0.00294
C 25.73413 6.43009 0.00152
C 25.85438 5.04109 0.01257
C 24.60726 4.31476 0.02316
C 24.5982 2.86743 0.04185
C 25.85967 2.12546 0.00194
C 25.8724 0.67707 -0.00621
C 24.59432 0.00254 0.02611
C 27.06117 32.69279 0.02198
C 28.24347 32.00175 0.01094
C 28.23101 30.55284 0.00235
C 27.02058 29.85865 0.01495
C 27.10692 28.39624 0.01259
C 28.27717 27.62533 0.01799
C 28.36424 26.30784 0.01699
C 28.39565 19.03293 -0.00416
C 28.2533 6.45416 0.01177
C 28.33427 5.07829 0.04266
C 27.1011 4.26558 0.01324
C 24.75115 28.42223 0.00826
C 24.42051 29.7203 0.00487
C 25.7838 30.52877 -0.00942
C 25.79994 31.9043 -0.02815
C 20.93968 6.48026 -0.00285
C 20.83291 5.01134 -0.009
C 19.69093 4.27869 -0.01199
C 19.62789 2.83981 -0.00229
C 20.84389 2.10135 -0.00938
C 20.83671 0.62214 -0.0264
C 19.55213 33.99663 -0.01154
C 22.08014 32.5836 0.00684
C 23.32155 31.88519 -0.01052
C 3.70209 31.96426 0.01996
C 23.28624 30.44689 -0.01679
C 22.12444 7.13338 0.04306
C 23.23064 6.37228 0.00996
C 23.44312 5.01906 0.00195
C 22.22051 4.21024 -0.00802
C 22.1434 2.77939 -0.00218
C 23.40065 2.12463 -0.01654
C 23.36189 0.63127 -0.00037
C 22.02442 0.01557 -0.0032
C 24.55436 32.58465 0.00622
C 22.05626 29.68242 0.00367
C 2.52636 32.66252 -0.00279
