380
Graphene
C 0.01396 0.01867 0.01295
C 14.7994 29.78047 -0.01454
C 14.71754 28.44753 0.01945
C 15.97164 27.74261 0.01416
C 15.98853 26.26217 0.03542
C 14.82799 25.58539 0.02299
C 14.78587 24.14604 0.00244
C 15.96574 23.40787 -0.01717
C 15.97488 21.9825 0.05265
C 14.72877 21.20537 -0.01952
C 15.96981 19.14876 -0.02813
C 14.79567 4.25883 0.00374
C 14.75695 2.80895 0.00052
C 16.03391 2.13784 -0.03682
C 16.02259 0.69866 0.01965
C 14.74419 0.02234 0.02058
C 17.20825 32.646 -0.01957
C 18.44365 31.91232 -0.0108
C 18.42437 30.50875 -0.00368
C 17.25809 29.75126 -0.02696
C 15.95265 30.50999 0.01241
C 15.97474 31.95055 0.0076
C 14.7711 32.6408 0.02162
C 12.28858 0.03596 -0.0014
C 9.79834 0.07029 -0.01275
C 12.31884 32.68665 0.00985
C 13.54235 31.97304 -0.02245
C 13.52349 30.55656 -0.00428
C 12.30666 29.83055 0.03101
C 12.2745 28.39515 -0.01536
C 13.52571 27.68177 -0.02689
C 13.57454 26.30855 -0.01046
C 12.34702 25.60611 -0.00891
C 17.20339 28.39664 -0.00114
C 12.30609 24.17311 0.02819
C 13.54276 21.98161 -0.02971
C 12.30399 21.29058 0.02894
C 12.32901 7.12381 -0.01789
C 13.54106 6.38891 0.00444
C 13.51494 4.93609 -0.00925
C 12.28665 4.28199 0.01877
C 12.32686 2.81606 0.01363
C 13.48995 2.09839 -0.02162
C 13.51232 0.70645 0.00415
C 13.58351 23.45097 0.00165
C 18.44696 27.7196 0.00228
C 18.45644 26.27244 0.00798
C 17.16131 25.64108 0.00422
C 20.88914 22.00764 -0.0331
C 19.63727 21.28498 -0.00316
C 19.67704 19.86036 0.02188
C 20.93659 19.19607 -0.01979
C 20.91729 17.76426 0.02691
C 19.6588 17.0566 -0.01581
C 19.66432 15.63799 0.01452
C 20.91726 14.87462 0.04892
C 20.96572 13.53945 -0.00111
C 20.91823 23.4061 -0.0258
C 19.67429 12.75932 -0.03557
C 20.91666 10.62454 0.01739
C 20.91514 9.19102 0.00755
C 20.899 6.38479 -0.0054
C 20.87764 4.96975 0.00667
C 19.70483 4.2101 0.00143
C 19.69076 2.81559 -0.017
C 20.90863 2.19007 0.00364
C 20.89855 0.71515 -0.00831
C 19.65944 0.01927 -0.02957
C 19.65803 11.39835 0.03754
C 11.05062 0.72685 -0.01111
C 19.64197 24.13958 0.03338
C 20.92122 26.20331 -0.00109
C 17.23174 24.11925 0.0351
C 18.43982 23.41955 -0.03113
C 18.441 22.02158 0.02098
C 17.24944 21.29172 0.01848
C 17.22137 19.89452 -0.00619
C 18.44442 19.15782 -0.02162
C 18.42584 17.74653 0.00889
C 18.42035 14.90686 -0.00481
C 18.4524 13.50869 0.00979
C 19.65151 25.53163 -0.00491
C 17.22396 11.39703 0.01443
C 18.4129 2.13932 -0.02815
C 18.45899 0.72284 -0.04147
C 17.1795 0.02502 -0.05302
C 19.66623 32.66224 0.00213
C 20.9212 31.9302 -0.00066
C 20.89253 30.52494 -0.00289
C 19.71404 29.78427 0.00028
C 19.67214 28.38424 -0.02213
C 20.91323 27.68278 0.03698
C 17.1779 2.80498 0.03505
C 22.14606 32.66052 -0.04422
C 11.09061 2.1581 0.02841
C 9.80546 4.30565 0.00406
C 3.69916 4.95299 -0.05697
C 2.44233 4.28396 0.01087
C 2.45247 2.84071 -0.01343
C 3.67991 2.16583 0.00988
C 3.67024 0.69899 0.0276
C 2.44317 0.02666 0.01305
C 4.88864 32.69412 -0.00077
C 6.13138 31.96821 0.03368
C 6.17103 30.51764 -0.02929
C 4.92267 29.86469 -0.00966
C 4.91371 28.36564 -0.03337
C 6.15636 27.71608 0.01227
C 6.19437 26.30854 0.00873
C 4.93572 25.55802 -0.00049
C 4.87395 24.17551 0.00848
C 6.18686 23.45287 -0.01303
C 6.14911 22.02956 -0.01378
C 4.91816 21.29132 0.02635
C 4.90454 19.91538 0.0127
C 3.73017 6.32679 -0.00725
C 2.474 7.08897 0.02322
C 2.43931 8.5166 -0.00094
C 3.74238 9.21313 -0.02566
C 3.70225 30.55389 0.00907
C 2.42032 29.81373 0.00643
C 2.42331 28.45798 -0.01509
C 3.69827 27.67817 0.03267
C 3.73129 26.2723 0.02374
C 2.4898 25.57326 0.00402
C 2.50131 24.13792 0.0073
C 3.66588 23.40828 0.0174
C 3.70489 21.98764 0.03828
C 6.0921 19.13048 0.01396
C 2.46104 21.33327 0.01226
C 3.67653 19.1977 0.01996
C 3.67297 17.7633 -0.03996
C 2.49473 17.06663 0.01465
C 2.4594 15.57097 -0.00074
C 3.73187 14.90547 -0.00518
C 3.74227 13.53728 0.0086
C 2.45672 12.80012 -0.00643
C 2.44108 11.38274 0.017
C 3.68657 10.61387 -0.03113
C 2.40433 19.90432 -0.00279
C 4.94948 11.38824 0.01849
C 6.19418 9.21017 -0.01142
C 4.91216 8.52086 -0.00562
C 7.37444 4.29988 0.02147
C 7.35477 2.85354 0.00373
C 8.64503 2.14852 -0.00191
C 8.67439 0.70943 0.00438
C 7.37571 0.0432 0.01291
C 9.8351 32.6005 0.00093
C 11.0664 31.93457 0.00057
C 11.04468 30.55904 -0.01634
C 9.82552 29.79833 -0.00334
C 8.5925 4.96748 -0.014
C 9.83679 28.43261 0.02339
C 11.08883 26.29872 -0.00719
C 9.85299 25.54669 0.01364
C 9.84544 24.1996 -0.01062
C 11.05289 23.45473 -0.00033
C 11.07197 22.01486 0.03589
C 9.82417 21.28372 -0.02759
C 9.84715 7.10739 0.0402
C 11.07338 6.41891 0.00572
C 11.03855 4.99493 0.03592
C 11.05337 27.73464 0.01641
C 9.85579 2.82303 0.00943
C 8.63735 6.39983 -0.01118
C 7.34949 8.57891 -0.02896
C 4.94568 7.09199 -0.00494
C 6.13859 6.4356 0.00054
C 6.13433 4.97406 0.03007
C 4.93501 4.2534 -0.00095
C 4.85132 2.85043 0.01572
C 6.12136 2.14637 -0.04848
C 6.16619 0.69444 -0.00892
C 4.90378 34.07318 -0.01362
C 7.34957 32.71614 -0.0008
C 7.37099 7.15909 -0.00131
C 8.63056 31.95852 0.0288
C 7.35238 29.82769 0.00895
C 7.35175 28.44323 0.00685
C 8.61131 27.65463 0.02888
C 8.61871 26.26034 -0.00482
C 7.3332 25.5687 -0.01384
C 7.37171 24.14869 0.03693
C 8.63109 23.45089 0.01745
C 8.59835 21.98272 0.00488
C 7.32887 21.32142 -0.01004
C 8.58798 30.54818 0.00393
C 23.37338 31.97875 0.00654
C 23.33424 30.52555 -0.00703
C 22.10338 29.81214 -0.04076
C 29.49287 2.85628 0.02108
C 30.72702 2.07869 0.00716
C 30.75542 0.72325 0.00307
C 29.48164 34.0563 0.00346
C 31.95787 32.6785 0.01713
C 33.20968 31.92917 -0.01694
C 33.20472 30.52486 0.01428
C 31.97905 29.8222 -0.02142
C 32.02148 28.394 0.0544
C 33.22393 27.73565 0.00026
C 33.17903 26.26262 0.00682
C 31.96072 25.55168 -0.01779
C 31.97171 24.15208 0.03794
C 33.1857 23.45197 0.01927
C 33.24219 21.99496 0.01574
C 32.01079 21.28176 -0.02383
C 32.00978 19.86797 -0.01429
C 33.20176 19.1918 -0.0136
C 33.17793 17.77461 0.00594
C 29.50164 4.25018 0.0103
C 30.74077 4.97587 0.07705
C 30.74801 6.39878 0.01908
C 29.51481 7.11513 0.01518
C 29.54682 28.4119 0.00924
C 30.77144 27.6199 0.02326
C 30.74012 26.23639 0.00261
C 29.51726 25.54479 0.03265
C 29.50731 24.10879 -0.02049
C 30.75531 23.4144 -0.01854
C 30.71136 22.04283 -0.01415
C 29.57868 21.28738 -0.03039
C 29.49711 19.83218 0.01836
C 31.95848 17.06598 -0.02474
C 30.71855 19.14057 0.03531
C 29.47523 17.05627 0.0101
C 29.50981 15.61488 0.01705
C 30.78745 14.8858 -0.0405
C 30.767 13.4858 -0.01303
C 29.50428 12.8133 -0.01461
C 29.56823 11.3524 -0.02155
C 30.75109 10.58322 -0.00944
C 30.75143 9.26458 -0.03735
C 29.52728 8.50491 -0.00971
C 30.73311 17.72361 -0.00669
C 32.00701 15.58209 0.00369
C 33.21715 14.89382 0.00455
C 33.21821 13.47864 -0.00644
C 0.00681 21.33834 -0.02213
C 34.41896 19.88848 0.01951
C 1.26468 19.21669 -0.01678
C 1.19942 17.75691 0.01223
C 0.00428 17.01418 0.00648
C 34.41876 15.6041 0.02114
C 1.25504 14.93149 -0.02957
C 1.25363 13.49884 0.00343
C 34.41946 12.72349 -0.02656
C 1.20807 22.04669 0.02712
C 34.41386 11.37773 -0.02442
C 1.2523 9.25978 -0.00583
C 34.39674 8.47557 -0.02302
C 34.40427 7.08667 -0.02849
C 1.20559 6.3637 0.02931
C 1.2575 4.95132 0.00628
C 34.398 4.20609 -0.0345
C 34.40895 2.83598 -0.00931
C 1.24811 2.1175 -0.00939
C 1.235 0.70927 -0.00468
C 1.21268 10.64888 -0.00027
C 29.51494 29.84852 0.0014
C 1.2314 23.47634 0.00723
C 34.43181 25.58614 -0.05239
C 31.95924 12.77681 -0.01839
C 31.93595 11.31623 0.00137
C 33.1474 10.65245 0.00199
C 33.18214 9.25122 0.04381
C 32.00768 8.48158 0.02806
C 31.95924 7.11238 0.01504
C 33.17461 6.4214 -0.00069
C 33.20723 4.98747 0.04926
C 31.97081 4.29996 -0.03838
C 34.40637 24.15994 0.03076
C 31.96041 2.86624 0.00349
C 33.2012 0.71043 -0.00841
C 31.98752 0.00385 0.0001
C 0.00444 32.6579 -0.02927
C 1.21609 31.94655 -0.01404
C 1.22132 30.5181 0.01027
C 34.41162 29.82432 0.01831
C 34.4296 28.46811 -0.01037
C 1.23406 27.62834 -0.00439
C 1.24625 26.25095 -0.00598
C 33.16159 2.11122 -0.00323
C 30.73847 30.54422 0.01324
C 30.79149 31.93232 0.04266
C 29.44547 32.62066 0.01177
C 22.13116 2.83938 0.0296
C 23.36893 2.11422 0.03374
C 23.35862 0.66744 -0.02845
C 22.11302 34.07945 -0.03213
C 24.6201 32.68786 0.02239
C 25.85522 31.93899 0.01153
C 25.80758 30.51634 0.02734
C 24.56743 29.8002 -0.0055
C 24.60172 28.37563 0.01515
C 22.12978 4.23242 0.03046
C 25.78979 27.69119 -0.00225
C 24.59667 25.54351 -0.01107
C 24.62935 24.11452 -0.01586
C 25.81819 23.46806 -0.01971
C 25.76059 22.00189 -0.02118
C 24.53586 21.29308 0.00733
C 24.58926 19.8077 -0.00178
C 25.77426 19.17688 0.00768
C 25.84744 17.76706 -0.0276
C 24.60683 17.04793 0.03005
C 25.74595 26.3109 0.00071
C 24.52762 15.56928 -0.04078
C 23.3773 4.94679 -0.00381
C 22.16423 7.0649 0.01126
C 22.19304 28.3861 -0.00652
C 23.39891 27.6553 0.0058
C 23.38146 26.25371 -0.00865
C 22.14501 25.56666 0.00675
C 22.14227 24.10091 -0.00311
C 23.35148 23.40617 0.00742
C 23.37206 21.98968 -0.01594
C 22.17646 21.2491 0.0106
C 22.1796 19.87407 -0.01154
C 23.33795 6.33878 0.01852
C 23.34858 19.16126 -0.01721
C 22.14478 17.02709 0.01277
C 22.10579 15.5801 0.00096
C 23.37321 14.92311 -0.01527
C 23.35956 13.45773 0.01087
C 22.14713 12.77412 0.00199
C 22.14945 11.34339 0.01511
C 23.4028 10.66103 -0.00478
C 23.36862 9.25603 -0.01662
C 22.12389 8.53466 -0.01185
C 23.35836 17.70121 -0.02422
C 3.67241 31.9744 0.02379
C 25.82331 14.93292 0.02117
C 24.61538 12.84837 -0.00498
C 27.0376 19.85485 -0.02815
C 28.28901 19.17369 -0.00942
C 28.25286 17.75437 0.00487
C 27.03547 17.02837 0.00826
C 27.06201 15.64888 -0.00294
C 28.27275 14.93696 0.00152
C 28.29158 13.47385 0.01257
C 27.05676 12.79377 0.02316
C 27.08558 11.34698 0.04185
C 27.07198 21.27893 0.00622
C 28.25036 10.62778 0.00194
C 27.08338 8.54829 0.02611
C 27.04157 7.08012 0.02198
C 28.3904 6.406 0.01094
C 28.2748 4.98922 0.00235
C 27.04629 4.24348 0.01495
C 27.06769 2.84139 0.01259
C 28.23677 2.12565 0.01799
C 28.23324 0.7075 0.01699
C 27.03158 34.06247 -0.00416
C 28.2669 9.24 -0.00621
C 25.86328 13.48393 0.02737
C 28.25563 21.99519 -0.0032
C 27.04823 24.15214 -0.01654
C 24.57704 11.3944 0.00135
C 25.8073 10.61996 0.03102
C 25.78494 9.22182 0.02555
C 24.58973 8.52848 0.01423
C 24.60147 7.07055 -0.00285
C 25.81787 6.39481 -0.009
C 25.84959 4.89263 -0.01199
C 24.58639 4.27936 -0.00229
C 24.61564 2.84744 -0.00938
C 28.28128 23.4094 -0.00037
C 25.86449 2.18749 -0.0264
C 24.58978 0.01369 0.00684
C 27.02366 32.58761 -0.01052
C 28.30826 31.91884 -0.01679
C 28.27168 30.56502 0.00367
C 27.04662 29.84988 0.04306
C 27.04364 28.38925 0.00996
C 28.31884 27.71354 0.00195
C 28.31095 26.29045 -0.00802
C 27.05147 25.59794 -0.00218
C 25.84046 0.6943 -0.01154
C 2.4343 32.6967 0.01402
