349
Graphene
C 34.32903 0.05962 0.01295
C 9.85799 12.82418 0.00422
C 9.79822 11.31311 0.0351
C 11.03077 10.65269 -0.03113
C 11.00384 9.22976 0.02098
C 9.80433 8.45775 0.01848
C 9.75356 6.97043 -0.00619
C 11.00347 6.31731 -0.02162
C 10.98025 4.89559 0.00889
C 9.79206 4.18868 -0.00481
C 9.87708 2.76021 0.00979
C 11.16388 2.11854 0.01443
C 11.09814 0.6762 0.03505
C 9.84478 0.01655 -0.02815
C 12.325 32.62318 -0.04147
C 13.52479 31.922 -0.05302
C 13.52199 30.52237 0.00213
C 12.30246 29.84453 -0.00066
C 11.1026 13.48856 0.00798
C 11.07864 14.91159 0.00228
C 9.87228 15.60248 -0.00114
C 9.85036 17.00004 -0.02696
C 8.67239 2.04753 -0.01454
C 8.61304 0.66784 0.01945
C 7.31166 0.08845 0.01416
C 9.82877 32.69702 0.03542
C 11.08454 31.95542 0.02299
C 11.09892 30.54548 0.00244
C 9.84339 29.90791 -0.01717
C 9.86926 28.4798 0.05265
C 12.28936 28.45569 -0.00289
C 11.06049 27.7634 -0.01952
C 9.8469 25.64951 0.00374
C 9.82754 24.23023 0.00052
C 11.04374 23.49441 -0.03682
C 10.9893 22.05925 0.01965
C 9.79513 21.26141 0.02058
C 9.80979 19.85114 -0.01957
C 11.0864 19.17756 -0.0108
C 11.05675 17.75526 -0.00368
C 11.01638 26.36522 -0.02813
C 13.49496 27.61142 0.00028
C 13.4922 26.19474 -0.02213
C 12.21414 25.6035 0.03698
C 13.56991 0.71292 -0.00831
C 12.30629 34.04896 -0.02957
C 14.79394 32.66558 -0.04422
C 15.98539 31.95614 0.00654
C 15.92528 30.50574 -0.00703
C 14.72995 29.83298 -0.04076
C 14.68213 28.39163 -0.00652
C 15.91327 27.64675 0.0058
C 13.52735 2.20843 0.00364
C 15.92559 26.21082 -0.00865
C 14.6729 24.18094 -0.00311
C 15.91793 23.48526 0.00742
C 15.9456 22.03778 -0.01594
C 14.74361 21.30689 0.0106
C 14.88814 19.87584 -0.01154
C 16.1946 18.99159 -0.01721
C 16.00728 17.68804 -0.02422
C 14.80125 17.0568 0.01277
C 14.73759 25.53661 0.00675
C 7.48354 3.09325 0.01241
C 12.32004 2.8531 -0.017
C 13.44641 4.98358 0.00667
C 12.20749 24.11711 -0.00109
C 13.4696 23.44762 -0.00491
C 13.47466 22.04721 0.03338
C 12.30415 21.31631 -0.0258
C 12.33621 19.87041 -0.0331
C 13.59923 19.21428 -0.00316
C 13.49157 17.73675 0.02188
C 12.28507 16.96168 -0.01979
C 12.25559 4.22408 0.00143
C 12.29093 15.58081 0.02691
C 13.57459 13.46738 0.01452
C 12.35409 12.74051 0.04892
C 12.29907 11.35168 -0.00111
C 13.44468 10.58444 -0.03557
C 13.53849 9.16882 0.03754
C 12.22701 8.49066 0.01739
C 12.20214 7.06633 0.00755
C 13.4894 6.37828 -0.0054
C 13.59827 14.88257 -0.01581
C 8.5008 4.71076 0.0076
C 8.52686 6.19904 0.02162
C 7.42245 7.1098 -0.0014
C 2.60535 7.0049 -0.00892
C 3.78912 6.20135 -0.01362
C 3.80908 4.70074 -0.0008
C 2.42306 4.14242 0.0288
C 2.39821 2.76806 0.00393
C 3.67115 2.20052 0.00895
C 3.67038 0.77569 0.00685
C 2.4158 0.03794 0.02888
C 2.47484 8.47593 -0.04848
C 4.88369 32.75695 -0.00482
C 6.1295 30.59042 0.03693
C 4.86857 29.84199 0.01745
C 4.88123 28.45966 0.00488
C 6.10652 27.65405 -0.01004
C 6.14003 26.28098 -0.02896
C 4.89611 25.58498 -0.00131
C 4.94604 24.14411 -0.01118
C 6.13204 23.4634 -0.014
C 6.0774 31.99417 -0.01384
C 6.1033 22.03043 0.02147
C 3.6948 9.21028 0.01572
C 2.46537 11.3377 0.03007
C 3.61961 30.58177 0.03368
C 2.38393 29.84638 -0.02929
C 2.39131 28.43811 -0.00966
C 3.63247 27.74945 -0.03337
C 3.62324 26.30141 0.01227
C 2.38533 25.61164 0.00873
C 2.43315 24.12515 -0.00049
C 3.67136 23.409 0.00848
C 3.74178 10.62598 -0.00095
C 3.63669 21.99164 -0.01303
C 2.36644 19.83264 0.02635
C 3.58565 19.17907 0.0127
C 3.60824 17.76381 0.01396
C 2.48902 16.97443 0.01849
C 2.42979 15.55702 -0.01142
C 3.63285 14.90992 -0.00562
C 3.67645 13.48843 -0.00494
C 2.43171 12.79731 0.00054
C 2.37096 21.33888 -0.01378
C 14.77325 15.65737 0.00096
C 4.85213 21.35656 0.00373
C 6.07701 19.19796 0.00438
C 8.58414 26.37025 -0.02245
C 7.377 25.64665 -0.00428
C 7.39361 24.2164 0.03101
C 8.60975 23.47449 -0.01536
C 8.5793 22.00818 -0.02689
C 7.35587 21.35898 -0.01046
C 7.32453 19.9165 -0.00891
C 8.58191 19.1988 0.02819
C 8.62411 27.75777 0.00985
C 8.58734 17.79083 0.00165
C 7.36497 15.61965 0.02894
C 8.62304 14.98271 -0.01789
C 8.635 13.55732 0.00444
C 7.40248 12.84759 -0.00925
C 7.39596 11.40829 0.01877
C 8.62916 10.65018 0.01363
C 8.64574 9.24658 -0.02162
C 7.43361 8.56812 0.00415
C 7.34984 17.08755 -0.02971
C 4.81275 19.95634 -0.00191
C 7.36503 28.44036 -0.01275
C 8.5896 30.62921 0.02841
C 6.06097 17.78055 0.01291
C 4.87299 17.09295 0.00093
C 4.90066 15.63953 0.00057
C 6.12908 14.91197 -0.01634
C 6.19332 13.4868 -0.00334
C 4.95581 12.81401 0.02339
C 4.97642 11.39083 0.01641
C 6.23366 10.64637 -0.00719
C 7.3367 29.84271 -0.01111
C 6.20477 9.18118 0.01364
C 4.9103 7.05498 -0.00033
C 6.13649 6.46977 0.03589
C 4.7486 3.25168 -0.02759
C 6.09987 2.57661 0.0402
C 6.12823 0.92616 0.00572
C 4.91672 0.11956 0.03592
C 7.30716 32.761 0.00406
C 8.60049 32.01499 0.00943
C 4.97719 8.48376 -0.01062
C 3.63656 32.03269 -0.00077
C 15.85311 14.76828 -0.01527
C 14.79636 12.738 0.00199
C 29.32806 21.5728 0.01428
C 30.27735 7.25506 -0.02142
C 30.80675 0.68409 0.0544
C 29.4979 0.16614 0.00026
C 31.93947 32.67079 0.00682
C 33.21372 31.97938 -0.01779
C 33.23034 30.58258 0.03794
C 31.97463 29.89482 0.01927
C 31.93606 28.48346 0.01574
C 33.15391 27.71353 -0.02383
C 33.16965 26.24165 -0.01429
C 31.90765 25.56596 -0.0136
C 31.90902 24.16481 0.00594
C 33.14497 23.39458 -0.02474
C 33.15352 21.94371 0.00369
C 31.91616 21.17136 0.00455
C 31.95951 19.83557 -0.00644
C 30.73038 21.96482 -0.01694
C 30.65024 23.4574 0.01713
C 29.46076 24.15632 0.00346
C 29.50335 25.63895 0.00307
C 28.30361 30.56644 0.01836
C 27.09951 29.84364 0.03531
C 27.07622 28.41078 -0.00669
C 28.27177 27.74086 0.0101
C 28.28173 26.32038 0.01705
C 27.09855 25.57342 -0.0405
C 27.01851 24.1296 -0.01303
C 28.18906 23.47706 -0.01461
C 32.99794 19.03874 -0.01839
C 28.27852 22.06465 -0.02155
C 26.9958 34.01165 -0.03735
C 29.50311 32.75228 -0.00971
C 30.71102 31.97016 0.01518
C 30.68882 30.5835 0.01908
C 29.46281 29.88997 0.07705
C 29.51979 28.44508 0.0103
C 30.73634 27.76402 0.02108
C 30.72198 26.31571 0.00716
C 28.17267 0.7105 -0.00944
C 33.33616 17.74073 0.00137
C 33.19278 14.90146 0.00199
C 33.21669 13.5984 0.04381
C 1.13607 19.13057 -0.01678
C 1.26381 17.64675 0.01223
C 0.06342 16.98935 0.00648
C 0.0281 15.61266 0.02114
C 1.2175 14.83651 -0.02957
C 1.16051 13.45518 0.00343
C 34.39428 12.70139 -0.02656
C 34.41615 11.37142 -0.02442
C 34.30289 19.89728 0.01951
C 1.22679 10.66556 -0.00027
C 34.36894 8.4943 -0.02302
C 34.33413 7.06715 -0.02849
C 1.23865 6.36456 0.02931
C 1.19826 4.92303 0.00628
C 34.41988 4.18983 -0.0345
C 34.37233 2.84002 -0.00931
C 1.1631 2.15117 -0.00939
C 1.15991 0.73948 -0.00468
C 1.2487 9.17368 -0.00583
C 28.3749 31.98597 -0.03039
C 34.33105 21.31524 -0.02213
C 1.18447 23.38473 0.00723
C 33.18675 10.73062 0.02806
C 33.05892 9.3582 0.01504
C 31.93736 8.47479 -0.00069
C 31.93768 7.03348 0.04926
C 33.12677 6.22288 -0.03838
C 33.23674 4.89359 0.00349
C 33.10373 2.17232 -0.00323
C 33.09896 0.75909 -0.00841
C 1.10357 21.99032 0.02712
C 31.99722 0.01696 0.0001
C 1.21914 32.0514 -0.01404
C 1.14162 30.60217 0.01027
C 34.38268 29.79025 0.01831
C 34.3877 28.39541 -0.01037
C 1.20283 27.62586 -0.00439
C 1.14402 26.27241 -0.00598
C 34.37835 25.53286 -0.05239
C 34.39086 24.0948 0.03076
C 34.39897 32.73338 -0.02927
C 27.03062 32.58451 -0.01415
C 24.67345 34.05092 -0.01854
C 25.80856 0.62277 -0.02049
C 18.49218 21.92604 -0.02118
C 17.21213 21.33063 0.00733
C 17.07344 19.96454 -0.00178
C 17.23001 8.46073 0.00768
C 17.16317 7.13744 -0.0276
C 18.35949 6.45561 0.03005
C 18.44979 5.02777 -0.04078
C 17.21714 4.30605 0.02117
C 18.38925 23.33032 -0.01971
C 17.22882 2.8766 0.02737
C 18.51635 0.72675 0.00135
C 17.32059 34.07784 0.03102
C 19.70387 32.69616 0.02555
C 20.95988 31.94972 0.01423
C 20.90415 30.52195 -0.00285
C 19.6576 29.81688 -0.009
C 19.65635 28.37574 -0.01199
C 20.84225 27.73268 -0.00229
C 18.4563 2.18838 -0.00498
C 20.97659 26.29032 -0.00938
C 17.20212 24.14241 -0.01586
C 18.38701 26.30359 0.00071
C 14.71816 11.35371 0.01511
C 15.74877 10.52785 -0.00478
C 16.16145 9.30187 -0.01662
C 14.82381 8.56802 -0.01185
C 14.73305 7.14133 0.01126
C 15.88311 6.38598 0.01852
C 15.96991 4.96877 -0.00381
C 14.69843 4.2859 0.03046
C 17.21439 25.54129 -0.01107
C 14.77329 2.87427 0.0296
C 16.11315 0.7681 -0.02845
C 14.80432 0.04655 -0.03213
C 17.22688 32.74601 0.02239
C 18.49993 32.05358 0.01153
C 18.39337 30.58544 0.02734
C 17.20921 29.87258 -0.0055
C 17.19541 28.45396 0.01515
C 18.40102 27.70772 -0.00225
C 15.99034 2.1859 0.03374
C 15.88855 13.5154 0.01087
C 19.60808 25.47394 -0.0264
C 20.91063 23.43224 0.00684
C 22.19023 2.93237 -0.00621
C 23.38445 2.12098 0.02611
C 23.43522 0.64778 0.02198
C 22.22382 34.05334 0.01094
C 24.65131 32.65374 0.00235
C 25.81619 31.86967 0.01495
C 25.86739 30.52718 0.01259
C 24.6073 29.80429 0.01799
C 22.24868 4.37738 0.00194
C 24.64735 28.3742 0.01699
C 25.79142 26.2577 0.01177
C 24.61385 25.43967 0.04266
C 24.52311 23.85368 0.01324
C 25.82101 23.43326 0.0014
C 25.75728 4.98341 0.00924
C 24.59575 4.26456 0.02326
C 24.60325 2.74325 0.00261
C 25.87173 2.08108 0.03265
C 25.85984 27.68613 -0.00416
C 19.63012 24.04232 -0.01154
C 23.37312 4.98512 0.04185
C 22.1278 24.15077 0.01257
C 20.62867 22.1321 -0.01052
C 19.67177 21.30785 -0.01679
C 19.66718 7.06084 0.00367
C 20.83232 6.43587 0.04306
C 21.00318 5.04517 0.00996
C 19.74613 4.41296 0.00195
C 19.6106 2.93817 -0.00802
C 20.94611 2.22355 -0.00218
C 23.25827 23.44292 0.02316
C 20.94554 0.74323 -0.01654
C 22.22598 32.63764 -0.0032
C 23.40002 31.92817 0.00622
C 23.35043 30.4968 -0.02815
C 22.10536 29.78755 -0.00942
C 22.13432 28.37635 0.00487
C 23.42941 27.60919 0.00826
C 23.39409 26.16507 -0.00294
C 22.14205 25.5252 0.00152
C 19.72591 0.02086 -0.00037
C 2.42689 32.75666 0.01305
