427
Graphene
C 0.00714 33.98265 0.01295
C 12.25954 24.22587 -0.02759
C 13.58323 23.45544 0.0402
C 13.55302 22.03241 0.00572
C 12.33497 21.35387 0.03592
C 12.33201 19.86514 0.00406
C 13.48886 19.07062 0.00943
C 13.52618 17.7249 0.02841
C 12.30117 16.95649 -0.01111
C 12.34579 15.6418 -0.01275
C 13.58809 14.87458 0.00985
C 12.2295 25.62439 0.03589
C 13.51022 13.48119 -0.02245
C 12.30282 11.4253 0.03101
C 13.5058 10.73994 -0.01536
C 13.51469 9.192 -0.02689
C 12.29463 8.46183 -0.01046
C 12.28673 7.02952 -0.00891
C 13.53966 6.27948 0.02819
C 13.4749 4.90106 0.00165
C 12.2951 4.19744 -0.02971
C 12.28642 2.77253 0.02894
C 13.47688 2.1454 -0.01789
C 12.29333 12.75517 -0.00428
C 13.55547 26.29963 -0.00033
C 13.47359 27.73897 -0.01062
C 12.22062 28.41991 0.01364
C 11.13148 19.1703 0.02888
C 11.06451 17.7874 -0.00482
C 9.83175 17.14386 -0.01384
C 9.82027 15.77967 0.03693
C 11.00268 14.93434 0.01745
C 11.06771 13.51394 0.00488
C 9.8659 12.85792 -0.01004
C 9.92207 11.36177 -0.02896
C 11.12424 10.70429 -0.00131
C 11.14344 9.2144 -0.01118
C 9.88498 8.5633 -0.014
C 9.8136 7.15832 0.02147
C 11.04588 6.3468 0.00373
C 11.00951 4.8719 -0.00191
C 9.72972 4.29369 0.00438
C 9.7901 2.85053 0.01291
C 11.02975 2.19287 0.00093
C 11.08308 0.76285 0.00057
C 9.89885 0.10944 -0.01634
C 12.2233 32.73557 -0.00334
C 13.48929 31.98699 0.02339
C 13.44976 30.5966 0.01641
C 12.22947 29.91117 -0.00719
C 13.62304 0.7346 0.00444
C 12.35453 0.04426 -0.00925
C 14.73125 32.74101 0.01877
C 15.96756 31.93645 0.01363
C 15.97199 2.04271 0.00798
C 16.03956 0.70128 0.00422
C 14.82737 0.00214 0.0351
C 17.14206 32.56754 -0.03113
C 18.3608 31.87297 0.02098
C 18.35857 30.44561 0.01848
C 17.11747 29.77775 -0.00619
C 17.16258 28.3152 -0.02162
C 18.39775 27.61601 0.00889
C 18.42907 26.21653 -0.00481
C 17.1317 25.57964 0.00979
C 17.16386 24.09618 0.01443
C 18.41575 23.42864 0.03505
C 18.36573 22.01944 -0.02815
C 17.16495 21.2463 -0.04147
C 17.20994 19.85621 -0.05302
C 18.51836 19.22127 0.00213
C 18.52243 17.82334 -0.00066
C 17.31416 17.05653 -0.00289
C 17.23624 15.59928 0.00028
C 18.46881 14.88301 -0.02213
C 18.50357 13.49371 0.03698
C 17.24187 12.85144 -0.00109
C 14.71881 2.78789 0.00228
C 9.89331 19.8135 0.00685
C 14.76278 4.18458 -0.00114
C 15.91227 6.46895 -0.00368
C 15.95796 30.52068 -0.02162
C 14.69744 29.88896 0.00415
C 14.69514 28.47218 -0.0014
C 15.87085 27.71781 0.02162
C 15.95592 26.29224 0.0076
C 14.69696 25.62243 0.01241
C 14.70893 24.21745 -0.01454
C 15.92104 23.41077 0.01945
C 15.8696 22.0168 0.01416
C 14.68606 21.27492 0.03542
C 14.71929 19.866 0.02299
C 16.00706 19.16512 0.00244
C 16.04075 17.76053 -0.01717
C 14.7226 17.04686 0.05265
C 14.79031 15.59876 -0.01952
C 15.94368 14.97942 -0.02813
C 16.00691 13.54999 0.00374
C 14.78697 12.76518 0.00052
C 14.81876 11.37251 -0.03682
C 16.01837 10.73415 0.01965
C 15.95355 9.23033 0.02058
C 14.71304 8.52143 -0.01957
C 14.68285 7.09578 -0.0108
C 15.91722 5.03098 -0.02696
C 17.25979 11.40623 -0.00491
C 9.88057 21.22107 0.00895
C 11.06548 23.43488 0.0288
C 3.67683 2.11179 0.0064
C 3.71697 0.72815 0.00211
C 2.48489 0.03087 -0.00449
C 4.89274 32.65568 -0.01979
C 6.11275 31.96425 0.02784
C 6.16544 30.51413 -0.01977
C 4.95516 29.77637 -0.00561
C 4.89629 28.39714 0.00208
C 6.10489 27.67586 0.01707
C 6.09215 26.28517 0.02769
C 2.44828 2.83518 -0.00039
C 4.81117 25.5793 -0.03291
C 6.13597 23.55557 0.04505
C 6.15059 22.04723 0.03284
C 4.931 21.33976 -0.04307
C 4.93263 19.92125 0.03189
C 6.20637 19.17019 0.00031
C 6.15253 17.74178 -0.003
C 4.95746 17.02161 0.01402
C 4.82539 15.56649 0.02379
C 6.16568 14.94329 0.00907
C 6.11788 13.47558 0.00643
C 4.88134 24.19122 -0.04999
C 2.45615 4.21671 0.02728
C 3.6526 4.90993 0.00245
C 3.62637 6.43832 0.00081
C 3.66438 30.57089 0.02426
C 2.49561 29.85102 0.01218
C 2.56159 28.41956 -0.01471
C 3.71424 27.65811 -0.02827
C 3.63359 26.2993 0.01078
C 2.4462 25.50693 -0.00112
C 2.43521 24.12108 0.03345
C 3.6764 23.45952 0.00748
C 3.69922 22.0346 0.00662
C 2.43723 21.34889 -0.0154
C 2.47596 19.95368 -0.01299
C 3.66231 19.22874 -0.00407
C 3.69342 17.72805 0.01138
C 2.48454 16.99018 0.03278
C 2.40191 15.67184 -0.00177
C 3.59685 14.86415 0.04421
C 3.60009 13.40088 0.00088
C 2.38463 12.73256 0.00828
C 2.38492 11.30148 -0.02375
C 3.71018 10.66771 0.00558
C 3.66426 9.25392 -0.0059
C 2.40671 8.51704 -0.01386
C 2.37199 7.034 -0.02805
C 4.85219 12.80783 -0.01509
C 4.87176 11.42533 0.03267
C 6.13143 10.73912 0.02374
C 6.13543 9.30145 0.00402
C 8.57761 13.61812 -0.00966
C 7.35518 12.89048 -0.03337
C 7.39105 11.43003 0.01227
C 8.59848 10.7837 0.00873
C 8.68086 9.2859 -0.00049
C 7.40034 8.63178 0.00848
C 7.29639 7.17954 -0.01303
C 8.62168 6.45445 -0.01378
C 8.56054 5.04429 0.02635
C 7.28005 4.35902 0.0127
C 7.33024 2.91321 0.01396
C 8.50427 2.12117 0.01849
C 8.59493 0.75459 -0.01142
C 7.36116 0.02361 -0.00562
C 9.82959 32.73308 -0.00494
C 11.01906 32.02445 0.00054
C 10.99804 30.60827 0.03007
C 9.86313 29.87176 -0.00095
C 9.86156 28.38544 0.01572
C 11.046 27.71819 -0.04848
C 11.00821 26.30988 -0.00892
C 9.80383 25.57351 -0.01362
C 9.85266 24.15162 -0.0008
C 8.56173 14.98388 -0.02929
C 11.09257 22.02404 0.00393
C 7.32909 15.6212 0.03368
C 8.58737 17.76131 0.01305
C 4.8701 8.55911 0.0073
C 4.83926 7.1346 0.0174
C 6.11099 6.49245 0.03828
C 6.13292 5.03928 0.01226
C 4.88496 4.31361 -0.00279
C 4.9307 2.80433 0.01996
C 6.13577 2.15289 -0.03996
C 6.1658 0.71023 0.01465
C 4.92735 0.05274 -0.00074
C 7.34351 32.68776 -0.00518
C 8.58929 32.03443 0.0086
C 8.56464 30.62021 -0.00643
C 7.37446 29.86701 0.017
C 7.37492 28.48966 -0.03113
C 8.56739 27.75497 -0.02566
C 8.53956 26.33656 -0.00094
C 7.36159 25.52636 0.02322
C 7.32969 24.16333 -0.00725
C 8.61756 23.41032 -0.05697
C 8.62816 21.97488 0.01087
C 7.36607 21.3663 -0.01343
C 7.39133 19.93544 0.00988
C 8.55994 19.15916 0.0276
C 7.36742 17.02158 -0.00077
C 3.66092 32.0494 0.00787
C 18.51175 10.67968 0.03338
C 17.158 8.52652 -0.0331
C 30.75925 23.47283 -0.01461
C 30.73349 22.01015 -0.02155
C 29.47863 21.3401 -0.00944
C 29.54894 19.93444 -0.03735
C 30.72234 19.18989 -0.00971
C 30.7508 17.74026 0.01518
C 29.55007 16.92952 0.01908
C 29.36082 7.00924 0.07705
C 30.63568 6.52323 0.0103
C 30.76373 4.94176 0.02108
C 29.57098 24.16552 -0.01303
C 29.51263 4.16836 0.00716
C 30.75856 2.10047 0.00346
C 30.78088 0.68961 0.01713
C 29.5296 0.05244 -0.01694
C 32.0072 32.5986 0.01428
C 33.25454 31.88818 -0.02142
C 33.28687 30.3707 0.0544
C 31.94468 29.83057 0.00026
C 32.04926 28.40569 0.00682
C 33.23229 27.65134 -0.01779
C 33.14282 26.24754 0.03794
C 29.5107 2.75689 0.00307
C 29.50432 25.58729 -0.0405
C 30.72586 26.34878 0.01705
C 30.71045 27.74315 0.0101
C 28.28969 22.08263 0.02198
C 27.04631 21.35057 0.01094
C 27.15472 19.9346 0.00235
C 28.34667 19.11905 0.01495
C 28.37471 17.67908 0.01259
C 27.13389 17.09792 0.01799
C 26.97208 15.66543 0.01699
C 26.97621 12.85179 -0.00416
C 26.90634 11.45385 0.01177
C 26.802 8.38037 0.04266
C 26.98396 7.01154 0.01324
C 28.1598 6.27349 0.0014
C 28.19734 4.8951 0.00924
C 27.05498 4.28529 0.02326
C 27.03872 2.84745 0.00261
C 28.2397 2.15887 0.03265
C 28.22339 0.69338 -0.02049
C 27.02237 34.05576 -0.01854
C 29.58355 32.70588 -0.01415
C 30.79593 31.9451 -0.03039
C 30.70159 30.56059 0.01836
C 29.36606 29.8907 0.03531
C 29.48951 28.46461 -0.00669
C 31.97444 25.55974 0.01927
C 31.95307 24.12357 0.01574
C 33.15266 23.46575 -0.02383
C 33.1598 21.98986 -0.01429
C 34.43043 24.13027 0.03076
C 1.22082 23.479 0.00723
C 1.21543 22.06297 0.02712
C 0.02874 21.32687 -0.02213
C 34.41908 19.89994 0.01951
C 1.22712 19.19283 -0.01678
C 1.25396 17.77068 0.01223
C 0.02343 17.00495 0.00648
C 34.27991 15.57866 0.02114
C 1.1281 14.87717 -0.02957
C 1.13862 13.43643 0.00343
C 34.34888 12.64184 -0.02656
C 34.42925 11.33911 -0.02442
C 1.20821 10.57219 -0.00027
C 1.23036 9.13044 -0.00583
C 34.36252 8.42799 -0.02302
C 34.25911 7.05589 -0.02849
C 1.186 6.36332 0.02931
C 1.19515 4.91777 0.00628
C 34.36708 4.19275 -0.0345
C 0.02836 2.83927 -0.00931
C 1.28922 2.13821 -0.00939
C 1.16987 0.74481 -0.00468
C 34.3818 25.58075 -0.05239
C 28.25176 23.49856 0.02611
C 1.27256 26.23423 -0.00598
C 0.0926 28.30732 -0.01037
C 31.98555 21.2045 -0.0136
C 31.99415 19.79479 0.00594
C 33.19401 19.12734 -0.02474
C 33.21126 17.73399 0.00369
C 31.96316 17.05743 0.00455
C 31.79131 15.69053 -0.00644
C 32.90401 14.86376 -0.01839
C 33.02314 13.41661 0.00137
C 31.88169 12.65112 0.00199
C 33.20605 10.60946 0.04381
C 33.23244 9.236 0.02806
C 31.94258 7.14574 0.01504
C 33.07972 6.40587 -0.00069
C 33.10962 4.92387 0.04926
C 31.96803 4.14685 -0.03838
C 31.98929 2.75359 0.00349
C 33.23357 2.06029 -0.00323
C 33.25759 0.61797 -0.00841
C 32.08737 34.00586 0.0001
C 34.43008 32.63916 -0.02927
C 1.25458 31.9628 -0.01404
C 1.26345 30.47528 0.01027
C 0.05397 29.69215 0.01831
C 1.3126 27.65025 -0.00439
C 18.46267 9.32281 -0.0258
C 26.99627 24.1513 -0.00621
C 28.23523 26.28649 0.04185
C 19.77477 12.71066 -0.00311
C 19.72694 11.31217 0.00742
C 20.85655 9.24706 -0.01594
C 19.63349 8.51354 0.0106
C 19.6837 7.10681 -0.01154
C 20.91036 6.34817 -0.01721
C 20.89081 4.93612 -0.02422
C 19.6516 4.24094 0.01277
C 19.58197 2.91224 0.00096
C 20.87824 2.12547 -0.01527
C 20.93996 13.44345 0.00675
C 20.79375 0.63632 0.01087
C 22.06868 32.74288 0.01511
C 23.33373 31.97022 -0.00478
C 23.41502 30.5138 -0.01662
C 22.10622 29.89814 -0.01185
C 22.08234 28.43202 0.01126
C 23.38889 27.67746 0.01852
C 23.40229 26.33552 -0.00381
C 22.13842 25.53863 0.03046
C 22.1878 24.13728 0.0296
C 23.39927 23.44379 0.03374
C 19.59492 0.02018 0.00199
C 20.90395 14.8573 -0.00865
C 19.71095 15.6091 0.0058
C 19.65703 17.02184 -0.00652
C 17.27811 7.12982 -0.00316
C 18.47344 6.39698 0.02188
C 18.37536 4.96689 -0.01979
C 17.18523 4.30723 0.02691
C 17.16047 2.84688 -0.01581
C 18.36747 2.152 0.01452
C 18.34013 0.68066 0.04892
C 17.19581 34.00038 -0.00111
C 19.61772 32.65773 -0.03557
C 20.81172 31.96626 0.03754
C 20.86115 30.5183 0.01739
C 19.63351 29.79319 0.00755
C 19.62494 28.33376 -0.0054
C 20.85337 27.70658 0.00667
C 20.89629 26.26682 0.00143
C 19.70729 25.45309 -0.017
C 19.68608 24.12527 0.00364
C 20.95158 23.42805 -0.00831
C 20.90491 22.05746 -0.02957
C 19.6166 21.36495 -0.04422
C 19.63069 19.91259 0.00654
C 20.93508 19.19385 -0.00703
C 21.0091 17.84697 -0.04076
C 23.40569 22.00322 -0.02845
C 22.1409 21.26451 -0.03213
C 22.20393 19.90862 0.02239
C 23.36369 19.15409 0.01153
C 25.83316 19.11863 -0.0264
C 25.85957 17.73384 -0.01154
C 24.65346 17.03736 0.00684
C 24.55686 15.67525 -0.01052
C 25.79736 14.93526 -0.01679
C 25.79032 13.56903 0.00367
C 24.59356 12.75059 0.04306
C 24.68726 11.39373 0.00996
C 25.83717 10.67832 0.00195
C 25.78966 9.23108 -0.00802
C 24.6276 8.46837 -0.00218
C 24.54731 7.10434 -0.01654
C 25.75239 6.31321 -0.00037
C 25.73621 4.97549 -0.0032
C 24.59088 4.30922 0.00622
C 24.55455 2.92086 -0.02815
C 25.77502 2.14722 -0.00942
C 25.7849 0.64443 0.00487
C 24.58731 34.07685 0.00826
C 27.09186 32.63143 -0.00294
C 28.31029 32.00987 0.00152
C 28.2245 30.59135 0.01257
C 28.29303 27.67978 0.02316
C 24.61667 19.76809 -0.00938
C 26.99817 25.6427 0.00194
C 24.56384 21.24442 -0.00229
C 25.83213 23.42369 -0.009
C 23.39931 17.76935 0.02734
C 22.24079 17.11744 -0.0055
C 22.1608 15.61347 0.01515
C 23.33522 14.90634 -0.00225
C 23.37881 13.45727 0.00071
C 22.13699 12.80161 -0.01107
C 21.96955 8.51302 -0.01586
C 22.18674 7.12402 -0.01971
C 23.36382 6.36149 -0.02118
C 23.35075 4.97848 0.00733
C 22.1871 4.3241 -0.00178
C 22.10661 2.81767 0.00768
C 23.38397 2.08544 -0.0276
C 23.38522 0.70701 0.03005
C 22.05052 0.03801 -0.04078
C 24.61231 32.6504 0.02117
C 25.86125 31.86376 0.02737
C 25.95869 30.45446 -0.00498
C 24.8053 29.66768 0.00135
C 24.68558 28.30999 0.03102
C 25.77046 26.3677 0.02555
C 24.64381 25.62287 0.01423
C 24.64498 24.13505 -0.00285
C 25.80396 21.97612 -0.01199
C 2.44246 32.68147 0.00267
