379
Graphene
C 0.01352 0.01674 0.01295
C 16.01052 30.52107 0.01945
C 14.7204 29.88491 0.01416
C 14.75959 28.41619 0.03542
C 16.02977 27.68267 0.02299
C 16.04058 14.93044 0.00244
C 16.00495 13.50623 -0.01717
C 14.74474 12.74425 0.05265
C 14.71982 11.3268 -0.01952
C 15.95686 10.57764 -0.02813
C 15.99094 9.20419 0.00374
C 14.76571 8.52668 0.00052
C 14.80261 7.09588 -0.03682
C 16.01693 6.38434 0.01965
C 16.01856 4.92609 0.02058
C 14.7286 4.30779 -0.01957
C 14.76388 2.83057 -0.0108
C 16.00174 2.09247 -0.00368
C 15.95962 0.65984 -0.02696
C 14.79168 34.03524 -0.00114
C 15.96648 31.91287 -0.01454
C 14.73838 32.67727 0.01241
C 12.30254 34.03295 0.0076
C 13.52088 0.74438 0.02162
C 9.79935 2.87857 0.00985
C 11.07516 2.16238 -0.02245
C 11.06688 0.73599 -0.00428
C 9.84807 0.01638 0.03101
C 12.2939 32.64725 -0.01536
C 13.51129 31.95639 -0.02689
C 13.55534 30.55287 -0.01046
C 12.35408 29.83012 -0.00891
C 13.55791 13.52205 0.02819
C 17.20204 32.67667 0.00228
C 12.29243 12.84222 0.00165
C 13.53258 10.60925 0.02894
C 13.52575 9.24138 -0.01789
C 12.30316 8.53287 0.00444
C 12.3326 7.09653 -0.00925
C 13.51575 6.35889 0.01877
C 13.53771 4.98866 0.01363
C 12.31244 4.21586 -0.02162
C 12.23426 2.83816 0.00415
C 13.55037 2.13112 -0.0014
C 12.34532 11.38024 -0.02971
C 18.44217 31.9552 0.00798
C 18.42313 30.56443 0.00422
C 17.20188 29.84822 0.0351
C 19.63691 28.43804 -0.00316
C 20.89235 27.65636 0.02188
C 20.93481 26.24454 -0.01979
C 19.68458 25.61913 0.02691
C 19.69006 24.12991 -0.01581
C 20.8861 23.43995 0.01452
C 20.90071 22.00786 0.04892
C 19.71357 21.2824 -0.00111
C 19.69603 19.9064 -0.03557
C 19.66837 29.78644 -0.0331
C 20.93649 19.17766 0.03754
C 19.6616 17.03015 0.00755
C 19.71261 15.58421 -0.0054
C 20.86823 14.9178 0.00667
C 20.90857 13.46444 0.00143
C 19.69063 12.75007 -0.017
C 19.69555 11.37878 0.00364
C 20.92218 10.67559 -0.00831
C 20.88042 9.23705 -0.02957
C 19.65589 8.54275 -0.04422
C 20.88704 17.75804 0.01739
C 9.83309 4.32206 -0.01275
C 20.90664 30.53928 -0.0258
C 19.68726 32.6151 -0.00491
C 17.21453 28.3709 -0.03113
C 18.44771 27.68936 0.02098
C 18.45545 26.2716 0.01848
C 18.4853 17.77132 -0.00619
C 17.20106 15.64031 -0.02162
C 18.4421 14.90073 0.00889
C 18.40741 13.4867 -0.00481
C 17.19335 12.77156 0.00979
C 17.2544 11.3932 0.01443
C 20.8692 31.94344 0.03338
C 18.41645 10.63843 0.03505
C 17.21035 8.5515 -0.04147
C 17.20958 7.11919 -0.05302
C 18.40563 6.38094 0.00213
C 18.43729 4.97307 -0.00066
C 17.24148 4.24977 -0.00289
C 17.24774 2.83291 0.00028
C 18.46347 2.09244 -0.02213
C 18.4201 0.70747 0.03698
C 17.2178 34.02323 -0.00109
C 18.41455 9.21461 -0.02815
C 19.68671 7.11585 0.00654
C 11.08985 4.97072 -0.01111
C 9.81293 7.11972 0.00943
C 3.70061 4.96649 0.01087
C 2.44855 4.25733 -0.01343
C 2.43827 2.85417 0.00988
C 3.66691 2.18313 0.0276
C 3.69228 0.69408 0.01305
C 2.4419 0.02863 -0.00077
C 4.90583 32.6923 0.03368
C 6.1565 31.93085 -0.02929
C 6.15217 30.54192 -0.00966
C 4.89763 29.8477 -0.03337
C 4.93313 28.37589 0.01227
C 6.19033 27.73382 0.00873
C 6.16729 26.27514 -0.00049
C 4.92355 25.55558 0.00848
C 4.90881 24.17863 -0.01303
C 4.93316 21.33523 -0.01378
C 4.93041 19.87241 0.02635
C 4.90759 17.05032 0.0127
C 4.89962 15.63354 0.01396
C 3.70416 6.37171 -0.05697
C 2.50573 7.08051 -0.00725
C 2.42863 8.48986 0.02322
C 3.72183 9.22047 -0.00094
C 3.6915 30.53253 0.00643
C 2.40516 29.8119 -0.01509
C 2.45429 28.43013 0.03267
C 3.70983 27.71099 0.02374
C 3.74679 26.25941 0.00402
C 2.46078 25.57593 0.0073
C 2.48506 24.13889 0.0174
C 3.65657 23.39902 0.03828
C 3.73513 21.985 0.01226
C 6.11033 14.91053 0.01849
C 2.39968 21.37714 -0.00279
C 3.6693 19.19489 -0.03996
C 3.69356 17.75661 0.01465
C 2.47515 17.06037 -0.00074
C 2.47847 15.5798 -0.00518
C 3.74636 14.92231 0.0086
C 3.70019 13.50845 -0.00643
C 2.45047 12.82541 0.017
C 2.46751 11.35332 -0.03113
C 3.67467 10.61856 -0.02566
C 2.46558 19.88117 0.01996
C 6.20102 13.50477 -0.01142
C 4.9121 12.74154 -0.00562
C 4.9242 11.33963 -0.00494
C 7.38688 8.56487 0.00373
C 7.35944 7.12903 -0.00191
C 8.67118 6.38011 0.00438
C 8.61939 4.98276 0.01291
C 7.41319 4.28807 0.00093
C 7.36317 2.77603 0.00057
C 8.60333 2.1397 -0.01634
C 8.60725 0.73218 -0.00334
C 7.35754 34.0681 0.02339
C 8.60234 9.2316 0.02147
C 9.84063 32.69274 0.01641
C 11.05567 30.56467 0.01364
C 9.87763 29.82881 -0.01062
C 9.79889 28.41703 -0.00033
C 11.04462 13.49903 0.03589
C 9.85227 12.78204 -0.02759
C 9.83472 11.36361 0.0402
C 11.06255 10.64927 0.00572
C 11.06015 9.27451 0.03592
C 9.82263 8.53316 0.00406
C 11.07605 31.98494 -0.00719
C 11.08084 6.40246 0.02841
C 8.59804 10.67848 -0.014
C 7.38263 12.82375 -0.00131
C 6.18392 10.66851 0.00054
C 6.12562 9.25478 0.03007
C 4.91209 8.52546 -0.00095
C 4.89952 7.12034 0.01572
C 6.07898 6.38231 -0.04848
C 6.16801 4.97943 -0.00892
C 4.90377 4.25737 -0.01362
C 4.91446 2.86095 -0.0008
C 6.14431 2.15256 0.0288
C 7.38193 11.3634 -0.01118
C 6.16932 0.73962 0.00393
C 7.3441 32.67577 0.00685
C 8.59026 31.9538 0.02888
C 8.60369 30.51599 -0.00482
C 7.37405 29.78584 -0.01384
C 7.36489 28.42438 0.03693
C 8.59468 27.6883 0.01745
C 7.40021 15.65721 0.00488
C 8.55786 14.89873 -0.01004
C 8.59809 13.53642 -0.02896
C 4.89864 0.00906 0.00895
C 3.70179 31.97921 0.00907
C 20.87737 6.3826 -0.00703
C 19.66464 4.27305 -0.00652
C 29.49665 2.85742 0.02108
C 30.72916 2.08051 0.00716
C 30.75533 0.72088 0.00307
C 29.48568 34.05546 0.00346
C 31.95495 32.67568 0.01713
C 33.20998 31.93088 -0.01694
C 33.20603 30.52466 0.01428
C 31.98028 29.82029 -0.02142
C 32.02048 28.39389 0.0544
C 33.2222 27.73336 0.00026
C 33.17955 26.26254 0.00682
C 31.96146 25.55104 -0.01779
C 31.97293 24.15265 0.03794
C 33.18963 23.44855 0.01927
C 33.24039 21.9939 0.01574
C 32.01128 21.28449 -0.02383
C 32.00739 19.8694 -0.01429
C 33.20208 19.19019 -0.0136
C 33.17733 17.77363 0.00594
C 29.50252 4.24841 0.0103
C 30.74237 4.97552 0.07705
C 30.74721 6.40086 0.01908
C 29.51481 7.10974 0.01518
C 29.54395 28.40879 0.00924
C 30.77152 27.6233 0.02326
C 30.73748 26.23896 0.00261
C 29.51595 25.54563 0.03265
C 29.51086 24.10659 -0.02049
C 30.75555 23.41711 -0.01854
C 30.71241 22.04286 -0.01415
C 29.57635 21.29059 -0.03039
C 29.49826 19.83309 0.01836
C 31.96046 17.06573 -0.02474
C 30.71957 19.14208 0.03531
C 29.47712 17.05535 0.0101
C 29.51153 15.61532 0.01705
C 30.78825 14.88902 -0.0405
C 30.76548 13.48659 -0.01303
C 29.5012 12.81084 -0.01461
C 29.56862 11.35468 -0.02155
C 30.75158 10.58482 -0.00944
C 30.75182 9.2687 -0.03735
C 29.51965 8.50636 -0.00971
C 30.73607 17.72355 -0.00669
C 32.0064 15.5818 0.00369
C 33.21717 14.89246 0.00455
C 33.2204 13.47887 -0.00644
C 0.00393 21.3343 -0.02213
C 34.42048 19.88847 0.01951
C 1.26895 19.21527 -0.01678
C 1.20036 17.75377 0.01223
C 0.00495 17.01283 0.00648
C 34.41917 15.60443 0.02114
C 1.25356 14.93094 -0.02957
C 1.25065 13.5001 0.00343
C 34.42092 12.72435 -0.02656
C 1.20298 22.0472 0.02712
C 34.41422 11.37851 -0.02442
C 1.25104 9.25481 -0.00583
C 34.39833 8.47972 -0.02302
C 34.40723 7.08832 -0.02849
C 1.20739 6.36254 0.02931
C 1.25484 4.95054 0.00628
C 34.40164 4.2072 -0.0345
C 34.41242 2.83555 -0.00931
C 1.24835 2.12032 -0.00939
C 1.23788 0.70906 -0.00468
C 1.21406 10.65078 -0.00027
C 29.51725 29.84519 0.0014
C 1.22988 23.47504 0.00723
C 34.43147 25.58686 -0.05239
C 31.95789 12.77842 -0.01839
C 31.93875 11.31715 0.00137
C 33.15063 10.6507 0.00199
C 33.18138 9.25079 0.04381
C 32.00632 8.48246 0.02806
C 31.95871 7.11412 0.01504
C 33.17668 6.41938 -0.00069
C 33.20693 4.98574 0.04926
C 31.97148 4.29588 -0.03838
C 34.40743 24.15843 0.03076
C 31.96267 2.86792 0.00349
C 33.20097 0.70748 -0.00841
C 31.98691 0.00396 0.0001
C 0.00372 32.65729 -0.02927
C 1.21857 31.94901 -0.01404
C 1.22178 30.51786 0.01027
C 34.41128 29.82252 0.01831
C 34.43105 28.46562 -0.01037
C 1.23543 27.62866 -0.00439
C 1.24422 26.25428 -0.00598
C 33.1649 2.11116 -0.00323
C 20.9287 4.97459 -0.04076
C 30.76255 30.53217 0.01324
C 29.44406 32.62405 0.01177
C 22.10624 11.34517 0.03374
C 22.15199 7.08541 -0.02845
C 23.35051 6.35398 -0.03213
C 23.35601 5.03525 0.02239
C 22.18103 4.23439 0.01153
C 22.10501 2.81028 0.02734
C 23.37259 2.13049 -0.0055
C 23.34789 0.71146 0.01515
C 22.13627 34.05199 -0.00225
C 24.56638 32.67618 0.00071
C 25.80407 31.92779 -0.01107
C 25.83573 30.52227 -0.01586
C 24.61991 29.81835 -0.01971
C 24.56902 28.41445 -0.02118
C 25.75864 27.69891 0.00733
C 25.78377 26.22493 -0.00178
C 24.56566 25.52439 0.00768
C 24.57282 24.17291 -0.0276
C 25.84156 23.43342 0.03005
C 22.16507 12.77128 0.0296
C 23.31774 13.47907 0.03046
C 23.33636 14.85806 -0.00381
C 22.12982 15.59009 0.01852
C 19.68497 2.82401 0.0058
C 20.91761 2.096 -0.00865
C 20.94602 0.68822 0.00675
C 19.6853 34.07483 -0.00311
C 22.13693 32.65774 0.00742
C 23.40131 31.87166 -0.01594
C 23.35848 30.49259 0.0106
C 22.11751 29.8541 -0.01154
C 22.14547 28.37267 -0.01721
C 25.83794 21.97095 -0.04078
C 23.32009 27.66579 -0.02422
C 22.10285 25.5258 0.00096
C 22.13226 24.1507 -0.01527
C 23.37789 23.38975 0.01087
C 23.39549 22.00076 0.00199
C 22.10259 21.28311 0.01511
C 22.14268 19.89177 -0.00478
C 23.37641 19.16526 -0.01662
C 23.38778 17.75072 -0.01185
C 22.18304 17.03504 0.01126
C 23.36598 26.27532 0.01277
C 24.59773 21.26787 0.02117
C 24.60359 19.89485 0.02737
C 25.87249 19.21035 -0.00498
C 27.04395 21.30985 -0.02815
C 27.04584 19.8718 -0.00942
C 28.27695 19.16867 0.00487
C 28.25026 17.76137 0.00826
C 27.03715 17.04762 -0.00294
C 27.07345 15.61917 0.00152
C 28.28767 14.95571 0.01257
C 28.26612 13.44716 0.02316
C 27.07821 12.79252 0.04185
C 28.29574 22.00753 0.00622
C 27.09008 11.34813 0.00194
C 28.26356 9.22025 0.02611
C 27.06337 7.10803 0.02198
C 28.29446 6.36606 0.01094
C 28.36953 4.99265 0.00235
C 27.02416 4.27121 0.01495
C 27.06384 2.84855 0.01259
C 28.29772 2.10864 0.01799
C 28.22761 0.70472 0.01699
C 27.01851 34.07618 -0.00416
C 28.25657 10.65759 -0.00621
C 30.74987 31.92778 0.04266
C 28.32484 23.42135 -0.0032
C 27.00047 25.54132 -0.01654
C 25.824 17.77457 0.00135
C 24.57906 17.03773 0.03102
C 24.55631 15.57702 0.02555
C 25.80502 14.93279 0.01423
C 25.82997 13.47283 -0.00285
C 24.59389 12.77368 -0.009
C 25.84568 6.37407 -0.01199
C 25.80406 4.94806 -0.00229
C 24.63616 4.27858 -0.00938
C 27.05011 24.11107 -0.00037
C 24.58049 2.84957 -0.0264
C 25.8577 0.75559 0.00684
C 24.58668 34.05504 -0.01052
C 27.06311 32.61386 -0.01679
C 28.26598 31.94804 0.00367
C 28.30498 30.56638 0.04306
C 27.0198 29.83337 0.00996
C 27.05627 28.38974 0.00195
C 28.32036 27.72298 -0.00802
C 28.30998 26.30364 -0.00218
C 25.84713 2.15527 -0.01154
C 2.44151 32.64854 0.02379
