338
Graphene
C 34.42831 0.01144 0.01295
C 11.00666 13.35079 0.00889
C 9.66356 12.9141 -0.00481
C 9.8293 2.85509 0.00979
C 11.09191 2.39437 0.01443
C 11.06303 0.81576 0.03505
C 9.89145 0.09777 -0.02815
C 12.31987 32.62263 -0.04147
C 13.54485 31.95618 -0.05302
C 13.57211 30.51123 0.00213
C 12.34776 29.78838 -0.00066
C 12.30002 28.3697 -0.00289
C 13.58396 27.67935 0.00028
C 13.61938 26.2511 -0.02213
C 12.33067 25.5932 0.03698
C 12.34028 24.04065 -0.00109
C 13.5325 23.34922 -0.00491
C 13.55458 21.97336 0.03338
C 10.96543 14.80459 -0.02162
C 12.36335 21.30278 -0.0258
C 9.80105 15.6202 -0.00619
C 10.9853 17.74528 0.02098
C 8.62822 2.24279 -0.01952
C 8.68296 0.79391 -0.02813
C 7.42952 0.05775 0.00374
C 9.82565 32.70474 0.00052
C 11.08825 31.95812 -0.03682
C 11.07669 30.49682 0.01965
C 9.81432 29.80484 0.02058
C 9.90294 28.47075 -0.01957
C 11.07403 27.70804 -0.0108
C 11.13457 26.33433 -0.00368
C 9.89069 25.65454 -0.02696
C 9.88247 24.2412 -0.00114
C 11.11877 23.44219 0.00228
C 11.12386 22.039 0.00798
C 9.92818 21.28129 0.00422
C 9.83124 19.82425 0.0351
C 11.01039 19.10201 -0.03113
C 9.79266 17.02134 0.01848
C 7.39879 2.91107 0.05265
C 12.30527 19.79921 -0.0331
C 13.45021 17.65618 0.02188
C 14.7804 19.81185 -0.00652
C 16.00696 19.13737 0.0058
C 15.94083 17.69433 -0.00865
C 14.72177 16.97965 0.00675
C 14.65959 15.60969 -0.00311
C 15.94431 14.93131 0.00742
C 15.93526 13.5391 -0.01594
C 14.73686 12.84355 0.0106
C 14.74654 11.50288 -0.01154
C 15.85616 10.57906 -0.01721
C 16.0232 9.19339 -0.02422
C 15.94857 6.44489 0.01277
C 15.91368 5.02227 0.00096
C 14.83459 4.21768 -0.01527
C 14.76686 2.84339 0.01087
C 15.94994 2.12947 0.00199
C 15.98583 0.74664 0.01511
C 14.79957 21.21055 -0.04076
C 13.50869 19.0956 -0.00316
C 15.94326 21.90414 -0.00703
C 14.74644 24.0293 -0.04422
C 12.20504 16.95536 -0.01979
C 12.16829 15.58747 0.02691
C 13.46182 14.97315 -0.01581
C 13.50155 13.59986 0.01452
C 12.29865 12.80143 0.04892
C 12.39211 2.87213 -0.00111
C 13.54057 2.15365 -0.03557
C 13.55359 0.76934 0.03754
C 12.29899 0.00365 0.01739
C 14.7147 32.64304 0.00755
C 15.96542 31.96282 -0.0054
C 15.92638 30.57601 0.00667
C 14.7975 29.78875 0.00143
C 14.76043 28.3728 -0.017
C 15.95751 27.6438 0.00364
C 16.02131 26.15804 -0.00831
C 14.79062 25.41475 -0.02957
C 16.01587 23.3922 0.00654
C 7.2978 4.29977 -0.01717
C 7.32298 11.50589 0.00244
C 7.30935 12.87191 0.02299
C 2.45207 8.51738 0.03693
C 2.425 7.08136 0.01745
C 3.60457 6.40647 0.00488
C 3.62519 4.9582 -0.01004
C 2.42385 4.21975 -0.02896
C 2.4194 2.76919 -0.00131
C 3.72434 2.11897 -0.01118
C 3.67902 0.74006 -0.014
C 2.48795 34.02424 0.02147
C 4.92102 32.68519 0.00373
C 6.11756 32.03143 -0.00191
C 6.18082 30.57405 0.00438
C 4.88976 29.85973 0.01291
C 4.89222 28.39405 0.00093
C 6.09621 27.63069 0.00057
C 6.09025 26.27482 -0.01634
C 4.91478 25.57951 -0.00334
C 3.63592 9.2206 -0.01384
C 4.86318 24.15783 0.02339
C 3.67681 10.65848 -0.00482
C 2.4617 12.76443 0.00685
C 3.72659 30.56145 0.0127
C 2.46594 29.86776 0.01396
C 2.43261 28.49211 0.01849
C 3.67291 27.7382 -0.01142
C 3.65015 26.26732 -0.00562
C 2.39095 25.55481 -0.00494
C 2.35599 24.16585 0.00054
C 3.6223 23.42028 0.03007
C 3.72406 21.98776 -0.00095
C 2.42965 21.27502 0.01572
C 2.48764 19.82807 -0.04848
C 3.70205 19.06351 -0.00892
C 3.60786 17.65811 -0.01362
C 2.38687 17.01185 -0.0008
C 2.45145 15.59288 0.0288
C 3.63265 14.8755 0.00393
C 3.67353 13.45509 0.00895
C 2.44012 11.33671 0.02888
C 6.05783 23.40607 0.01641
C 6.09318 21.95984 -0.00719
C 4.88393 21.23672 0.01364
C 8.61093 30.6258 -0.02971
C 7.35751 29.88813 0.02894
C 7.35127 28.46073 -0.01789
C 8.64853 27.77269 0.00444
C 8.61789 26.34248 -0.00925
C 7.35341 25.60983 0.01877
C 7.34177 24.15463 0.01363
C 8.63903 23.47767 -0.02162
C 8.6833 21.97295 0.00415
C 7.39314 21.26823 -0.0014
C 7.37731 19.87632 0.02162
C 8.60099 19.15668 0.0076
C 8.54462 17.77984 0.01241
C 7.35035 17.02308 -0.01454
C 7.24906 15.6545 0.01945
C 8.50546 14.979 0.01416
C 8.47332 13.53118 0.03542
C 8.62538 32.05506 0.00165
C 7.41163 32.70065 0.02819
C 4.94625 0.01493 -0.00891
C 6.16031 0.80549 -0.01046
C 4.95145 19.85013 -0.01062
C 6.13609 19.13305 -0.00033
C 6.13832 17.7421 0.03589
C 4.90415 17.02548 -0.02759
C 4.86654 15.61493 0.0402
C 6.06435 14.89276 0.00572
C 6.05405 13.55835 0.03592
C 4.88681 12.84193 0.00406
C 14.75379 34.07068 -0.00478
C 4.94732 11.33796 0.00943
C 6.00593 9.2083 -0.01111
C 4.83903 8.55423 -0.01275
C 4.87087 7.11284 0.00985
C 6.13835 6.53423 -0.02245
C 6.23326 5.15862 -0.00428
C 4.96051 4.34864 0.03101
C 4.87417 2.91658 -0.01536
C 6.10568 2.19634 -0.02689
C 6.26457 10.60264 0.02841
C 17.21448 32.67819 -0.01662
C 18.54581 31.84861 -0.01185
C 18.43309 30.46442 0.01126
C 30.63894 0.74505 -0.02142
C 29.38853 0.03817 0.0544
C 31.94385 32.7333 0.00026
C 33.19244 32.02521 0.00682
C 33.2218 30.59104 -0.01779
C 31.99893 29.92438 0.03794
C 31.91955 28.45973 0.01927
C 33.1153 27.74351 0.01574
C 33.24502 26.35663 -0.02383
C 31.88633 25.7015 -0.01429
C 33.29156 23.29875 -0.0136
C 33.36816 22.08549 0.00594
C 33.29657 18.0867 -0.02474
C 31.93461 15.59404 0.00369
C 33.15925 14.97618 0.00455
C 33.19522 13.60417 -0.00644
C 31.97973 12.90415 -0.01839
C 30.69517 2.16372 0.01428
C 31.96605 11.42642 0.00137
C 29.47628 2.81301 -0.01694
C 30.7167 4.94702 0.00346
C 28.16094 0.68816 -0.00669
C 26.92419 34.01998 0.0101
C 29.33252 32.65172 0.01705
C 30.6942 32.04495 -0.0405
C 30.75009 30.58571 -0.01303
C 29.59134 29.77983 -0.01461
C 29.44752 28.37945 -0.02155
C 30.63652 27.73046 -0.00944
C 30.85733 26.37044 -0.03735
C 30.76394 13.50848 -0.00971
C 29.57971 12.81947 0.01518
C 29.45621 11.45013 0.01908
C 30.72223 10.731 0.07705
C 30.77272 9.19818 0.0103
C 29.59967 8.48329 0.02108
C 29.48536 7.04061 0.00716
C 30.73751 6.38756 0.00307
C 29.4992 4.21778 0.01713
C 33.18903 10.6324 0.00199
C 33.13092 9.26336 0.04381
C 32.00966 8.50262 0.02806
C 1.26945 17.74229 0.01223
C 34.4325 17.19378 0.00648
C 34.32869 15.74714 0.02114
C 1.16298 14.98637 -0.02957
C 1.2343 13.50095 0.00343
C 34.39683 12.75632 -0.02656
C 34.42177 11.35194 -0.02442
C 1.22417 10.66465 -0.00027
C 1.17469 9.18707 -0.00583
C 34.33003 8.48499 -0.02302
C 0.00806 7.05599 -0.02849
C 1.24953 6.35687 0.02931
C 1.21264 4.94401 0.00628
C 34.39913 4.25294 -0.0345
C 34.41689 2.87097 -0.00931
C 1.19785 2.09392 -0.00939
C 1.24571 0.63909 -0.00468
C 1.32101 19.14352 -0.01678
C 34.33739 19.59891 0.01951
C 34.34266 21.01646 -0.02213
C 1.13539 21.85358 0.02712
C 31.92298 7.13583 0.01504
C 33.16701 6.35845 -0.00069
C 33.09326 4.90165 0.04926
C 31.88134 4.20471 -0.03838
C 31.89993 2.84884 0.00349
C 33.15922 2.19985 -0.00323
C 33.20156 0.76765 -0.00841
C 31.93246 0.07718 0.0001
C 28.19966 2.08503 0.03531
C 34.41814 32.69843 -0.02927
C 1.2348 30.52112 0.01027
C 34.41119 29.81103 0.01831
C 34.38165 28.4325 -0.01037
C 1.2115 27.71172 -0.00439
C 1.17929 26.32418 -0.00598
C 34.38556 25.56768 -0.05239
C 34.39856 24.13948 0.03076
C 1.17581 23.38177 0.00723
C 1.23367 31.99319 -0.01404
C 3.75587 31.94948 0.02635
C 26.99849 2.78546 0.01836
C 28.2322 4.9337 -0.01415
C 17.15251 7.19149 -0.0276
C 18.21132 6.38011 0.03005
C 18.45816 5.05942 -0.04078
C 17.21436 4.31287 0.02117
C 17.2063 2.80795 0.02737
C 18.48118 2.0855 -0.00498
C 18.46624 0.72545 0.00135
C 17.25816 0.0531 0.03102
C 19.65042 32.72369 0.02555
C 19.48135 28.66616 0.01423
C 20.83506 26.44161 -0.00285
C 19.71826 25.57667 -0.009
C 19.67786 24.14239 -0.01199
C 19.55636 17.08921 -0.00229
C 19.76966 15.70667 -0.00938
C 20.89434 14.93503 -0.0264
C 20.89088 13.56137 -0.01154
C 17.24421 8.52936 0.00768
C 19.65494 12.77232 0.00684
C 18.49418 9.12132 -0.00178
C 17.20854 11.25691 -0.02118
C 17.08177 29.8646 0.01852
C 17.11676 28.42994 -0.00381
C 18.35556 27.72858 0.03046
C 18.52785 26.2791 0.0296
C 17.27181 25.52047 0.03374
C 17.25244 24.1018 -0.02845
C 18.56238 23.30035 -0.03213
C 18.43671 21.93237 0.02239
C 17.20011 21.32332 0.01153
C 17.16847 19.89595 0.02734
C 18.41214 19.24493 -0.0055
C 18.41165 17.81422 0.01515
C 17.23149 16.99924 -0.00225
C 17.20544 15.6103 0.00071
C 18.48529 14.93775 -0.01107
C 18.47503 13.47989 -0.01586
C 17.17279 12.78606 -0.01971
C 18.50255 10.60714 0.00733
C 19.68674 11.34382 -0.01052
C 20.94867 10.63114 -0.01679
C 20.84856 9.19271 0.00367
C 24.60993 4.1491 0.01094
C 24.65812 2.75957 0.00235
C 25.79022 1.99083 0.01495
C 25.78831 0.66301 0.01259
C 24.56433 34.06956 0.01799
C 26.9246 32.62146 0.01699
C 28.11244 31.80309 -0.00416
C 28.42095 30.48288 0.01177
C 27.03807 28.58727 0.04266
C 28.05448 27.85691 0.01324
C 26.80675 12.68504 0.0014
C 26.99818 11.26113 0.00924
C 28.30708 10.60642 0.02326
C 28.31928 9.17595 0.00261
C 27.07342 8.49733 0.03265
C 27.02958 7.00445 -0.02049
C 28.29617 6.36149 -0.01854
C 25.67138 5.00226 0.02198
C 25.83429 6.39592 0.02611
C 24.61712 8.58493 -0.00621
C 25.84907 9.22115 0.00194
C 19.66203 8.4297 0.04306
C 19.5545 4.18963 0.00996
C 19.70254 2.84373 0.00195
C 20.99762 2.18892 -0.00802
C 20.84215 0.79871 -0.00218
C 19.64603 0.06248 -0.01654
C 23.37435 13.44147 -0.00037
C 22.08412 12.88837 -0.0032
C 26.96718 4.29979 -0.03039
C 22.06704 11.42809 0.00622
C 23.44084 9.32828 -0.00942
C 22.20725 2.77616 0.00487
C 23.38349 2.20475 0.00826
C 23.29826 0.44587 -0.00294
C 22.02232 34.04059 0.00152
C 24.55499 12.75499 0.01257
C 24.66664 11.34971 0.02316
C 25.81996 10.56228 0.04185
C 23.40739 10.74249 -0.02815
C 2.49519 32.64574 -0.01378
