434
Graphene
C 0.0221 33.99326 0.01295
C 12.18406 7.19436 -0.00719
C 13.57839 6.41676 0.01364
C 13.51333 5.01507 -0.01062
C 12.33861 4.30719 -0.00033
C 12.37044 2.85382 0.03589
C 13.51964 2.08764 -0.02759
C 13.53585 0.68944 0.0402
C 12.23938 0.06116 0.00572
C 14.80292 32.65723 0.03592
C 16.0192 31.94469 0.00406
C 15.99434 30.51028 0.00943
C 14.79988 29.83576 0.02841
C 14.83573 28.40533 -0.01111
C 16.04886 27.74804 -0.01275
C 15.9659 26.25111 0.00985
C 14.78453 25.52015 -0.02245
C 14.71995 24.08488 -0.00428
C 15.96115 23.32342 0.03101
C 15.90867 21.97651 -0.01536
C 14.76027 21.28479 -0.02689
C 14.81105 19.87455 -0.01046
C 16.0011 19.27319 -0.00891
C 16.03811 17.78381 0.02819
C 12.32984 8.57529 0.01641
C 14.75754 17.0735 0.00165
C 13.5008 9.28292 0.02339
C 12.23811 11.35279 -0.01634
C 11.08455 2.17933 -0.0008
C 11.0329 0.7548 0.0288
C 9.78239 0.03313 0.00393
C 12.21311 32.70562 0.00895
C 13.46181 31.92974 0.00685
C 13.54549 30.58569 0.02888
C 12.35745 29.82082 -0.00482
C 12.39083 28.49067 -0.01384
C 13.61786 27.69335 0.03693
C 13.59303 26.22733 0.01745
C 12.29093 25.571 0.00488
C 12.2691 24.15403 -0.01004
C 13.47364 23.33165 -0.02896
C 13.43962 21.98458 -0.00131
C 12.2786 21.31869 -0.01118
C 12.33826 19.90239 -0.014
C 13.54052 19.2011 0.02147
C 13.59428 17.81228 0.00373
C 12.28441 17.20207 -0.00191
C 12.19298 15.70919 0.00438
C 13.44332 14.95189 0.01291
C 13.45953 13.56008 0.00093
C 12.24718 12.78929 0.00057
C 13.49639 10.66496 -0.00334
C 9.87165 2.75349 -0.01362
C 14.7136 15.66331 -0.02971
C 15.99033 13.47774 -0.01789
C 18.4328 17.76924 -0.00368
C 17.18951 17.03447 -0.02696
C 17.22569 15.65434 -0.00114
C 18.44408 14.84084 0.00228
C 18.50022 13.42249 0.00798
C 17.2231 12.75523 0.00422
C 17.18375 11.31768 0.0351
C 18.4165 10.59947 -0.03113
C 18.47958 9.22317 0.02098
C 17.18814 8.54904 0.01848
C 17.14314 7.05747 -0.00619
C 18.41941 6.4296 -0.02162
C 18.34658 5.01736 0.00889
C 17.16368 4.25141 -0.00481
C 17.15427 2.86287 0.00979
C 18.37638 2.13739 0.01443
C 18.49689 0.76829 0.03505
C 17.28622 0.01255 -0.02815
C 19.66396 32.67003 -0.04147
C 20.86956 31.91273 -0.05302
C 20.8789 30.52825 0.00213
C 19.71481 29.79205 -0.00066
C 19.73389 28.33912 -0.00289
C 18.44492 19.1504 -0.0108
C 15.9509 14.95441 0.02894
C 17.22787 19.88943 -0.01957
C 18.39657 22.06527 0.01965
C 14.74667 12.82589 0.00444
C 14.76048 11.40721 -0.00925
C 15.8986 10.65634 0.01877
C 15.98863 9.24157 0.01363
C 14.73478 8.5433 -0.02162
C 14.75657 7.15255 0.00415
C 15.94656 6.33259 -0.0014
C 15.85196 4.96875 0.02162
C 14.68092 4.25357 0.0076
C 14.7251 2.83194 0.01241
C 15.98595 2.14584 -0.01454
C 16.01381 0.6924 0.01945
C 14.73878 33.98272 0.01416
C 17.23857 32.63235 0.03542
C 18.39928 32.01307 0.02299
C 18.48881 30.53112 0.00244
C 17.25891 29.84964 -0.01717
C 17.2815 28.40461 0.05265
C 18.4843 27.69035 -0.01952
C 18.44443 26.18435 -0.02813
C 17.14094 25.56977 0.00374
C 17.12187 24.13129 0.00052
C 18.35506 23.46525 -0.03682
C 17.23446 21.27853 0.02058
C 11.1122 4.90837 -0.00892
C 11.02002 6.26566 -0.04848
C 9.91143 7.12069 0.01572
C 3.64417 0.81032 -0.0059
C 2.47384 0.05818 -0.01386
C 4.86587 32.67542 -0.02805
C 6.06945 31.9642 0.00081
C 6.05877 30.51688 0.00245
C 4.86533 29.77097 0.02728
C 4.94564 28.39121 -0.00039
C 6.20412 27.69748 0.0064
C 6.22066 26.32874 0.00211
C 4.94079 25.5774 -0.00449
C 4.9047 24.18642 -0.01979
C 6.17197 23.5151 0.02784
C 6.16679 22.00921 -0.01977
C 4.90406 21.35373 -0.00561
C 4.92234 19.90499 0.00208
C 6.19827 19.13231 0.01707
C 6.16552 17.66693 0.02769
C 4.93038 16.97548 -0.03291
C 4.79324 15.55616 -0.04999
C 6.16063 14.92919 0.04505
C 6.11636 13.43108 0.03284
C 4.9125 12.76725 -0.04307
C 4.92072 11.36381 0.03189
C 3.80831 2.15181 0.00558
C 6.10578 10.65924 0.00031
C 2.6739 2.92253 -0.02375
C 3.74936 6.56561 0.00088
C 3.60329 30.52449 -0.00198
C 2.43737 29.74718 -0.00012
C 2.4876 28.38351 -0.04306
C 3.75063 27.64462 -0.03672
C 3.73944 26.21007 0.01913
C 2.47156 25.5992 0.00267
C 2.44796 24.15258 0.00787
C 3.67037 23.45674 0.02426
C 3.717 22.07647 0.01218
C 2.46934 21.31345 -0.01471
C 2.51052 19.8641 -0.02827
C 3.73477 19.05625 0.01078
C 3.6816 17.68244 -0.00112
C 2.35823 16.9953 0.03345
C 2.38767 15.56129 0.00748
C 3.6287 14.91662 0.00662
C 3.60695 13.45716 -0.0154
C 2.38296 12.73519 -0.01299
C 2.38185 11.31294 -0.00407
C 3.61565 10.7178 0.01138
C 3.66127 9.21652 0.03278
C 2.42562 8.56935 -0.00177
C 2.50232 7.09765 0.04421
C 2.46416 4.28976 0.00828
C 6.12728 9.03373 -0.003
C 4.82804 8.52916 0.01402
C 5.99154 0.67063 0.02379
C 11.0611 31.98906 0.0276
C 11.0565 30.62082 0.01305
C 9.83964 29.89019 -0.00077
C 9.8489 28.47752 0.03368
C 11.05869 27.79804 -0.02929
C 11.08775 26.3325 -0.00966
C 9.85456 25.65791 -0.03337
C 9.81773 24.25689 0.01227
C 10.99798 23.44909 0.00873
C 10.99625 22.01748 -0.00049
C 9.82245 21.34042 0.00848
C 9.77145 19.95288 -0.01303
C 11.07695 19.20555 -0.01378
C 11.08522 17.82319 0.02635
C 9.84975 17.09833 0.0127
C 9.81957 15.68573 0.01396
C 10.9955 14.94015 0.01849
C 11.04678 13.52947 -0.01142
C 9.80751 12.84831 -0.00562
C 9.77958 11.40886 -0.00494
C 11.00504 10.7564 0.00054
C 11.01711 9.33142 0.03007
C 9.83221 8.57643 -0.00095
C 9.77184 32.66996 0.00988
C 7.31859 0.19469 -0.01343
C 8.61649 0.71946 0.01087
C 7.44231 8.58251 -0.05697
C 4.8697 0.00941 0.00907
C 7.30574 32.66564 0.00643
C 8.55008 32.05525 -0.01509
C 8.55328 30.53665 0.03267
C 7.34386 29.86447 0.02374
C 7.40271 28.4261 0.00402
C 8.62423 27.75924 0.0073
C 8.59859 26.31768 0.0174
C 7.37481 25.57336 0.03828
C 7.3378 24.18693 0.01226
C 8.64662 23.45963 -0.00279
C 20.96176 27.57766 0.00028
C 8.66878 22.0901 0.01996
C 7.34299 20.00585 0.01465
C 8.59631 19.20774 -0.00074
C 8.60839 17.79828 -0.00518
C 7.43687 17.00614 0.0086
C 7.32476 15.57882 -0.00643
C 8.59404 14.87574 0.017
C 8.5983 13.48433 -0.03113
C 7.3307 12.79076 -0.02566
C 7.33579 11.33371 -0.00094
C 8.56741 10.70456 0.02322
C 8.61667 9.23146 -0.00725
C 7.34041 21.39924 -0.03996
C 20.95874 26.19323 -0.02213
C 19.67856 25.52494 0.03698
C 19.6476 24.1054 -0.00109
C 30.64717 14.87583 -0.0405
C 30.64743 13.51364 -0.01303
C 29.5286 12.6989 -0.01461
C 29.46678 11.33661 -0.02155
C 30.70838 10.56428 -0.00944
C 30.74753 9.08398 -0.03735
C 29.50781 8.49077 -0.00971
C 29.5144 7.07374 0.01518
C 30.75489 6.3489 0.01908
C 30.80589 4.9619 0.07705
C 29.54074 4.27596 0.0103
C 29.53525 2.77625 0.02108
C 30.70849 2.00876 0.00716
C 30.86101 0.63614 0.00307
C 29.56287 34.06775 0.00346
C 31.96081 32.55913 0.01713
C 33.23409 31.84487 -0.01694
C 33.20851 30.47076 0.01428
C 31.94444 29.8386 -0.02142
C 31.96952 28.46016 0.0544
C 33.21773 27.72524 0.00026
C 33.24119 26.37964 0.00682
C 31.96812 25.62392 -0.01779
C 29.49406 15.61517 0.01705
C 31.91982 24.21137 0.03794
C 29.49282 17.05938 0.0101
C 30.74225 19.20832 0.03531
C 28.25036 9.17633 -0.00621
C 27.04542 8.56202 0.02611
C 26.99886 7.07738 0.02198
C 28.22697 6.43067 0.01094
C 28.24983 4.94197 0.00235
C 27.01829 4.27622 0.01495
C 27.02258 2.76598 0.01259
C 28.29442 2.11377 0.01799
C 28.26579 0.70538 0.01699
C 27.07124 0.00936 -0.00416
C 29.5414 32.66209 0.01177
C 30.68629 31.94112 0.04266
C 30.71959 30.51152 0.01324
C 29.5026 29.88435 0.0014
C 29.5124 28.40101 0.00924
C 30.72298 27.72455 0.02326
C 30.7614 26.32463 0.00261
C 29.51362 25.62899 0.03265
C 29.52148 24.23949 -0.02049
C 30.7437 23.47069 -0.01854
C 30.70881 22.03356 -0.01415
C 29.47324 21.29002 -0.03039
C 29.51904 19.8537 0.01836
C 30.72227 17.77093 -0.00669
C 33.14741 23.5048 0.01927
C 33.20883 22.0733 0.01574
C 31.98049 21.41414 -0.02383
C 34.4262 24.1646 0.03076
C 1.22159 23.43259 0.00723
C 1.27678 22.0264 0.02712
C 0.00932 21.32705 -0.02213
C 34.37092 19.86161 0.01951
C 1.22759 19.17656 -0.01678
C 1.17995 17.76762 0.01223
C 34.35995 17.07466 0.00648
C 34.43022 15.6571 0.02114
C 1.17997 14.86613 -0.02957
C 1.20237 13.46175 0.00343
C 34.36959 12.7457 -0.02656
C 34.38529 11.33211 -0.02442
C 1.22153 10.61967 -0.00027
C 1.2014 9.18885 -0.00583
C 34.40924 8.43785 -0.02302
C 0.02506 7.07145 -0.02849
C 1.28418 6.38146 0.02931
C 1.24531 5.00862 0.00628
C 0.01557 4.27188 -0.0345
C 0.0087 2.83617 -0.00931
C 1.25902 2.11698 -0.00939
C 1.17196 0.76497 -0.00468
C 34.38921 25.56453 -0.05239
C 1.21483 26.22828 -0.00598
C 1.22276 27.61763 -0.00439
C 0.03661 28.40524 -0.01037
C 31.94511 19.98359 -0.01429
C 33.12061 19.17191 -0.0136
C 33.11094 17.74333 0.00594
C 31.86044 17.02414 -0.02474
C 31.94586 15.5471 0.00369
C 33.16905 14.88076 0.00455
C 33.08941 13.43612 -0.00644
C 31.94893 12.68931 -0.01839
C 31.93867 11.3238 0.00137
C 33.18682 10.63979 0.00199
C 33.24221 9.21133 0.04381
C 28.27073 10.61191 0.00194
C 31.95946 8.51188 0.02806
C 33.20426 6.31146 -0.00069
C 33.2261 4.89227 0.04926
C 31.98836 4.19243 -0.03838
C 32.0122 2.74184 0.00349
C 33.26302 2.07727 -0.00323
C 33.26828 0.73055 -0.00841
C 32.05387 33.97522 0.0001
C 34.43012 32.633 -0.02927
C 1.22998 31.96723 -0.01404
C 1.23771 30.52147 0.01027
C 0.05995 29.80774 0.01831
C 31.99698 7.03257 0.01504
C 3.65996 32.03388 0.00535
C 27.07711 11.35454 0.04185
C 28.25203 13.46236 0.01257
C 22.11278 28.36509 -0.00652
C 23.4011 27.6914 0.0058
C 23.38195 26.28823 -0.00865
C 22.15984 25.5223 0.00675
C 22.15084 24.04437 -0.00311
C 23.37545 23.46256 0.00742
C 23.32248 22.03864 -0.01594
C 22.10401 21.34546 0.0106
C 22.06929 19.87615 -0.01154
C 23.33445 19.17089 -0.01721
C 23.35827 17.81595 -0.02422
C 22.08811 17.10496 0.01277
C 22.11648 15.64474 0.00096
C 23.31818 15.01188 -0.01527
C 23.31331 13.49808 0.01087
C 22.13982 12.79234 0.00199
C 22.10604 11.39063 0.01511
C 23.36407 10.60612 -0.00478
C 23.40592 9.17534 -0.01662
C 22.23104 8.54433 -0.01185
C 22.0793 7.08808 0.01126
C 23.4126 6.36169 0.01852
C 23.25504 4.94937 -0.00381
C 22.10011 29.83531 -0.04076
C 22.07826 4.21101 0.03046
C 23.37102 30.54927 -0.00703
C 22.11726 32.63588 -0.04422
C 20.90316 23.37471 -0.00491
C 20.78454 21.97489 0.03338
C 19.60261 21.2909 -0.0258
C 19.59263 19.85099 -0.0331
C 20.88866 19.16021 -0.00316
C 20.88328 17.79156 0.02188
C 19.67048 17.0186 -0.01979
C 19.65729 15.59814 0.02691
C 20.88301 14.92216 -0.01581
C 20.93255 13.42923 0.01452
C 19.69654 12.74185 0.04892
C 19.63278 11.23206 -0.00111
C 20.95853 10.63875 -0.03557
C 21.00979 9.24107 0.03754
C 19.69651 8.48516 0.01739
C 19.70251 7.1149 0.00755
C 20.92048 6.41075 -0.0054
C 20.80286 4.96199 0.00667
C 19.53523 4.29349 0.00143
C 19.59876 2.8767 -0.017
C 20.82809 2.14675 0.00364
C 20.89941 0.69585 -0.00831
C 19.7277 0.0294 -0.02957
C 23.30926 31.93361 0.00654
C 22.06907 2.85122 0.0296
C 23.29163 2.09606 0.03374
C 23.32239 0.70843 -0.02845
C 24.51377 4.20879 -0.00229
C 24.55843 2.79634 -0.00938
C 25.75291 2.06023 -0.0264
C 25.7878 0.66052 -0.01154
C 24.52471 34.06111 0.00684
C 26.98109 32.70751 -0.01052
C 28.26758 31.94382 -0.01679
C 28.24401 30.54287 0.00367
C 27.04753 29.86405 0.04306
C 27.07402 28.48085 0.00996
C 28.31105 27.73219 0.00195
C 28.27687 26.26519 -0.00802
C 27.0471 25.53853 -0.00218
C 27.09022 24.11251 -0.01654
C 28.23876 23.42265 -0.00037
C 28.32551 21.96009 -0.0032
C 27.06432 21.33773 0.00622
C 27.11267 19.911 -0.02815
C 28.2849 19.12195 -0.00942
C 28.21832 17.72331 0.00487
C 27.04062 16.9878 0.00826
C 26.9927 15.55178 -0.00294
C 28.2802 14.89309 0.00152
C 25.74554 4.94995 -0.01199
C 25.77897 6.40548 -0.009
C 24.63736 7.12874 -0.00285
C 24.6322 8.56027 0.01423
C 22.16259 0.03653 -0.03213
C 24.53384 32.64065 0.02239
C 25.75181 31.97582 0.01153
C 25.78023 30.55691 0.02734
C 24.56786 29.91704 -0.0055
C 24.63308 28.41239 0.01515
C 25.91104 27.66576 -0.00225
C 25.88238 26.28506 0.00071
C 24.61901 25.59482 -0.01107
C 24.62658 24.19558 -0.01586
C 25.8209 23.38817 -0.01971
C 27.04755 12.79419 0.02316
C 25.81123 21.94987 -0.02118
C 24.56991 19.89791 -0.00178
C 25.86239 19.18033 0.00768
C 25.81922 17.74793 -0.0276
C 24.54564 17.04893 0.03005
C 24.56247 15.68961 -0.04078
C 25.79522 14.86642 0.02117
C 25.76161 13.47457 0.02737
C 24.53452 12.74533 -0.00498
C 24.5066 11.32249 0.00135
C 25.79052 10.75648 0.03102
C 25.83944 9.27583 0.02555
C 24.56156 21.29118 0.00733
C 2.41127 32.73892 0.01984
