312
Graphene
C 0.01869 0.02754 0.01295
C 13.57497 30.49399 -0.0331
C 12.23773 29.89497 -0.00316
C 12.2987 28.44521 0.02188
C 13.57058 27.67862 -0.01979
C 13.57892 26.32239 0.02691
C 12.32753 25.58876 -0.01581
C 12.2565 24.11294 0.01452
C 13.49661 23.39777 0.04892
C 13.50351 21.90842 -0.00111
C 12.28563 21.26828 -0.03557
C 12.37506 19.89959 0.03754
C 13.57731 19.12757 0.01739
C 13.54956 17.70939 0.00755
C 12.35469 17.01543 -0.0054
C 12.25381 0.07701 0.00667
C 13.55088 31.91074 -0.0258
C 12.28657 32.61163 0.03338
C 9.73323 34.04032 -0.00491
C 9.8457 15.48783 -0.00109
C 9.79384 32.64526 -0.00619
C 11.03085 31.99096 -0.02162
C 11.04664 30.51276 0.00889
C 9.78856 29.87069 -0.00481
C 9.7578 28.46086 0.00979
C 11.09253 27.73977 0.01443
C 11.09114 26.28141 0.03505
C 14.78266 32.67473 0.00143
C 9.85431 25.56755 -0.02815
C 11.05096 23.45545 -0.05302
C 11.07333 21.99516 0.00213
C 9.8611 21.31972 -0.00066
C 9.85286 19.95399 -0.00289
C 11.08242 19.18769 0.00028
C 11.07604 17.79906 -0.02213
C 9.86213 16.97268 0.03698
C 9.85663 24.14177 -0.04147
C 7.41156 0.00805 0.01848
C 16.06322 31.94335 -0.017
C 14.74954 29.77044 -0.00831
C 18.44426 27.69884 0.00199
C 18.43646 26.22835 0.01511
C 17.14875 25.54593 -0.00478
C 17.22924 24.13183 -0.01662
C 18.53534 23.4134 -0.01185
C 18.46158 22.00437 0.01126
C 17.23831 21.30369 0.01852
C 17.18657 19.94667 -0.00381
C 18.41212 19.17859 0.03046
C 18.45831 17.70589 0.0296
C 17.2012 16.97669 0.03374
C 17.22555 15.67266 -0.02845
C 18.40638 14.87016 -0.03213
C 18.45675 13.53118 0.02239
C 18.45579 2.12904 0.01153
C 17.24091 28.36352 0.01087
C 17.24536 29.87887 -0.01527
C 18.43193 30.48085 0.00096
C 18.45941 31.93915 0.01277
C 14.77851 28.40199 -0.02957
C 16.02119 27.66009 -0.04422
C 15.92781 26.28416 0.00654
C 14.7288 25.52305 -0.00703
C 14.78624 24.08374 -0.04076
C 16.03296 23.40276 -0.00652
C 15.97699 22.04116 0.0058
C 15.95561 30.54327 0.00364
C 14.72506 21.30456 -0.00865
C 15.93195 19.20834 -0.00311
C 15.97668 17.7814 0.00742
C 14.76444 17.00638 -0.01594
C 14.81966 15.56911 0.0106
C 15.95382 0.69789 -0.01154
C 14.79092 0.03564 -0.01721
C 17.20757 32.68913 -0.02422
C 14.80033 19.90047 0.00675
C 18.42495 0.70797 0.02734
C 8.64898 0.626 0.02098
C 7.36585 15.57496 0.0351
C 3.69661 9.23059 0.0402
C 2.49269 8.54632 0.00572
C 2.40933 7.11762 0.03592
C 3.64807 6.40584 0.00406
C 3.63924 4.98371 0.00943
C 2.4401 4.25145 0.02841
C 2.40721 2.84823 -0.01111
C 3.68214 2.17269 -0.01275
C 3.73724 0.70423 0.00985
C 2.44471 34.07436 -0.02245
C 4.90345 32.62129 -0.00428
C 6.10531 31.92473 0.03101
C 6.14217 30.49586 -0.01536
C 4.87089 29.80268 -0.02689
C 4.9571 28.39452 -0.01046
C 3.73497 10.65845 -0.02759
C 2.41687 11.41435 0.03589
C 2.4804 12.75585 -0.00033
C 3.67358 13.52472 -0.01062
C 3.67453 30.56138 -0.00131
C 2.48263 29.84733 -0.01118
C 2.45852 28.33613 -0.014
C 3.67046 27.71593 0.02147
C 3.65678 26.3084 0.00373
C 2.43398 25.57692 -0.00191
C 2.47654 24.15488 0.00438
C 6.16935 27.73737 -0.00891
C 3.70307 23.39314 0.01291
C 2.46875 21.33462 0.00057
C 2.48282 19.91678 -0.01634
C 3.71043 19.19536 -0.00334
C 3.64408 17.83291 0.02339
C 2.48136 17.08246 0.01641
C 2.46528 15.61188 -0.00719
C 3.6631 14.92098 0.01364
C 3.66185 22.04217 0.00093
C 8.67412 14.85933 -0.03113
C 6.21375 26.28739 0.02819
C 4.89635 24.14462 -0.02971
C 8.66703 31.90466 -0.01952
C 8.60052 30.51017 -0.02813
C 7.31677 29.79389 0.00374
C 7.35134 28.47921 0.00052
C 8.61464 27.70237 -0.03682
C 8.64748 26.25304 0.01965
C 7.37286 25.56261 0.02058
C 7.41662 24.12278 -0.01957
C 8.58488 23.3967 -0.0108
C 8.65309 21.99124 -0.00368
C 7.29586 21.24883 -0.02696
C 7.35632 19.93642 -0.00114
C 8.57581 19.22635 0.00228
C 8.5871 17.75827 0.00798
C 7.39913 17.09108 0.00422
C 7.39169 32.56277 0.05265
C 4.96503 0.01592 -0.01717
C 6.19338 0.75324 0.00244
C 6.1801 2.15577 0.02299
C 6.1297 23.42706 0.02894
C 6.09994 21.96494 -0.01789
C 4.89666 21.28126 0.00444
C 4.95723 19.88362 -0.00925
C 6.15521 19.14218 0.01877
C 6.15157 17.77935 0.01363
C 4.92693 17.08999 -0.02162
C 4.88775 25.58039 0.00165
C 4.95104 15.62282 0.00415
C 6.20973 13.50518 0.02162
C 4.96842 12.79652 0.0076
C 4.86518 11.25747 0.01241
C 4.89781 8.42854 -0.01454
C 4.8484 7.17399 0.01945
C 4.83493 4.22415 0.01416
C 4.94017 2.85153 0.03542
C 6.14065 14.93013 -0.0014
C 17.17737 0.02652 -0.0055
C 19.69593 32.60244 0.01515
C 20.87664 31.98073 -0.00225
C 33.20431 31.96416 0.01927
C 33.23784 30.54395 0.01574
C 31.97773 29.81366 -0.02383
C 31.98557 28.39813 -0.01429
C 33.23683 27.72279 -0.0136
C 33.18325 26.29352 0.00594
C 33.1814 17.79998 -0.02474
C 32.00258 15.5543 0.00369
C 33.22595 14.93812 0.00455
C 33.21773 13.50128 -0.00644
C 32.00114 12.8306 -0.01839
C 31.91913 11.41601 0.00137
C 33.16054 10.68656 0.00199
C 33.19842 9.25131 0.04381
C 31.9199 8.51228 0.02806
C 31.99343 32.70683 0.03794
C 29.52873 34.06352 -0.01779
C 30.75095 0.6971 0.00682
C 30.72438 2.17418 0.00026
C 30.73557 30.56318 -0.00944
C 29.52658 29.84831 -0.03735
C 29.48896 28.37646 -0.00971
C 30.66573 27.76787 0.01518
C 30.79743 14.91531 0.01908
C 30.7588 13.48944 0.07705
C 29.4562 12.82638 0.0103
C 31.92877 7.12471 0.01504
C 29.55994 11.41201 0.02108
C 30.75805 9.16274 0.00307
C 29.50871 8.51363 0.00346
C 29.44632 7.07807 0.01713
C 30.74492 6.39194 -0.01694
C 30.72402 5.00269 0.01428
C 29.44117 4.25097 -0.02142
C 29.47861 2.84489 0.0544
C 30.71453 10.58043 0.00716
C 30.76744 32.00491 -0.02155
C 33.14136 6.39193 -0.00069
C 31.98306 4.29961 -0.03838
C 0.00152 15.57483 0.02114
C 1.22285 14.91061 -0.02957
C 1.2271 13.5177 0.00343
C 0.04154 12.77017 -0.02656
C 0.0006 11.40751 -0.02442
C 1.19951 10.65778 -0.00027
C 1.21712 9.23846 -0.00583
C 34.40677 8.52873 -0.02302
C 34.36688 7.14959 -0.02849
C 1.24804 6.37216 0.02931
C 1.23009 4.91575 0.00628
C 0.04699 4.20816 -0.0345
C 34.43176 2.84462 -0.00931
C 1.23605 2.15558 -0.00939
C 1.26058 0.72026 -0.00468
C 34.40141 17.02016 0.00648
C 1.22519 17.73074 0.01223
C 1.21399 19.20733 -0.01678
C 0.04964 19.97003 0.01951
C 31.98535 2.79025 0.00349
C 33.23265 2.08626 -0.00323
C 33.22098 0.70895 -0.00841
C 31.96571 0.04285 0.0001
C 34.43284 32.61665 -0.02927
C 1.18372 31.96494 -0.01404
C 1.27858 30.48115 0.01027
C 33.17099 4.92944 0.04926
C 34.4073 29.83537 0.01831
C 1.19925 27.65086 -0.00439
C 1.20136 26.29731 -0.00598
C 34.39262 25.57818 -0.05239
C 0.01231 24.09702 0.03076
C 1.25653 23.44231 0.00723
C 1.20909 22.06178 0.02712
C 0.0625 21.24441 -0.02213
C 0.00215 28.34536 -0.01037
C 29.5208 32.67147 -0.01461
C 27.10478 34.05547 -0.01303
C 28.27563 0.70709 -0.0405
C 19.692 34.03866 -0.01199
C 22.1139 32.68171 -0.00229
C 23.35349 31.97283 -0.00938
C 23.38192 30.61173 -0.0264
C 22.12949 29.8334 -0.01154
C 22.17047 28.47506 0.00684
C 23.31074 13.46492 -0.01052
C 22.16464 12.78538 -0.01679
C 22.1257 11.36068 0.00367
C 23.42046 10.6979 0.04306
C 23.39411 9.2348 0.00996
C 22.10582 8.48568 0.00195
C 22.12719 7.13423 -0.00802
C 23.37002 6.42298 -0.00218
C 23.39214 5.03792 -0.01654
C 20.86848 0.63155 -0.009
C 20.88428 2.08895 -0.00285
C 19.65296 2.84821 0.01423
C 19.74493 4.23887 0.02555
C 20.82749 30.52038 0.00071
C 19.61951 29.81441 -0.01107
C 19.66304 28.35964 -0.01586
C 20.89867 27.68719 -0.01971
C 20.86926 26.21799 -0.02118
C 19.67197 25.61213 0.00733
C 19.67365 24.16636 -0.00178
C 22.14799 4.25579 -0.00037
C 19.63854 17.0184 0.00768
C 20.83927 14.87994 0.03005
C 20.82528 13.49088 -0.04078
C 19.62918 12.83586 0.02117
C 20.96737 10.5751 0.02737
C 20.95487 9.29499 -0.00498
C 20.88004 6.45028 0.00135
C 20.89418 5.00025 0.03102
C 19.69577 15.71546 -0.0276
C 22.11952 2.85726 -0.0032
C 23.33088 2.12069 0.00622
C 23.36173 0.7292 -0.02815
C 27.08143 32.64674 0.04266
C 28.2986 31.95034 0.01324
C 28.25192 30.48919 0.0014
C 27.03446 29.80902 0.00924
C 28.27729 13.47308 0.02326
C 27.0173 12.87218 0.00261
C 27.05378 11.28782 0.03265
C 24.57915 34.04701 0.01177
C 28.23698 10.61322 -0.02049
C 27.06024 8.55714 -0.01415
C 27.1095 7.11602 -0.03039
C 28.2211 6.31824 0.01836
C 28.24676 4.94665 0.03531
C 27.072 4.24234 -0.00669
C 27.02931 2.7852 0.0101
C 28.25595 2.14339 0.01705
C 28.31887 9.19117 -0.01854
C 3.68534 31.9694 -0.02896
C 25.85599 0.71048 -0.00416
C 24.56476 2.8192 0.01799
C 22.1524 34.02599 -0.00942
C 24.57649 32.63876 0.00487
C 25.78871 31.93954 0.00826
C 25.83463 30.53054 -0.00294
C 24.6315 29.78173 0.00152
C 24.58685 28.45326 0.01257
C 25.73092 13.44952 0.02316
C 25.75504 2.09957 0.01699
C 24.59893 12.72622 0.04185
C 25.79488 10.66579 -0.00621
C 25.86588 9.23061 0.02611
C 24.62461 8.51462 0.02198
C 24.52852 7.11068 0.01094
C 25.77892 6.33866 0.00235
C 25.83557 4.95245 0.01495
C 24.59479 4.25026 0.01259
C 24.63524 11.31389 0.00194
C 2.46663 32.63192 -0.01004
