439
Graphene
C 0.01888 0.02622 0.01295
C 12.3562 19.87749 -0.00334
C 13.50833 19.2395 0.02339
C 13.5478 17.79411 0.01641
C 12.34269 17.03198 -0.00719
C 12.33019 15.67327 0.01364
C 13.54937 14.95548 -0.01062
C 13.47833 13.46987 -0.00033
C 12.25594 12.7615 0.03589
C 12.27103 11.25958 -0.02759
C 13.52529 10.63681 0.0402
C 13.559 9.25402 0.00572
C 12.3037 8.51474 0.03592
C 12.31715 7.09651 0.00406
C 13.55437 6.36985 0.00943
C 13.49394 5.04461 0.02841
C 12.2992 4.23399 -0.01111
C 12.29901 2.80746 -0.01275
C 13.4843 2.10727 0.00985
C 13.56543 0.66527 -0.02245
C 12.23714 0.00252 -0.00428
C 14.7361 32.69598 0.03101
C 15.97691 31.90196 -0.01536
C 15.96202 30.56248 -0.02689
C 12.24045 21.36291 -0.01634
C 13.54936 22.03759 0.00057
C 13.56172 23.44581 0.00093
C 12.3042 24.16981 0.01291
C 9.8275 15.63215 0.01572
C 11.02968 14.919 -0.04848
C 11.08106 13.47561 -0.00892
C 9.83689 12.80817 -0.01362
C 9.83686 11.45335 -0.0008
C 11.05019 10.66353 0.0288
C 11.05864 9.30266 0.00393
C 9.86193 8.48491 0.00895
C 9.84934 7.10373 0.00685
C 11.09533 6.39785 0.02888
C 11.12708 4.95916 -0.00482
C 14.75757 29.78779 -0.01046
C 9.81412 4.26995 -0.01384
C 11.07754 2.08413 0.01745
C 10.99111 0.7026 0.00488
C 9.81771 34.07555 -0.01004
C 12.35641 32.69735 -0.02896
C 13.53439 31.98948 -0.00131
C 13.56111 30.5272 -0.01118
C 12.25551 29.89639 -0.014
C 12.27856 28.43292 0.02147
C 13.51891 27.65568 0.00373
C 13.53757 26.26708 -0.00191
C 12.33229 25.60184 0.00438
C 9.85092 2.81111 0.03693
C 9.81373 17.04108 -0.00095
C 14.7795 28.41639 -0.00891
C 16.00644 26.25968 0.00165
C 18.48345 27.74521 -0.01957
C 18.45005 26.24767 -0.0108
C 17.24255 25.56028 -0.00368
C 17.22711 24.11133 -0.02696
C 18.47637 23.3909 -0.00114
C 18.39503 22.00744 0.00228
C 17.18696 21.28293 0.00798
C 18.43707 14.90471 0.00422
C 18.46371 13.4485 0.0351
C 17.19673 12.78594 -0.03113
C 17.17732 11.34774 0.02098
C 18.42305 10.64591 0.01848
C 18.4046 9.2721 -0.00619
C 17.20338 8.56287 -0.02162
C 17.193 7.12774 0.00889
C 18.45317 6.37132 -0.00481
C 18.44935 4.96233 0.00979
C 17.24038 4.28775 0.01443
C 17.21035 2.85299 0.03505
C 18.47598 2.1439 -0.02815
C 18.46034 0.73684 -0.04147
C 17.2207 34.06147 -0.05302
C 19.64143 32.62948 0.00213
C 17.22125 28.37976 0.02058
C 17.26271 29.84426 0.01965
C 18.45032 30.54009 -0.03682
C 18.40487 31.94813 0.00052
C 14.72749 25.59187 -0.02971
C 14.75017 24.1347 0.02894
C 15.93602 23.44644 -0.01789
C 15.98441 22.02284 0.00444
C 14.78697 21.27782 -0.00925
C 14.73293 19.87679 0.01877
C 14.75773 16.99536 0.01363
C 14.74665 15.60194 -0.02162
C 15.97645 14.87921 0.00415
C 15.96392 13.49033 -0.0014
C 14.77813 12.77136 0.02162
C 16.04663 27.69291 0.02819
C 14.73394 11.39026 0.0076
C 16.00782 9.18046 -0.01454
C 14.72629 8.53651 0.01945
C 14.73061 7.132 0.01416
C 15.98216 6.43209 0.03542
C 16.0294 4.92288 0.02299
C 14.75192 4.27208 0.00244
C 14.735 2.86074 -0.01717
C 15.97037 2.11314 0.05265
C 15.97103 0.69571 -0.01952
C 14.7415 0.03502 -0.02813
C 17.23025 32.60922 0.00374
C 15.98763 10.66618 0.01241
C 20.90483 31.95404 -0.00066
C 11.07754 17.74075 0.03007
C 9.7977 19.90834 -0.00494
C 3.70188 0.73463 0.00088
C 2.46358 34.06168 0.00828
C 4.89095 32.68639 -0.02375
C 6.12976 31.97231 0.00558
C 6.1778 30.49757 -0.0059
C 4.98312 29.81787 -0.01386
C 4.89879 28.37718 -0.02805
C 6.21654 27.66967 0.00081
C 6.15385 26.26094 0.00245
C 4.87442 25.54902 0.02728
C 4.87409 24.21732 -0.00039
C 6.1316 23.42883 0.0064
C 6.17969 21.97879 0.00211
C 4.91985 21.29591 -0.00449
C 4.96931 19.85514 -0.01979
C 6.11606 19.13307 0.02784
C 6.16076 17.73021 -0.01977
C 4.83984 16.99476 -0.00561
C 4.9095 15.68205 0.00208
C 6.12698 14.96171 0.01707
C 6.14602 13.53289 0.02769
C 4.98115 12.79691 -0.03291
C 4.93728 11.28457 -0.04999
C 3.72096 2.1512 0.04421
C 2.48251 2.86177 -0.00177
C 2.49203 4.2752 0.03278
C 3.70137 4.96619 0.01138
C 3.67573 30.49178 -0.0005
C 2.43867 29.80093 -0.00018
C 2.48567 28.38667 0.01073
C 3.69815 27.65298 0.01984
C 3.70445 26.28769 0.00535
C 2.4798 25.61756 -0.00198
C 2.43379 24.17599 -0.00012
C 3.73409 23.40832 -0.04306
C 3.72972 21.98547 -0.03672
C 2.46984 21.34625 0.01913
C 2.42972 19.7985 0.00267
C 6.15321 10.61362 0.04505
C 3.65736 19.21031 0.00787
C 2.42381 17.0021 0.01218
C 2.45494 15.60098 -0.01471
C 3.66672 14.93214 -0.02827
C 3.68628 13.50899 0.01078
C 2.49503 12.72272 -0.00112
C 2.46159 11.3635 0.03345
C 3.6942 10.6368 0.00748
C 3.709 9.22387 0.00662
C 2.4326 8.50151 -0.0154
C 2.45663 7.08126 -0.01299
C 3.73504 6.40896 -0.00407
C 3.66601 17.7528 0.02426
C 11.05342 19.19817 0.00054
C 6.16909 9.19862 0.03284
C 4.91627 7.12352 0.03189
C 8.60496 10.68956 -0.05697
C 8.638 9.28471 0.01087
C 7.34989 8.58128 -0.01343
C 7.34901 7.14236 0.00988
C 8.59885 6.42786 0.0276
C 8.54948 4.98702 0.01305
C 7.37457 4.30972 -0.00077
C 7.39931 2.84843 0.03368
C 8.64359 2.10407 -0.02929
C 8.58353 0.74631 -0.00966
C 7.33745 0.0381 -0.03337
C 9.8554 32.67487 0.01227
C 11.04854 31.97247 0.00873
C 11.03468 30.56477 -0.00049
C 9.83516 29.79153 0.00848
C 9.86937 28.39039 -0.01303
C 11.03727 27.75731 -0.01378
C 11.06472 26.28799 0.02635
C 9.89034 25.61553 0.0127
C 9.85336 24.09662 0.01396
C 11.06907 23.46498 0.01849
C 11.04338 22.01837 -0.01142
C 9.84084 21.2872 -0.00562
C 7.36836 11.36702 -0.00725
C 7.29332 12.76351 0.02322
C 8.55395 13.49395 -0.00094
C 8.58971 14.86209 -0.02566
C 6.15393 6.43385 0.00031
C 6.0981 4.99219 -0.003
C 4.91555 4.30241 0.01402
C 4.91663 2.83445 0.02379
C 6.14964 2.15575 0.00907
C 6.13775 0.74265 0.00643
C 4.93301 0.01145 -0.01509
C 7.40383 32.6883 0.03267
C 8.61479 31.95127 0.02374
C 8.62919 30.53693 0.00402
C 7.37812 29.82556 0.0073
C 4.85976 8.5468 -0.04307
C 7.41513 28.40381 0.0174
C 8.62719 26.22643 0.01226
C 7.39065 25.55978 -0.00279
C 7.37345 24.16759 0.01996
C 8.60404 23.45248 -0.03996
C 8.62961 22.01455 0.01465
C 7.36988 21.29001 -0.00074
C 7.38525 19.86838 -0.00518
C 8.61462 19.19512 0.0086
C 8.6412 17.78607 -0.00643
C 7.37627 17.00002 0.017
C 7.41829 15.58743 -0.03113
C 8.61446 27.6901 0.03828
C 3.69355 31.99668 0.01116
C 20.9207 30.49511 -0.00289
C 19.65261 28.41669 -0.02213
C 30.81202 14.87457 -0.0405
C 30.71363 13.45372 -0.01303
C 29.47984 12.807 -0.01461
C 29.50269 11.34364 -0.02155
C 30.71964 10.66104 -0.00944
C 30.73046 9.25788 -0.03735
C 29.51358 8.47709 -0.00971
C 29.54918 7.08761 0.01518
C 30.75473 6.4331 0.01908
C 30.80256 4.96683 0.07705
C 29.49836 4.19374 0.0103
C 29.5306 2.84793 0.02108
C 30.77903 2.09672 0.00716
C 30.72126 0.68538 0.00307
C 29.52258 34.0476 0.00346
C 31.95239 32.66265 0.01713
C 33.19494 31.96005 -0.01694
C 33.22761 30.58228 0.01428
C 31.97145 29.81373 -0.02142
C 32.0238 28.44031 0.0544
C 33.17868 27.723 0.00026
C 33.19225 26.27945 0.00682
C 31.96373 25.54645 -0.01779
C 29.55808 15.64435 0.01705
C 29.52774 17.03026 0.0101
C 30.7245 17.70021 -0.00669
C 30.73355 19.1833 0.03531
C 28.29633 10.66456 0.00194
C 28.30975 9.28747 -0.00621
C 27.02909 8.46336 0.02611
C 27.02529 7.077 0.02198
C 28.29396 6.37746 0.01094
C 28.34202 4.96798 0.00235
C 27.00032 4.22234 0.01495
C 27.01386 2.85591 0.01259
C 28.27644 2.08947 0.01799
C 28.25449 0.69647 0.01699
C 27.04965 34.02141 -0.00416
C 31.9817 24.19938 0.03794
C 29.50098 32.68731 0.01177
C 30.74162 30.52304 0.01324
C 29.51656 29.79758 0.0014
C 29.48237 28.36182 0.00924
C 30.71577 27.68354 0.02326
C 30.72588 26.27556 0.00261
C 29.53819 25.49761 0.03265
C 29.51345 24.08617 -0.02049
C 30.7236 23.47682 -0.01854
C 30.75523 22.05595 -0.01415
C 29.53941 21.36275 -0.03039
C 29.49939 19.879 0.01836
C 30.73351 31.92971 0.04266
C 27.06099 11.38007 0.04185
C 33.23042 23.41922 0.01927
C 32.00942 21.3104 -0.02383
C 34.40506 24.12711 0.03076
C 1.21078 23.44551 0.00723
C 1.20111 22.0404 0.02712
C 34.41681 21.35435 -0.02213
C 0.00478 19.84446 0.01951
C 1.23681 19.15232 -0.01678
C 1.17846 17.73259 0.01223
C 34.42934 17.0349 0.00648
C 0.02333 15.61214 0.02114
C 1.17159 14.85724 -0.02957
C 1.20768 13.48761 0.00343
C 0.01878 12.75818 -0.02656
C 34.40613 11.32694 -0.02442
C 1.19559 10.69202 -0.00027
C 1.2515 9.19784 -0.00583
C 0.00149 8.51912 -0.02302
C 0.0208 7.11629 -0.02849
C 1.19691 6.35192 0.02931
C 1.24156 4.90162 0.00628
C 34.42423 4.2122 -0.0345
C 34.41229 2.81416 -0.00931
C 1.25811 2.13742 -0.00939
C 1.2893 0.68842 -0.00468
C 34.41699 25.61362 -0.05239
C 1.1786 26.26858 -0.00598
C 1.1782 27.65117 -0.00439
C 0.00551 28.36451 -0.01037
C 31.94453 19.89821 -0.01429
C 33.23778 19.16345 -0.0136
C 33.20837 17.75098 0.00594
C 31.90321 17.05412 -0.02474
C 31.95096 15.55298 0.00369
C 33.2301 14.87987 0.00455
C 33.22616 13.45855 -0.00644
C 31.99064 12.74327 -0.01839
C 31.9985 11.30327 0.00137
C 33.21354 10.63148 0.00199
C 33.17154 9.24049 0.04381
C 33.23257 21.94772 0.01574
C 31.94661 8.49562 0.02806
C 33.18388 6.41992 -0.00069
C 33.24506 4.92881 0.04926
C 32.043 4.23574 -0.03838
C 31.95832 2.82635 0.00349
C 33.19162 2.10808 -0.00323
C 33.21317 0.69625 -0.00841
C 31.97394 34.06048 0.0001
C 0.03013 32.67179 -0.02927
C 1.20695 31.95157 -0.01404
C 1.23234 30.54204 0.01027
C 0.02735 29.8079 0.01831
C 32.00519 7.12793 0.01504
C 19.736 29.85289 0.00028
C 27.04655 12.79615 0.02316
C 28.31257 14.8395 0.00152
C 22.13773 29.82029 -0.04076
C 22.18215 28.42445 -0.00652
C 23.35426 27.73415 0.0058
C 23.34025 26.26392 -0.00865
C 22.14943 25.57984 0.00675
C 22.10618 24.16392 -0.00311
C 23.36675 23.41273 0.00742
C 23.40115 21.99782 -0.01594
C 22.13478 21.339 0.0106
C 22.11979 19.85992 -0.01154
C 23.37022 19.21252 -0.01721
C 23.37226 17.75405 -0.02422
C 22.17393 17.00147 0.01277
C 22.06929 15.57084 0.00096
C 23.37037 14.93385 -0.01527
C 23.36952 13.44868 0.01087
C 22.25174 12.79686 0.00199
C 22.09987 11.37557 0.01511
C 23.36765 10.64091 -0.00478
C 23.35877 9.216 -0.01662
C 22.05838 8.51999 -0.01185
C 22.10139 7.09266 0.01126
C 23.32408 6.36457 0.01852
C 23.33041 30.50998 -0.00703
C 23.38922 31.94608 0.00654
C 22.05955 32.63753 -0.04422
C 19.67893 0.01235 -0.02957
C 20.87555 27.70941 0.03698
C 20.87261 26.21085 -0.00109
C 19.63843 25.557 -0.00491
C 19.65467 24.13454 0.03338
C 20.90775 23.41791 -0.0258
C 20.88002 21.99868 -0.0331
C 19.67054 21.25642 -0.00316
C 20.92244 19.15583 0.02188
C 20.92283 17.73328 -0.01979
C 19.67014 15.64696 0.02691
C 20.95786 14.96971 -0.01581
C 23.36478 4.96597 -0.00381
C 20.87723 13.44414 0.01452
C 19.68201 11.33894 -0.00111
C 20.89179 10.66573 -0.03557
C 20.88206 9.25096 0.03754
C 19.68575 8.49356 0.01739
C 19.70656 7.11932 0.00755
C 20.94274 6.39384 -0.0054
C 20.88781 4.98295 0.00667
C 19.66429 4.20747 0.00143
C 19.67715 2.8652 -0.017
C 20.92295 2.16622 0.00364
C 20.895 0.70878 -0.00831
C 19.65931 12.74659 0.04892
C 28.28908 13.47454 0.01257
C 22.1144 4.24328 0.03046
C 23.37421 2.11541 0.03374
C 25.85001 4.93253 -0.01199
C 24.57315 4.32304 -0.00229
C 24.6474 2.88904 -0.00938
C 25.78453 2.13766 -0.0264
C 25.85873 0.69899 -0.01154
C 24.59769 0.02787 0.00684
C 27.06178 32.66962 -0.01052
C 28.32156 31.91476 -0.01679
C 28.27361 30.50711 0.00367
C 27.1281 29.83347 0.04306
C 27.01613 28.44365 0.00996
C 28.29247 27.70216 0.00195
C 28.29775 26.30701 -0.00802
C 27.06029 25.57093 -0.00218
C 27.05784 24.09606 -0.01654
C 28.24048 23.38338 -0.00037
C 28.34661 22.01001 -0.0032
C 27.03403 21.27651 0.00622
C 27.00844 19.87954 -0.02815
C 28.27913 19.15334 -0.00942
C 28.23878 17.745 0.00487
C 27.05488 17.02912 0.00826
C 26.99561 15.56941 -0.00294
C 25.80259 6.37998 -0.009
C 24.59376 7.11182 -0.00285
C 24.60005 8.56419 0.01423
C 25.79729 9.13664 0.02555
C 23.39038 0.69968 -0.02845
C 22.12839 0.03613 -0.03213
C 24.58905 32.70345 0.02239
C 25.83424 31.98513 0.01153
C 25.80815 30.48945 0.02734
C 24.59131 29.78534 -0.0055
C 24.59793 28.39579 0.01515
C 25.80917 27.70138 -0.00225
C 25.81176 26.27246 0.00071
C 24.61849 25.56741 -0.01107
C 24.5935 24.12586 -0.01586
C 22.15956 2.86895 0.0296
C 25.80309 23.42812 -0.01971
C 24.55484 21.33357 0.00733
C 24.56648 19.83278 -0.00178
C 25.74986 19.15897 0.00768
C 25.77401 17.77285 -0.0276
C 24.57762 17.0554 0.03005
C 24.59323 15.67203 -0.04078
C 25.788 14.91082 0.02117
C 25.85256 13.53228 0.02737
C 24.61392 12.77994 -0.00498
C 24.62054 11.32915 0.00135
C 25.82016 10.65118 0.03102
C 25.79307 22.03769 -0.02118
C 2.49805 32.64858 -0.0213
