352
Graphene
C 0.01332 0.03333 0.01295
C 14.76115 0.02711 -0.00114
C 17.20024 32.67684 0.00228
C 18.45008 32.02955 0.00798
C 18.46223 30.57835 0.00422
C 17.23876 29.88832 0.0351
C 17.20658 28.45393 -0.03113
C 18.38483 27.64362 0.02098
C 18.41159 26.23848 0.01848
C 16.01078 0.47979 -0.02696
C 17.21285 25.46049 -0.00619
C 18.55668 23.3998 0.00889
C 18.48137 21.99691 -0.00481
C 17.26701 21.28066 0.00979
C 17.22234 19.86254 0.01443
C 18.47433 19.1868 0.03505
C 18.44362 17.69256 -0.02815
C 17.07591 17.05599 -0.04147
C 18.33862 2.04618 -0.05302
C 17.33237 24.05475 -0.02162
C 18.39452 0.72711 0.00213
C 16.17028 17.77234 -0.00368
C 14.77525 19.83812 -0.01957
C 13.45034 22.03415 0.02162
C 12.27967 21.38651 0.0076
C 12.35415 19.86684 0.01241
C 13.57112 19.2182 -0.01454
C 13.46516 0.63906 0.01945
C 12.46747 0.02941 0.01416
C 14.80357 32.64924 0.03542
C 15.9528 32.00561 0.02299
C 16.01305 19.16233 -0.0108
C 16.03315 30.57528 0.00244
C 14.68983 28.41354 0.05265
C 15.98173 27.73321 -0.01952
C 16.01695 26.23042 -0.02813
C 14.75162 25.53928 0.00374
C 14.84093 24.12379 0.00052
C 16.05155 23.35512 -0.03682
C 15.98907 21.94546 0.01965
C 14.69052 21.35129 0.02058
C 14.78598 29.83511 -0.01717
C 13.48553 23.4442 -0.0014
C 17.20796 0.01024 -0.00066
C 20.90963 31.89751 0.00028
C 19.56473 2.91097 -0.017
C 20.92964 2.1922 0.00364
C 20.81169 0.81347 -0.00831
C 19.64485 0.0388 -0.02957
C 22.16828 32.63759 -0.04422
C 23.35762 31.92409 0.00654
C 23.40012 30.55664 -0.00703
C 22.10977 29.82279 -0.04076
C 19.66381 4.26587 0.00143
C 22.10121 28.35501 -0.00652
C 23.41387 26.27772 -0.00865
C 22.17276 25.56097 0.00675
C 22.18405 24.14137 -0.00311
C 23.38219 23.42107 0.00742
C 23.32803 22.0502 -0.01594
C 22.12263 21.29253 0.0106
C 22.07187 19.82366 -0.01154
C 23.30989 19.17404 -0.01721
C 23.35604 27.65365 0.0058
C 19.74041 32.6607 -0.00289
C 20.78827 5.05906 0.00667
C 20.88548 9.29158 0.00755
C 20.86484 30.51671 -0.02213
C 19.64199 29.84136 0.03698
C 19.61047 28.46242 -0.00109
C 20.87602 27.73006 -0.00491
C 20.97375 26.26499 0.03338
C 19.67825 25.56967 -0.0258
C 19.71605 24.20133 -0.0331
C 20.95462 23.43046 -0.00316
C 21.02196 6.39509 -0.0054
C 20.91398 22.02061 0.02188
C 19.65223 19.82348 0.02691
C 20.85025 19.12198 -0.01581
C 20.93835 17.73749 0.01452
C 19.70196 17.04516 0.04892
C 19.6297 15.68458 -0.00111
C 20.7402 14.87082 -0.03557
C 20.90693 13.47809 0.03754
C 20.95112 10.47725 0.01739
C 19.65999 21.28361 -0.01979
C 23.35584 17.75556 -0.02422
C 12.27235 24.14705 0.00415
C 13.47165 26.26297 0.01363
C 2.43423 2.80872 -0.00095
C 3.71544 2.09518 0.01572
C 3.7013 0.68251 -0.04848
C 2.38856 0.01065 -0.00892
C 4.97064 32.6766 -0.01362
C 6.20382 32.00127 -0.0008
C 6.14696 30.61328 0.0288
C 4.92629 29.83668 0.00393
C 2.49509 4.28379 0.03007
C 4.88381 28.42069 0.00895
C 6.17027 26.36291 0.02888
C 4.99044 25.52949 -0.00482
C 4.94649 24.13948 -0.01384
C 6.11978 23.46329 0.03693
C 6.09266 22.07891 0.01745
C 4.86635 21.32952 0.00488
C 4.93659 19.92274 -0.01004
C 6.1605 19.15665 -0.02896
C 6.15948 27.74206 0.00685
C 6.14956 17.78528 -0.00131
C 3.63708 4.94104 0.00054
C 2.32194 8.37657 -0.00562
C 3.71702 30.51455 0.0276
C 2.40893 29.79614 0.01305
C 2.40276 28.37234 -0.00077
C 3.65679 27.6841 0.03368
C 3.7504 26.26618 -0.02929
C 2.52124 25.52297 -0.00966
C 2.50629 24.13271 -0.03337
C 3.69695 23.40208 0.01227
C 2.44349 7.22588 -0.00494
C 3.61238 22.00706 0.00873
C 2.45057 19.99024 0.00848
C 3.65685 19.23733 -0.01303
C 3.71923 17.72151 -0.01378
C 2.46456 17.04428 0.02635
C 2.47904 15.57126 0.0127
C 3.74626 14.90472 0.01396
C 2.49823 12.63449 0.01849
C 2.32703 11.50813 -0.01142
C 2.35593 21.42389 -0.00049
C 12.2413 25.61786 -0.02162
C 5.02144 17.01415 -0.01118
C 5.03577 2.80872 0.02147
C 9.85107 29.80978 -0.01111
C 9.88676 28.34217 -0.01275
C 11.07681 27.71075 0.00985
C 11.03205 26.3247 -0.02245
C 9.86756 25.54566 -0.00428
C 9.85381 24.14701 0.03101
C 11.0655 23.44388 -0.01536
C 11.02876 22.03183 -0.02689
C 11.06247 30.46232 0.02841
C 9.75283 21.3343 -0.01046
C 11.07949 19.38113 0.02819
C 9.63966 0.04644 0.00165
C 12.31032 32.67703 -0.02971
C 13.5811 31.97636 0.02894
C 13.55731 30.48594 -0.01789
C 12.28027 29.7765 0.00444
C 12.30272 28.35399 -0.00925
C 13.4914 27.66476 0.01877
C 9.73939 19.71139 -0.00891
C 4.72106 15.53521 -0.014
C 11.0787 32.00459 0.00943
C 7.39291 0.10049 0.03592
C 6.01308 2.18615 0.00373
C 6.13102 0.75319 -0.00191
C 4.87417 0.02396 0.00438
C 7.4483 32.74182 0.01291
C 8.58414 31.98645 0.00093
C 8.64582 30.54466 0.00057
C 7.39865 29.87241 -0.01634
C 7.41004 28.44676 -0.00334
C 9.83761 32.74472 0.00406
C 8.67294 27.69661 0.02339
C 7.36332 25.65361 -0.00719
C 7.36382 24.22569 0.01364
C 8.53666 23.49683 -0.01062
C 8.5616 22.12014 -0.00033
C 7.34801 21.38838 0.03589
C 7.3595 19.95208 -0.02759
C 8.48045 19.1909 0.0402
C 8.66932 0.71676 0.00572
C 8.64756 26.29164 0.01641
C 22.11134 17.05237 0.01277
C 22.09068 15.66133 0.00096
C 23.30428 14.92708 -0.01527
C 33.22203 31.94233 -0.01694
C 33.10351 30.54187 0.01428
C 31.91041 29.81586 -0.02142
C 31.95221 28.40042 0.0544
C 33.18838 27.69271 0.00026
C 33.15233 26.33825 0.00682
C 31.95925 25.62368 -0.01779
C 32.00854 24.19273 0.03794
C 32.01765 32.60238 0.01713
C 33.21536 23.52603 0.01927
C 31.91537 21.32877 -0.02383
C 31.93407 19.90224 -0.01429
C 33.17402 19.21876 -0.0136
C 33.09935 17.77396 0.00594
C 31.87767 16.98791 -0.02474
C 31.95882 15.60682 0.00369
C 33.17202 14.88583 0.00455
C 33.14622 13.46041 -0.00644
C 33.14579 22.09092 0.01574
C 31.9826 12.68891 -0.01839
C 29.55976 34.06208 0.00346
C 30.8262 2.11973 0.00716
C 29.55125 21.30956 -0.03039
C 29.54176 19.92934 0.01836
C 30.74126 19.17005 0.03531
C 30.6889 17.75455 -0.00669
C 29.54958 17.03111 0.0101
C 29.48627 15.63192 0.01705
C 30.71166 14.85831 -0.0405
C 30.75491 13.45306 -0.01303
C 30.77082 0.69439 0.00307
C 29.53071 12.79 -0.01461
C 30.73217 10.68218 -0.00944
C 30.72203 9.18966 -0.03735
C 29.55679 8.49341 -0.00971
C 29.48266 7.09786 0.01518
C 30.76016 6.43995 0.01908
C 30.75155 5.03319 0.07705
C 29.59147 4.20679 0.0103
C 29.57727 2.74443 0.02108
C 29.50806 11.39985 -0.02155
C 30.78814 22.05838 -0.01415
C 32.00352 11.33627 0.00137
C 33.19632 9.25172 0.04381
C 1.23802 19.13959 -0.01678
C 1.17817 17.70495 0.01223
C 34.29636 17.08078 0.00648
C 34.40337 15.64155 0.02114
C 1.20901 14.95359 -0.02957
C 1.2625 13.48869 0.00343
C 0.02023 12.76877 -0.02656
C 0.09553 11.31012 -0.02442
C 0.01349 19.89632 0.01951
C 1.30009 10.56019 -0.00027
C 34.3894 8.47928 -0.02302
C 0.05514 7.046 -0.02849
C 1.3182 6.35064 0.02931
C 1.19257 4.93789 0.00628
C 34.40265 4.25628 -0.0345
C 34.43134 2.83452 -0.00931
C 1.19936 2.1431 -0.00939
C 1.21634 0.76968 -0.00468
C 1.18583 9.2343 -0.00583
C 33.26189 10.66682 0.00199
C 34.38446 21.34022 -0.02213
C 1.18854 23.4539 0.00723
C 31.94172 8.58231 0.02806
C 32.05377 7.11323 0.01504
C 33.2419 6.3592 -0.00069
C 33.20843 4.9451 0.04926
C 31.95588 4.3164 -0.03838
C 31.98171 2.85494 0.00349
C 33.21334 2.16443 -0.00323
C 33.19216 0.67681 -0.00841
C 1.15871 22.04661 0.02712
C 31.96799 33.97481 0.0001
C 1.20033 31.87821 -0.01404
C 1.14013 30.49544 0.01027
C 34.3289 29.80734 0.01831
C 34.40941 28.34955 -0.01037
C 1.18976 27.68404 -0.00439
C 1.24548 26.24469 -0.00598
C 34.38381 25.62605 -0.05239
C 0.0108 24.24583 0.03076
C 0.05117 32.68409 -0.02927
C 30.7777 23.48396 -0.01854
C 29.50057 24.17987 -0.02049
C 29.43312 25.57968 0.03265
C 24.62708 24.14038 -0.01586
C 25.88919 23.40779 -0.01971
C 25.82042 21.99983 -0.02118
C 24.59269 21.31055 0.00733
C 24.53362 19.96275 -0.00178
C 25.82505 19.24774 0.00768
C 25.75997 17.78827 -0.0276
C 24.54668 17.04995 0.03005
C 24.57091 25.54457 -0.01107
C 24.5795 15.67328 -0.04078
C 25.8463 13.49873 0.02737
C 24.57396 12.75427 -0.00498
C 24.57476 11.34016 0.00135
C 25.81689 10.6964 0.03102
C 25.8324 9.26238 0.02555
C 24.59996 8.44242 0.01423
C 24.56426 7.02963 -0.00285
C 25.82526 6.34545 -0.009
C 25.83068 14.93365 0.02117
C 25.75341 4.975 -0.01199
C 25.79904 26.20766 0.00071
C 24.56474 28.36288 0.01515
C 23.35727 13.53225 0.01087
C 22.07323 12.78575 0.00199
C 22.06659 11.32925 0.01511
C 23.35801 10.61594 -0.00478
C 23.39112 9.18758 -0.01662
C 22.11777 8.51917 -0.01185
C 22.14221 7.11094 0.01126
C 23.39143 6.33498 0.01852
C 25.79045 27.65328 -0.00225
C 23.28297 4.95728 -0.00381
C 22.16839 2.85093 0.0296
C 23.37045 2.09597 0.03374
C 23.309 0.69691 -0.02845
C 22.03937 0.03299 -0.03213
C 24.56222 32.60863 0.02239
C 25.73386 31.93469 0.01153
C 25.81962 30.53202 0.02734
C 24.56709 29.80834 -0.0055
C 22.10309 4.24345 0.03046
C 24.54867 4.19705 -0.00229
C 24.54013 2.80469 -0.00938
C 25.8484 2.13412 -0.0264
C 28.34484 10.60387 0.00194
C 28.32461 9.16553 -0.00621
C 27.07981 8.47476 0.02611
C 27.07073 7.0583 0.02198
C 28.28151 6.32667 0.01094
C 28.29547 4.85812 0.00235
C 27.05517 4.23097 0.01495
C 27.06726 2.79355 0.01259
C 27.09823 11.32982 0.04185
C 28.35701 2.09675 0.01799
C 27.03826 0.01344 -0.00416
C 29.54441 32.62983 0.01177
C 30.71705 31.93607 0.04266
C 30.73143 30.52259 0.01324
C 29.51719 29.82537 0.0014
C 29.53937 28.43451 0.00924
C 30.73033 27.6972 0.02326
C 30.71268 26.26086 0.00261
C 28.34345 0.68624 0.01699
C 27.11603 12.80203 0.02316
C 28.29373 13.4705 0.01257
C 28.29514 14.93152 0.00152
C 25.80574 0.7121 -0.01154
C 24.59689 0.02648 0.00684
C 27.01187 32.68269 -0.01052
C 28.20802 31.97913 -0.01679
C 28.29451 30.52846 0.00367
C 26.98859 29.82262 0.04306
C 27.03287 28.41787 0.00996
C 28.27449 27.7545 0.00195
C 28.23192 26.32484 -0.00802
C 27.00962 25.57352 -0.00218
C 27.11495 24.14952 -0.01654
C 28.29466 23.39191 -0.00037
C 28.29338 21.93848 -0.0032
C 27.04669 21.26982 0.00622
C 27.0498 19.89185 -0.02815
C 28.32187 19.20911 -0.00942
C 28.36409 17.81369 0.00487
C 27.05862 17.11104 0.00826
C 27.0672 15.62818 -0.00294
C 3.69232 31.96947 0.00988
C 2.41263 32.67406 -0.01343
