325
Graphene
C 0.0174 34.02992 0.01295
C 14.67227 4.31456 -0.00066
C 14.78383 2.88082 -0.00289
C 15.99759 2.15883 0.00028
C 15.98211 0.80257 -0.02213
C 14.78132 0.08861 0.03698
C 17.20675 32.62314 -0.00109
C 18.42661 31.85429 -0.00491
C 16.03776 4.95825 0.00213
C 18.36449 30.50094 0.03338
C 17.14036 28.23994 -0.0331
C 18.37137 27.60986 -0.00316
C 18.50179 26.22954 0.02188
C 17.28716 25.64152 -0.01979
C 17.19648 7.06437 0.02691
C 18.41693 6.34139 -0.01581
C 18.46861 5.03019 0.01452
C 17.16854 29.73145 -0.0258
C 17.30343 4.26144 0.04892
C 15.98029 6.39044 -0.05302
C 14.82051 8.50778 -0.02815
C 12.2939 7.11494 -0.02696
C 13.51094 6.4416 -0.00114
C 13.45474 4.98014 0.00228
C 12.26857 4.23855 0.00798
C 12.22284 2.88656 0.00422
C 13.54359 2.20899 0.0351
C 13.56127 0.80015 -0.03113
C 14.78278 7.00356 -0.04147
C 12.37377 0.0897 0.02098
C 16.02612 31.98347 -0.00619
C 15.96898 30.49741 -0.02162
C 14.72208 29.80652 0.00889
C 14.67404 28.38182 -0.00481
C 15.86403 27.52924 0.00979
C 16.06889 26.28887 0.01443
C 16.06041 9.01721 0.03505
C 14.81841 32.71974 0.01848
C 17.20374 2.84572 -0.00111
C 18.47137 2.1189 -0.03557
C 18.47539 0.63909 0.03754
C 20.80964 0.65749 -0.01154
C 19.63909 33.95202 -0.01721
C 22.11124 32.65067 -0.02422
C 23.37873 32.02268 0.01277
C 23.40085 30.58858 0.00096
C 22.17575 29.87989 -0.01527
C 22.12595 28.36621 0.01087
C 20.91741 2.05718 0.0106
C 23.3138 27.73421 0.00199
C 22.06736 25.60547 -0.00478
C 22.06012 24.13559 -0.01662
C 23.28902 23.47006 -0.01185
C 23.35622 22.02327 0.01126
C 22.08675 21.32995 0.01852
C 22.0748 19.93472 -0.00381
C 23.26961 19.08627 0.03046
C 23.2859 26.3207 0.01511
C 19.72089 2.83048 -0.01594
C 19.65292 4.27916 0.00742
C 20.86527 4.8805 -0.00311
C 17.18646 0.02473 0.01739
C 19.65424 32.5292 0.00755
C 20.90375 31.93426 -0.0054
C 20.89508 30.54767 0.00667
C 19.66733 29.78671 0.00143
C 19.64725 28.39764 -0.017
C 20.87514 27.77059 0.00364
C 20.90291 26.29288 -0.00831
C 19.70772 25.50386 -0.02957
C 19.72819 24.17045 -0.04422
C 20.86693 23.51111 0.00654
C 20.87313 22.0881 -0.00703
C 19.7925 21.328 -0.04076
C 19.82007 20.00272 -0.00652
C 20.83492 19.17228 0.0058
C 20.90087 17.80615 -0.00865
C 19.95006 16.81963 0.00675
C 12.2376 8.59758 -0.00368
C 13.44692 9.30221 -0.0108
C 13.68845 10.62261 -0.01957
C 13.43741 27.90401 0.02058
C 2.45283 34.07382 0.00093
C 4.93499 32.68174 0.00057
C 6.13123 31.99144 -0.01634
C 6.18921 30.54407 -0.00334
C 4.90673 29.84579 0.02339
C 4.87877 28.47504 0.01641
C 6.14048 27.61374 -0.00719
C 3.6693 0.69809 0.01291
C 4.97387 25.59969 0.01364
C 6.07366 10.65111 -0.00033
C 6.11094 9.29708 0.03589
C 4.86097 8.54529 -0.02759
C 4.92295 7.11689 0.0402
C 6.14589 6.30478 0.00572
C 6.16825 4.98948 0.03592
C 4.96627 4.28446 0.00406
C 4.92592 11.24956 -0.01062
C 3.69078 2.07275 0.00438
C 2.43709 2.82298 -0.00191
C 2.51208 4.21837 0.00373
C 3.68126 30.57561 -0.0008
C 2.48719 29.81194 0.0288
C 2.46401 28.43827 0.00393
C 3.69903 27.7034 0.00895
C 3.73806 26.37886 0.00685
C 2.48633 25.64058 0.02888
C 2.42793 24.28785 -0.00482
C 2.51365 15.54818 -0.01384
C 3.52891 13.81862 0.03693
C 2.49107 12.75029 0.01745
C 2.48797 11.35552 0.00488
C 3.69951 10.67718 -0.01004
C 3.67343 9.23944 -0.02896
C 2.41862 8.56163 -0.00131
C 2.48593 7.06794 -0.01118
C 3.72468 6.38482 -0.014
C 3.69331 4.9516 0.02147
C 4.89155 2.84058 0.00943
C 23.3135 17.69313 0.0296
C 6.149 2.15699 0.02841
C 4.95438 0.06198 -0.01275
C 9.7469 28.46487 0.0076
C 10.98719 9.26554 0.01241
C 9.74291 8.56278 -0.01454
C 9.84444 7.15571 0.01945
C 11.02888 6.4347 0.01416
C 10.97438 4.97904 0.03542
C 9.73968 4.27499 0.02299
C 9.92539 29.70935 0.02162
C 9.78784 2.90119 0.00244
C 11.07815 0.7455 0.05265
C 9.85663 0.06346 -0.01952
C 12.32556 32.74529 -0.02813
C 13.58219 32.04632 0.00374
C 13.5162 30.58207 0.00052
C 12.27696 29.7624 -0.03682
C 12.1698 28.39258 0.01965
C 11.04594 2.23023 -0.01717
C 11.06611 30.46345 -0.0014
C 11.11097 31.96672 0.00415
C 9.89479 32.62913 -0.02162
C 7.3231 32.68223 0.00985
C 8.62061 31.95356 -0.02245
C 8.6094 30.50193 -0.00428
C 7.3537 29.77313 0.03101
C 7.37672 28.16317 -0.01536
C 8.68941 27.63546 -0.02689
C 8.40648 10.5754 -0.01046
C 8.50147 9.17103 -0.00891
C 7.28118 8.53875 0.02819
C 7.32393 7.11445 0.00165
C 8.59252 6.43615 -0.02971
C 8.50003 5.01458 0.02894
C 7.33822 4.32381 -0.01789
C 7.41071 2.83459 0.00444
C 8.60989 2.12548 -0.00925
C 8.61891 0.74068 0.01877
C 7.38476 0.10332 0.01363
C 6.12779 0.78695 -0.01111
C 3.64539 31.96124 -0.01362
C 21.98798 16.94273 0.03374
C 23.314 5.05426 -0.03213
C 33.16879 26.3349 0.00682
C 31.99966 25.55476 -0.01779
C 31.94749 24.19303 0.03794
C 33.21551 23.56092 0.01927
C 33.21564 22.11427 0.01574
C 32.005 21.36257 -0.02383
C 31.93538 19.92284 -0.01429
C 33.15022 27.72476 0.00026
C 33.19838 19.17341 -0.0136
C 31.95088 17.12077 -0.02474
C 31.92604 15.6748 0.00369
C 33.20967 14.9829 0.00455
C 33.22999 13.56539 -0.00644
C 31.93229 12.85798 -0.01839
C 31.94424 11.42802 0.00137
C 33.14913 10.68738 0.00199
C 33.19599 17.78984 0.00594
C 33.11448 9.3015 0.04381
C 31.89931 28.35844 0.0544
C 33.22246 30.52709 0.01428
C 30.70437 13.4863 -0.01303
C 29.48207 12.8223 -0.01461
C 29.49358 11.34498 -0.02155
C 30.73609 10.63084 -0.00944
C 30.67501 9.23009 -0.03735
C 29.47065 8.45247 -0.00971
C 29.47336 7.09968 0.01518
C 31.97287 29.8226 -0.02142
C 30.67051 6.47442 0.01908
C 29.47652 4.21285 0.0103
C 29.49536 2.87563 0.02108
C 30.65984 2.1127 0.00716
C 30.69373 0.75453 0.00307
C 29.47446 34.06334 0.00346
C 31.99122 32.64766 0.01713
C 33.21269 31.97419 -0.01694
C 30.71047 4.96865 0.07705
C 31.94431 8.50262 0.02806
C 31.91867 7.0875 0.01504
C 33.19399 6.36841 -0.00069
C 0.03851 16.96746 0.00648
C 0.00567 15.64002 0.02114
C 1.27825 14.93046 -0.02957
C 1.21415 13.50472 0.00343
C 34.41782 12.8079 -0.02656
C 34.38721 11.37963 -0.02442
C 1.16823 10.63004 -0.00027
C 1.11608 17.73289 0.01223
C 1.20767 9.20592 -0.00583
C 34.43012 7.08683 -0.02849
C 1.21308 6.3715 0.02931
C 1.25452 5.03757 0.00628
C 34.41705 4.27614 -0.0345
C 34.42911 2.81501 -0.00931
C 1.22872 2.0982 -0.00939
C 1.23141 0.7096 -0.00468
C 34.41952 8.51365 -0.02302
C 1.18659 19.12418 -0.01678
C 0.12498 19.92796 0.01951
C 0.01781 21.36464 -0.02213
C 33.20891 4.9747 0.04926
C 31.97992 4.20906 -0.03838
C 31.95981 2.83551 0.00349
C 33.19236 2.1558 -0.00323
C 33.21201 0.68736 -0.00841
C 31.97572 0.01782 0.0001
C 0.00483 32.62915 -0.02927
C 1.23334 31.93909 -0.01404
C 1.18818 30.46269 0.01027
C 34.34257 29.76572 0.01831
C 34.39288 28.39842 -0.01037
C 1.18865 27.72158 -0.00439
C 1.26207 26.34926 -0.00598
C 0.05184 25.65759 -0.05239
C 0.07646 24.18724 0.03076
C 1.40199 23.44488 0.00723
C 1.11235 22.07889 0.02712
C 30.74377 14.91671 -0.0405
C 29.47838 15.56781 0.01705
C 29.58283 17.00352 0.0101
C 30.74806 17.75766 -0.00669
C 24.79567 15.6332 0.03102
C 25.83324 14.86853 0.02555
C 25.90764 9.4367 0.01423
C 24.68307 7.09824 -0.00285
C 25.81123 6.36975 -0.009
C 25.84024 5.04987 -0.01199
C 24.56562 4.3343 -0.00229
C 24.48243 16.94635 0.00135
C 24.60775 2.84317 -0.00938
C 25.79593 0.72135 -0.01154
C 24.51794 0.04183 0.00684
C 26.99575 32.65677 -0.01052
C 28.26854 31.89068 -0.01679
C 28.2508 30.49492 0.00367
C 26.99574 29.82686 0.04306
C 27.01145 28.42064 0.00996
C 25.79344 2.06911 -0.0264
C 25.77292 17.6296 -0.00498
C 25.80106 19.07147 0.02737
C 24.60618 19.87333 0.02117
C 22.13265 4.25036 0.02239
C 22.14685 2.84732 0.01153
C 23.32237 2.16028 0.02734
C 23.30158 0.7436 -0.0055
C 22.08613 34.02652 0.01515
C 24.58045 32.70515 -0.00225
C 25.78731 32.02905 0.00071
C 25.76838 30.56771 -0.01107
C 24.58909 29.78575 -0.01586
C 24.53614 28.37524 -0.01971
C 25.81264 27.67642 -0.02118
C 25.84413 26.31217 0.00733
C 24.60613 25.56587 -0.00178
C 24.52843 24.12401 0.00768
C 25.74586 23.32704 -0.0276
C 25.78 21.99543 0.03005
C 24.5204 21.33071 -0.04078
C 28.30344 27.71316 0.00195
C 23.44535 6.47046 -0.02845
C 28.23134 26.27063 -0.00802
C 26.95231 24.13437 -0.01654
C 28.2208 0.67528 0.01699
C 26.95152 34.05415 -0.00416
C 29.43384 32.65832 0.01177
C 30.76654 31.95644 0.04266
C 30.68847 30.59035 0.01324
C 29.52213 29.77142 0.0014
C 29.46896 28.34677 0.00924
C 28.27112 2.10437 0.01799
C 30.65997 27.62987 0.02326
C 29.49092 25.52872 0.03265
C 29.41211 24.06703 -0.02049
C 30.67712 23.45335 -0.01854
C 30.62162 22.04739 -0.01415
C 29.42003 21.29672 -0.03039
C 29.47918 19.8857 0.01836
C 30.73876 19.26636 0.03531
C 30.7376 26.25408 0.00261
C 27.03729 2.80694 0.01259
C 26.99017 4.25641 0.01495
C 28.24027 4.96751 0.00235
C 28.19085 23.38507 -0.00037
C 28.19322 21.99347 -0.0032
C 26.95311 21.18433 0.00622
C 26.97956 19.74628 -0.02815
C 28.21449 19.12385 -0.00942
C 28.30204 17.68357 0.00487
C 27.02745 16.90283 0.00826
C 27.05325 15.45415 -0.00294
C 28.23202 14.81679 0.00152
C 28.25515 13.41311 0.01257
C 27.04241 12.57266 0.02316
C 27.1309 11.3054 0.04185
C 28.22478 10.60611 0.00194
C 28.27721 9.23801 -0.00621
C 26.98155 8.5717 0.02611
C 26.97467 7.11626 0.02198
C 28.21491 6.40577 0.01094
C 27.00668 25.53903 -0.00218
C 2.46234 32.64056 -0.00892
