425
Graphene
C 0.01726 0.02253 0.01295
C 12.33357 24.12678 0.00572
C 13.47739 23.50785 0.03592
C 13.51919 22.05447 0.00406
C 12.31496 21.2902 0.00943
C 12.33334 19.9232 0.02841
C 13.54197 19.19591 -0.01111
C 13.46966 17.7348 -0.01275
C 12.2633 17.02736 0.00985
C 12.25985 15.51901 -0.02245
C 13.51049 14.88436 -0.00428
C 12.33798 25.59792 0.0402
C 13.5536 13.45692 0.03101
C 12.32834 11.34078 -0.02689
C 13.58176 10.6383 -0.01046
C 13.52128 9.30891 -0.00891
C 12.32405 8.49136 0.02819
C 12.30323 7.0339 0.00165
C 13.47505 6.34964 -0.02971
C 13.57507 4.89491 0.02894
C 12.23684 4.25228 -0.01789
C 12.26559 2.8839 0.00444
C 13.51717 2.08509 -0.00925
C 12.25256 12.82137 -0.01536
C 13.44359 26.33272 -0.02759
C 13.53056 27.72892 0.03589
C 12.31292 28.42927 -0.00033
C 11.0814 19.18153 -0.01384
C 11.0851 17.75103 0.03693
C 9.8169 17.05249 0.01745
C 9.82085 15.61848 0.00488
C 11.06596 14.9515 -0.01004
C 11.06692 13.59215 -0.02896
C 9.82564 12.80754 -0.00131
C 9.82582 11.42412 -0.01118
C 11.08446 10.58511 -0.014
C 11.09422 9.2134 0.02147
C 9.88159 8.55262 0.00373
C 9.93514 7.10981 -0.00191
C 11.06037 6.34124 0.00438
C 11.04709 5.00465 0.01291
C 9.85326 4.21886 0.00093
C 9.76984 2.81386 0.00057
C 11.08555 2.12732 -0.01634
C 11.16789 0.72821 -0.00334
C 9.8616 0.02984 0.02339
C 12.32688 32.68414 0.01641
C 13.49648 32.05018 -0.00719
C 13.51105 30.58031 0.01364
C 12.27745 29.79165 -0.01062
C 13.5409 0.67471 0.01877
C 9.8457 19.92867 -0.00482
C 12.31891 34.05384 0.01363
C 15.94414 31.96396 0.00415
C 15.96143 2.14729 0.0351
C 16.00414 0.68226 -0.03113
C 14.805 0.0516 0.02098
C 17.21673 32.62491 0.01848
C 18.46983 31.9578 -0.00619
C 18.45514 30.53777 -0.02162
C 17.25227 29.7892 0.00889
C 17.14065 28.40824 -0.00481
C 18.40227 27.66905 0.00979
C 18.4556 26.23255 0.01443
C 14.75684 2.80398 0.00422
C 17.19536 25.58456 0.03505
C 18.41423 23.43979 -0.04147
C 18.40443 22.03097 -0.05302
C 17.15679 21.33079 0.00213
C 17.18341 19.92863 -0.00066
C 17.19883 12.77036 -0.00289
C 17.27799 11.34104 0.00028
C 18.4948 10.65295 -0.02213
C 18.45779 9.24486 0.03698
C 17.22051 8.52858 -0.00109
C 17.25493 7.0989 -0.00491
C 17.20927 24.14924 -0.02815
C 14.7633 4.2123 0.00798
C 15.95797 4.94611 0.00228
C 15.97381 6.3774 -0.00114
C 16.03393 30.56257 -0.0014
C 14.73447 29.82982 0.02162
C 14.71881 28.40657 0.0076
C 15.93357 27.69934 0.01241
C 15.97548 26.24473 -0.01454
C 14.68906 25.57496 0.01945
C 14.74278 24.18321 0.01416
C 16.0165 23.41591 0.03542
C 15.96487 21.99675 0.02299
C 14.75694 21.24114 0.00244
C 14.72248 19.85474 -0.01717
C 16.03677 19.11062 0.05265
C 15.90614 17.70235 -0.01952
C 14.77279 17.01662 -0.02813
C 14.80777 15.62592 0.00374
C 15.92371 14.96172 0.00052
C 16.05442 13.47572 -0.03682
C 14.73669 12.78489 0.01965
C 14.75787 11.37079 0.02058
C 16.00336 10.69464 -0.01957
C 16.00308 9.1696 -0.0108
C 14.74674 8.53456 -0.00368
C 14.72115 7.11053 -0.02696
C 14.72546 32.66649 -0.02162
C 9.83804 21.3093 0.02888
C 11.05902 22.06796 0.00685
C 11.08792 23.39846 0.00895
C 3.7094 2.1395 -0.00449
C 3.71972 0.71634 -0.01979
C 2.46951 0.00428 0.02784
C 4.85043 32.73263 -0.01977
C 6.15313 31.96755 -0.00561
C 6.15321 30.51073 0.00208
C 4.90246 29.82369 0.01707
C 4.89911 28.44111 0.02769
C 6.20919 27.63853 -0.03291
C 6.2183 26.28576 -0.04999
C 2.45096 2.82272 0.00211
C 5.01425 25.53369 0.04505
C 6.14305 23.40915 -0.04307
C 6.07876 21.98279 0.03189
C 4.87847 21.38307 0.00031
C 4.91957 19.9014 -0.003
C 6.16987 19.16785 0.01402
C 6.13967 17.78249 0.02379
C 4.97662 17.03621 0.00907
C 4.89079 15.58342 0.00643
C 6.1795 14.88826 -0.01509
C 6.08171 13.44075 0.03267
C 4.8961 24.19424 0.03284
C 2.40551 4.28994 0.0064
C 3.64624 4.98841 -0.00039
C 3.72711 6.42511 0.02728
C 3.68771 30.45048 -0.01471
C 2.48848 29.83152 -0.02827
C 2.49204 28.43788 0.01078
C 3.69817 27.72195 -0.00112
C 3.69613 26.24449 0.03345
C 2.43548 25.47799 0.00748
C 2.44602 24.09286 0.00662
C 3.71422 23.42394 -0.0154
C 3.69027 21.97885 -0.01299
C 2.46362 21.32709 -0.00407
C 2.49258 19.9341 0.01138
C 3.6781 19.16411 0.03278
C 3.75183 17.73166 -0.00177
C 2.51386 17.04294 0.04421
C 2.48164 15.66677 0.00088
C 3.64457 14.82214 0.00828
C 3.66549 13.47907 -0.02375
C 2.42012 12.79334 0.00558
C 2.40694 11.31049 -0.0059
C 3.71177 10.63605 -0.01386
C 3.66838 9.24686 -0.02805
C 2.43653 8.53663 0.00081
C 2.48913 7.03493 0.00245
C 4.89642 12.81742 0.02374
C 4.93132 11.38976 0.00402
C 6.18665 10.67496 0.0073
C 6.12274 9.22401 0.0174
C 8.62535 13.507 0.01227
C 7.42695 12.82121 0.00873
C 7.38483 11.37218 -0.00049
C 8.57967 10.69014 0.00848
C 8.66687 9.2322 -0.01303
C 7.39997 8.58895 -0.01378
C 7.37708 7.14579 0.02635
C 8.65703 6.45509 0.0127
C 8.57606 5.05597 0.01396
C 7.35844 4.3225 0.01849
C 7.40428 2.8736 -0.01142
C 8.53803 2.11361 -0.00562
C 8.62168 0.72513 -0.00494
C 7.40008 34.05762 0.00054
C 9.85318 32.64444 0.03007
C 11.04812 31.98791 -0.00095
C 11.01846 30.58184 0.01572
C 9.83543 29.82494 -0.04848
C 9.76137 28.38857 -0.00892
C 11.01004 27.73747 -0.01362
C 11.06374 26.26417 -0.0008
C 9.86921 25.55187 0.0288
C 9.80086 24.19385 0.00393
C 8.57235 14.92729 -0.03337
C 18.49145 6.44403 0.03338
C 7.39206 15.5755 -0.00966
C 8.6046 17.78429 0.03368
C 4.85534 8.50605 0.03828
C 4.91774 7.11064 0.01226
C 6.12302 6.44158 -0.00279
C 6.05446 4.98586 0.01996
C 4.85826 4.26601 -0.03996
C 4.89949 2.78734 0.01465
C 6.16794 2.18608 -0.00074
C 6.12524 0.72017 -0.00518
C 4.94477 0.04691 0.0086
C 7.37204 32.62816 -0.00643
C 8.60001 31.95586 0.017
C 8.60511 30.56213 -0.03113
C 7.423 29.82697 -0.02566
C 7.40298 28.44572 -0.00094
C 8.57994 27.65639 0.02322
C 8.60529 26.2562 -0.00725
C 7.37303 25.56496 -0.05697
C 7.31246 24.19966 0.01087
C 8.65136 23.43637 -0.01343
C 8.61419 21.97092 0.00988
C 7.40868 21.28696 0.0276
C 7.36238 19.92003 0.01305
C 8.59315 19.22129 -0.00077
C 7.4089 17.04313 -0.02929
C 3.66766 31.94565 0.01218
C 18.459 4.95968 -0.0258
C 17.17317 2.87071 -0.00316
C 29.57105 11.39604 -0.02155
C 30.75526 10.57329 -0.00944
C 30.78001 9.18773 -0.03735
C 29.53758 8.53912 -0.00971
C 29.51888 7.1411 0.01518
C 30.74755 6.35666 0.01908
C 30.68786 4.99095 0.07705
C 29.5452 4.2131 0.0103
C 29.48136 2.79814 0.02108
C 30.70619 2.143 0.00716
C 29.48734 12.76318 -0.01461
C 30.71094 0.73116 0.00307
C 31.95818 32.65926 0.01713
C 33.21801 31.89021 -0.01694
C 33.24197 30.50938 0.01428
C 31.98483 29.84947 -0.02142
C 32.04744 28.38256 0.0544
C 33.20972 27.62223 0.00026
C 33.21216 26.27257 0.00682
C 32.01198 25.52881 -0.01779
C 31.94955 24.12654 0.03794
C 33.22021 23.39888 0.01927
C 29.50818 0.00183 0.00346
C 30.73274 13.50961 -0.01303
C 30.78088 14.97773 -0.0405
C 29.50565 15.61792 0.01705
C 28.33351 6.43935 0.01094
C 28.25192 4.99609 0.00235
C 27.05729 4.25807 0.01495
C 27.0545 2.83335 0.01259
C 28.32486 2.16382 0.01799
C 28.31443 0.69648 0.01699
C 27.0274 34.0276 -0.00416
C 29.50992 32.68675 0.01177
C 30.74734 31.95912 0.04266
C 30.77332 30.57859 0.01324
C 29.46715 29.73595 0.0014
C 29.48585 28.35803 0.00924
C 30.75234 27.66903 0.02326
C 30.79349 26.2515 0.00261
C 29.4428 25.49988 0.03265
C 29.45479 24.11936 -0.02049
C 30.72943 23.39896 -0.01854
C 30.72505 22.02352 -0.01415
C 29.52454 21.25689 -0.03039
C 29.52302 19.93013 0.01836
C 30.75212 19.20553 0.03531
C 30.74984 17.73482 -0.00669
C 29.50627 17.02248 0.0101
C 33.17264 21.97626 0.01574
C 27.00935 7.11866 0.02198
C 31.98127 21.32837 -0.02383
C 33.2391 19.13333 -0.0136
C 1.22281 23.42995 0.00723
C 1.18261 22.06391 0.02712
C 34.43193 21.33063 -0.02213
C 34.42648 19.94471 0.01951
C 1.21509 19.20111 -0.01678
C 1.19888 17.74746 0.01223
C 34.42694 17.06083 0.00648
C 0.01102 15.61177 0.02114
C 1.24588 14.91605 -0.02957
C 1.21068 13.46022 0.00343
C 34.41063 24.14172 0.03076
C 34.41988 12.78329 -0.02656
C 1.1893 10.74125 -0.00027
C 1.22919 9.17864 -0.00583
C 34.41839 8.49589 -0.02302
C 34.37326 7.09097 -0.02849
C 1.21763 6.39593 0.02931
C 1.24417 4.9574 0.00628
C 34.36198 4.18015 -0.0345
C 34.40616 2.81333 -0.00931
C 1.26344 2.13197 -0.00939
C 1.23047 0.66854 -0.00468
C 34.37384 11.38278 -0.02442
C 0.02559 25.53915 -0.05239
C 1.25911 26.25266 -0.00598
C 1.27309 27.69863 -0.00439
C 33.1736 17.73747 0.00594
C 31.99535 16.97989 -0.02474
C 31.98773 15.58744 0.00369
C 33.18429 14.87548 0.00455
C 33.22292 13.47491 -0.00644
C 32.00853 12.75518 -0.01839
C 31.94857 11.38268 0.00137
C 33.10373 10.6447 0.00199
C 33.12294 9.21062 0.04381
C 31.96977 8.45737 0.02806
C 31.92899 7.1079 0.01504
C 33.22902 6.37631 -0.00069
C 33.22548 4.95805 0.04926
C 31.87702 4.28161 -0.03838
C 31.90962 2.79577 0.00349
C 33.20671 2.10737 -0.00323
C 33.20775 0.67779 -0.00841
C 32.00527 34.03259 0.0001
C 0.03894 32.61525 -0.02927
C 1.26546 31.94009 -0.01404
C 1.21567 30.5344 0.01027
C 0.02294 29.75221 0.01831
C 34.40381 28.36437 -0.01037
C 31.95904 19.91755 -0.01429
C 27.10891 8.47115 0.02611
C 28.36576 9.19927 -0.00621
C 28.28574 10.61211 0.00194
C 22.14377 32.63467 0.00742
C 23.38426 31.92417 -0.01594
C 23.37576 30.49206 0.0106
C 22.16826 29.83946 -0.01154
C 22.09173 28.40166 -0.01721
C 23.34576 27.70856 -0.02422
C 23.39958 26.26027 0.01277
C 22.18369 25.55992 0.00096
C 22.15584 24.17087 -0.01527
C 23.36837 23.44877 0.01087
C 19.73406 34.00032 -0.00311
C 23.34399 22.02041 0.00199
C 22.18725 19.90484 -0.00478
C 22.11125 11.42081 -0.01662
C 23.32282 10.65532 -0.01185
C 23.37291 9.23852 0.01126
C 22.09707 8.53234 0.01852
C 22.12387 7.0667 -0.00381
C 23.40446 6.40531 0.03046
C 23.34201 5.03303 0.0296
C 22.13797 4.21035 0.03374
C 22.15813 2.87713 -0.02845
C 22.17309 21.27898 0.01511
C 20.97018 0.67331 0.00675
C 20.83688 2.08394 -0.00865
C 19.70391 2.87349 0.0058
C 18.428 2.11577 0.02188
C 18.60298 0.7557 -0.01979
C 17.20898 0.03961 0.02691
C 19.69145 32.64555 -0.01581
C 20.92061 31.9302 0.01452
C 20.82506 30.53505 0.04892
C 19.60562 29.83142 -0.00111
C 19.61852 28.38319 -0.03557
C 20.87225 27.68024 0.03754
C 20.93187 26.22358 0.01739
C 19.58978 25.51204 0.00755
C 19.66931 24.13882 -0.0054
C 20.86793 23.45093 0.00667
C 20.85763 21.96014 0.00143
C 19.62798 21.34156 -0.017
C 19.67458 11.39159 0.00364
C 20.90963 10.67134 -0.00831
C 20.89117 9.24109 -0.02957
C 19.68759 8.45908 -0.04422
C 19.7015 7.10405 0.00654
C 20.89274 6.35423 -0.00703
C 20.93309 4.96059 -0.04076
C 19.77636 4.34174 -0.00652
C 23.37837 2.14938 -0.03213
C 23.33126 0.67524 0.02239
C 22.14753 34.04754 0.01153
C 24.57471 32.67988 0.02734
C 25.78761 0.74116 -0.01154
C 24.58794 34.06725 0.00684
C 27.10135 32.66175 -0.01052
C 28.32692 31.95645 -0.01679
C 28.27179 30.53983 0.00367
C 27.0334 29.78091 0.04306
C 27.03858 28.43664 0.00996
C 28.28245 27.69352 0.00195
C 28.2518 26.25771 -0.00802
C 27.02607 25.54632 -0.00218
C 27.03872 24.11706 -0.01654
C 28.24614 23.40459 -0.00037
C 28.31014 22.00251 -0.0032
C 27.073 21.2704 0.00622
C 27.05215 19.91737 -0.02815
C 28.32902 19.19499 -0.00942
C 28.23368 17.74572 0.00487
C 27.03983 17.01637 0.00826
C 27.04048 15.63917 -0.00294
C 28.29119 14.95446 0.00152
C 28.28968 13.46567 0.01257
C 27.04318 12.72207 0.02316
C 27.13671 11.34379 0.04185
C 25.79101 2.19337 -0.0264
C 17.22605 4.27875 -0.0331
C 24.6012 2.8978 -0.00938
C 25.8275 4.94399 -0.01199
C 25.82551 31.87976 -0.0055
C 25.7762 30.49211 0.01515
C 24.64016 29.80906 -0.00225
C 24.56083 28.39014 0.00071
C 25.76137 27.70899 -0.01107
C 25.8155 26.26289 -0.01586
C 24.557 25.57023 -0.01971
C 24.60205 24.1303 -0.02118
C 25.75593 23.3506 0.00733
C 25.79099 21.98533 -0.00178
C 24.57805 21.32195 0.00768
C 24.60405 19.97387 -0.0276
C 25.76652 19.06915 0.03005
C 25.84749 17.7251 -0.04078
C 25.82261 14.99756 0.02117
C 25.80345 13.52424 0.02737
C 24.6208 12.8407 -0.00498
C 24.60789 11.35764 0.00135
C 25.84659 10.6088 0.03102
C 25.83715 9.20023 0.02555
C 24.59762 8.50617 0.01423
C 24.60947 7.06154 -0.00285
C 25.86096 6.4006 -0.009
C 24.58086 4.2727 -0.00229
C 2.46573 32.69675 0.02426
