334
Graphene
C 0.01455 0.04262 0.01295
C 16.05695 31.91497 0.01443
C 15.84606 30.5723 0.03505
C 14.7934 29.90608 -0.02815
C 14.7413 17.0163 -0.04147
C 14.84045 15.73567 -0.05302
C 16.00744 14.92192 0.00213
C 15.92135 13.44812 -0.00066
C 14.72039 32.64838 0.00979
C 14.70799 12.65602 -0.00289
C 15.99866 10.62551 -0.02213
C 16.04406 9.24811 0.03698
C 14.78946 8.45794 -0.00109
C 14.78681 7.05169 -0.00491
C 16.03359 6.36391 0.03338
C 15.96429 5.03972 -0.0258
C 14.77106 4.23069 -0.0331
C 14.78597 11.26912 0.00028
C 12.24442 34.03551 -0.00481
C 13.57781 0.64952 0.00889
C 13.47526 2.11207 -0.02162
C 9.80009 0.03527 0.00052
C 12.29564 32.62126 -0.03682
C 13.49949 31.99353 0.01965
C 13.44881 30.56768 0.02058
C 12.30796 29.85378 -0.01957
C 12.31979 28.44553 -0.0108
C 13.60935 17.75913 -0.00368
C 13.55887 13.45939 -0.02696
C 12.29629 11.36462 -0.00114
C 13.53015 10.65166 0.00228
C 13.56197 9.23946 0.00798
C 12.27489 8.63173 0.00422
C 12.27638 7.10695 0.0351
C 13.50267 6.43348 -0.03113
C 13.54487 4.89248 0.02098
C 12.31703 4.24309 0.01848
C 12.31233 2.8623 -0.00619
C 14.82196 2.8256 -0.00316
C 15.96336 2.077 0.02188
C 15.98895 0.73358 -0.01979
C 14.78237 34.04843 0.02691
C 20.84033 14.91761 -0.00865
C 20.93971 13.47081 0.00675
C 19.75646 12.78458 -0.00311
C 19.68664 11.37529 0.00742
C 20.94886 10.65484 -0.01594
C 20.87102 9.30452 0.0106
C 19.6662 8.54614 -0.01154
C 19.65312 7.04477 -0.01721
C 20.89347 6.35823 -0.02422
C 20.90489 5.00464 0.01277
C 19.66688 4.23177 0.00096
C 19.6293 2.84058 -0.01527
C 20.88459 2.14129 0.01087
C 20.92406 0.67198 0.00199
C 19.72237 0.07747 0.01511
C 22.14052 32.60448 -0.00478
C 23.37653 31.93366 -0.01662
C 19.68552 15.58361 0.0058
C 11.08263 0.66131 0.00374
C 20.88582 31.97951 -0.00652
C 17.19784 34.05166 -0.00703
C 17.26469 32.6013 -0.01581
C 18.47647 31.92402 0.01452
C 17.1864 15.62859 0.04892
C 18.41848 14.93839 -0.00111
C 18.40877 13.49023 -0.03557
C 17.14505 12.8257 0.03754
C 17.20975 11.39462 0.01739
C 18.42672 10.66318 0.00755
C 18.47791 9.19634 -0.0054
C 17.23383 8.51664 0.00667
C 17.22758 7.11919 0.00143
C 18.44876 6.43157 -0.017
C 18.49619 5.00007 0.00364
C 17.2311 4.28675 -0.00831
C 17.21612 2.80688 -0.02957
C 18.40896 2.11095 -0.04422
C 18.42892 0.70847 0.00654
C 19.73422 32.66039 -0.04076
C 11.03254 2.11974 -0.02813
C 9.80507 2.83896 -0.01952
C 9.80478 4.27165 0.05265
C 2.44573 0.01033 -0.02896
C 4.88351 32.68935 -0.00131
C 6.13717 31.94996 -0.01118
C 6.17011 30.50224 -0.014
C 4.88075 29.80823 0.02147
C 4.90573 28.34441 0.00373
C 6.11602 27.67221 -0.00191
C 6.17267 26.2481 0.00438
C 4.87711 25.53099 0.01291
C 4.94767 24.12846 0.00093
C 6.20405 23.43943 0.00057
C 6.10719 22.1006 -0.01634
C 6.18536 9.17655 -0.00334
C 4.90528 8.57961 0.02339
C 4.90679 7.11816 0.01641
C 6.18408 6.45992 -0.00719
C 6.1728 4.93038 0.01364
C 3.65502 0.74651 -0.01004
C 4.88353 4.31259 -0.01062
C 3.63856 2.1369 0.00488
C 2.45005 4.25689 0.03693
C 3.67522 30.58475 -0.00562
C 2.47685 29.76532 -0.00494
C 2.49137 28.41515 0.00054
C 3.71324 27.68951 0.03007
C 3.67768 26.27515 -0.00095
C 2.38283 25.63204 0.01572
C 2.46116 24.17407 -0.04848
C 3.68713 23.39008 -0.00892
C 3.64448 22.02478 -0.01362
C 2.42209 21.33205 -0.0008
C 2.50159 19.82938 0.0288
C 2.5265 11.3988 0.00393
C 3.65177 9.22893 0.00895
C 2.54854 8.50671 0.00685
C 2.4629 7.0743 0.02888
C 3.62916 6.37466 -0.00482
C 3.64862 5.05772 -0.01384
C 2.45385 2.84961 0.01745
C 23.39052 30.52299 -0.01185
C 4.88227 2.87929 -0.00033
C 6.19965 0.69838 -0.02759
C 7.34289 34.02917 0.00444
C 9.86315 32.64962 -0.00925
C 10.98317 31.90983 0.01877
C 11.0421 30.59862 0.01363
C 9.78795 29.86395 -0.02162
C 9.80049 28.42152 0.00415
C 11.13812 27.72753 -0.0014
C 11.06227 26.18797 0.02162
C 9.8929 25.58224 0.0076
C 9.88037 24.17832 0.01241
C 11.05086 23.39499 -0.01454
C 11.04359 22.07221 0.01945
C 11.02342 9.19589 0.01416
C 9.80591 8.52514 0.03542
C 9.91311 7.0921 0.02299
C 11.09649 6.34861 0.00244
C 11.0749 4.97799 -0.01717
C 8.60191 0.76756 -0.01789
C 6.10169 2.14176 0.03589
C 8.6491 2.12563 0.02894
C 7.44053 4.26289 0.00165
C 4.93286 0.06542 0.0402
C 7.32728 32.55017 0.00572
C 8.57887 31.93484 0.03592
C 8.54387 30.55161 0.00406
C 7.31058 29.75953 0.00943
C 7.36401 28.39396 0.02841
C 8.57868 27.72398 -0.01111
C 8.59447 26.31521 -0.01275
C 7.42277 25.51257 0.00985
C 7.36647 24.18012 -0.02245
C 8.5843 23.46186 -0.00428
C 8.64013 22.06063 0.03101
C 8.58531 9.18702 -0.01536
C 7.38614 8.54912 -0.02689
C 7.44685 7.13482 -0.01046
C 8.64284 6.40227 -0.00891
C 8.59184 5.01383 0.02819
C 7.42113 2.83525 -0.02971
C 22.17202 15.64226 0.01126
C 23.3593 14.93045 0.01852
C 23.40168 13.51963 -0.00381
C 31.94097 29.90002 0.0544
C 31.93847 28.44756 0.00026
C 33.20526 27.70296 0.00682
C 33.13141 26.2714 -0.01779
C 31.97333 25.5917 0.03794
C 32.00587 24.12166 0.01927
C 33.23499 23.41375 0.01574
C 33.18783 22.04887 -0.02383
C 31.95636 21.35964 -0.01429
C 31.98409 19.90772 -0.0136
C 33.13936 19.17747 0.00594
C 33.14116 17.79474 -0.02474
C 31.97722 16.99323 0.00369
C 32.0 15.58403 0.00455
C 33.17989 14.95695 -0.00644
C 33.16435 13.50145 -0.01839
C 32.01225 12.84241 0.00137
C 33.22521 30.47898 -0.02142
C 31.95491 11.38234 0.00199
C 33.16066 31.93336 0.01428
C 29.51648 34.06563 0.01713
C 30.71609 17.76812 0.0101
C 29.4238 17.0417 0.01705
C 29.48631 15.63172 -0.0405
C 30.72194 14.8608 -0.01303
C 30.74429 13.53821 -0.01461
C 29.46242 12.78205 -0.02155
C 29.52769 11.39825 -0.00944
C 30.7413 10.63079 -0.03735
C 30.72909 9.24003 -0.00971
C 29.51095 8.54981 0.01518
C 29.56347 7.10906 0.01908
C 30.76658 6.44153 0.07705
C 30.71615 4.9613 0.0103
C 29.49074 4.26013 0.02108
C 29.49512 2.83502 0.00716
C 30.6871 2.17291 0.00307
C 30.77983 0.69975 0.00346
C 31.98226 32.61304 -0.01694
C 30.80447 19.12847 -0.00669
C 33.18224 10.6744 0.04381
C 31.96105 8.55237 0.01504
C 1.27386 19.14241 0.01223
C 1.19856 17.72312 0.00648
C 0.00194 17.00971 0.02114
C 34.3938 15.63231 -0.02957
C 1.26561 13.5542 0.00343
C 0.01705 12.71468 -0.02656
C 0.01097 11.31693 -0.02442
C 1.26991 10.69283 -0.00027
C 1.223 9.26847 -0.00583
C 0.01452 8.4735 -0.02302
C 34.38243 7.10535 -0.02849
C 1.2652 6.32056 0.02931
C 1.18244 4.90135 0.00628
C 34.39294 4.25347 -0.0345
C 34.40037 2.80245 -0.00931
C 1.1948 2.16454 -0.00939
C 1.21991 0.73633 -0.00468
C 0.00541 19.8378 -0.01678
C 33.23022 9.21968 0.02806
C 0.0013 21.33502 0.01951
C 1.27716 23.42915 0.02712
C 31.9703 7.03778 -0.00069
C 33.21408 6.39522 0.04926
C 33.2437 4.94781 -0.03838
C 31.93845 4.25773 0.00349
C 31.97875 2.81981 -0.00323
C 33.19563 2.12991 -0.00841
C 33.19329 0.71995 0.0001
C 32.00137 0.05774 -0.02927
C 34.4179 32.67188 -0.01404
C 1.27613 32.01127 0.01027
C 1.1939 30.5559 0.01831
C 0.00574 29.81994 -0.01037
C 0.00213 28.37687 -0.00439
C 1.28456 27.74261 -0.00598
C 1.24404 26.29466 -0.05239
C 34.38987 25.53332 0.03076
C 34.42825 24.18003 0.00723
C 1.21229 22.04309 -0.02213
C 3.72407 32.03175 -0.01142
C 29.46875 19.77741 0.03531
C 30.71942 21.99659 -0.03039
C 24.5651 17.01498 -0.04078
C 24.64525 15.62911 0.02117
C 25.78338 14.88936 0.02737
C 25.79076 13.50741 -0.00498
C 24.59543 12.74631 0.00135
C 24.56216 11.34853 0.03102
C 25.80316 10.59892 0.02555
C 25.82482 9.27493 0.01423
C 24.60605 8.55725 -0.00285
C 24.61502 7.09835 -0.009
C 25.84252 6.36877 -0.01199
C 25.76932 4.95026 -0.00229
C 24.52327 4.28089 -0.00938
C 24.60214 2.87258 -0.0264
C 25.87213 2.09137 -0.01154
C 25.80444 0.70041 0.00684
C 24.5388 0.03569 -0.01052
C 25.78967 17.80969 0.03005
C 27.05 32.72205 -0.01679
C 25.80893 19.20533 -0.0276
C 24.62077 28.33434 -0.00178
C 22.15337 12.81233 0.03046
C 22.1653 11.35702 0.0296
C 23.37979 10.63751 0.03374
C 23.34483 9.18433 -0.02845
C 22.1083 8.52111 -0.03213
C 22.11685 7.12615 0.02239
C 23.34886 6.46696 0.01153
C 23.34933 4.91105 0.02734
C 22.11466 4.22324 -0.0055
C 22.0637 2.82634 0.01515
C 23.35291 2.1715 -0.00225
C 23.38572 0.72529 0.00071
C 22.06798 34.0099 -0.01107
C 24.56572 32.64947 -0.01586
C 25.84706 31.95655 -0.01971
C 25.8019 30.4818 -0.02118
C 24.51015 29.82578 0.00733
C 25.78765 27.67711 0.00768
C 29.53063 21.26943 0.01836
C 28.32346 31.97037 0.00367
C 27.02132 29.80503 0.00996
C 28.32699 6.32872 0.00235
C 28.25821 4.94187 0.01495
C 27.00476 4.25023 0.01259
C 27.07745 2.84008 0.01799
C 28.33051 2.09445 0.01699
C 28.25865 0.73459 -0.00416
C 26.96122 34.07942 0.01177
C 29.46156 32.63482 0.04266
C 30.74383 31.88164 0.01324
C 30.70644 30.53569 0.0014
C 29.56203 29.79334 0.00924
C 29.52935 28.39006 0.02326
C 30.65206 27.67646 0.00261
C 30.67118 26.19674 0.03265
C 29.52516 25.52126 -0.02049
C 29.52274 24.11244 -0.01854
C 30.7906 23.39626 -0.01415
C 27.11373 7.04539 0.01094
C 28.33139 30.52196 0.04306
C 27.04845 8.52832 0.02198
C 28.31255 10.596 -0.00621
C 27.00736 28.35554 0.00195
C 28.27324 27.73094 -0.00802
C 28.32877 26.22868 -0.00218
C 27.15736 25.46657 -0.01654
C 27.03203 24.14135 -0.00037
C 28.27954 23.41759 -0.0032
C 28.29087 22.00756 0.00622
C 27.07958 21.26324 -0.02815
C 27.07813 19.89973 -0.00942
C 28.25257 19.14107 0.00487
C 28.27068 17.76513 0.00826
C 27.08825 17.03173 -0.00294
C 27.11584 15.63884 0.00152
C 28.32712 14.95205 0.01257
C 28.28779 13.52116 0.02316
C 27.09064 12.69996 0.04185
C 27.03817 11.34244 0.00194
C 28.31276 9.24592 0.02611
C 2.44864 32.74444 0.01849
