386
Graphene
C 34.32635 0.06137 0.01295
C 9.7279 4.39318 -0.0014
C 9.77306 2.95283 0.02162
C 10.9843 2.17465 0.0076
C 10.96437 0.82152 0.01241
C 9.79254 0.06745 -0.01454
C 12.18304 32.70058 0.01945
C 13.45956 32.04403 0.01416
C 13.73174 30.61355 0.03542
C 12.53759 30.00868 0.02299
C 10.97254 5.05563 0.00415
C 12.24319 28.53304 0.00244
C 12.18699 24.32239 0.05265
C 12.37023 21.28439 -0.01952
C 12.46797 19.9183 -0.02813
C 13.62186 19.02084 0.00374
C 13.56511 17.65335 0.00052
C 12.28405 17.05738 -0.03682
C 12.27589 15.58619 0.01965
C 13.48131 14.8432 0.02058
C 13.50785 13.47109 -0.01957
C 12.22173 25.59761 -0.01717
C 12.30258 12.69964 -0.0108
C 10.92478 6.40253 -0.02162
C 9.78018 8.55141 0.01877
C 9.85428 29.95216 0.00406
C 9.7687 28.51746 0.00943
C 11.08394 27.85845 0.02841
C 11.14632 26.38026 -0.01111
C 9.84883 25.66432 -0.01275
C 9.80281 24.2341 0.00985
C 11.07094 23.49465 -0.02245
C 11.19489 22.00974 -0.00428
C 9.97686 21.33517 0.03101
C 9.67433 7.13648 0.01363
C 9.87338 19.96195 -0.01536
C 11.10168 17.80255 -0.01046
C 9.86894 17.12999 -0.00891
C 9.81744 15.68493 0.02819
C 11.0775 14.83795 0.00165
C 11.08007 13.46367 -0.02971
C 9.78199 12.79032 0.02894
C 9.82708 11.41052 -0.01789
C 10.9786 10.65565 0.00444
C 10.91199 9.26107 -0.00925
C 11.22053 19.2347 -0.02689
C 11.17707 30.54788 0.03592
C 12.24004 11.32153 -0.00368
C 13.5261 9.21834 -0.00114
C 15.93189 5.00291 -0.00491
C 14.66403 4.33857 0.03338
C 14.78152 2.87471 -0.0258
C 15.95757 2.11955 -0.0331
C 15.95556 0.7458 -0.00316
C 14.67236 34.04826 0.02188
C 16.95274 32.40532 -0.01979
C 18.22785 31.86998 0.02691
C 17.06996 16.88205 -0.01581
C 15.94331 6.35504 -0.00109
C 17.38911 15.55962 0.01452
C 18.58395 13.49641 -0.00111
C 17.23705 12.79824 -0.03557
C 17.28531 11.40458 0.03754
C 18.41334 10.6364 0.01739
C 18.38803 9.20949 0.00755
C 17.12772 8.48275 -0.0054
C 17.13889 7.11174 0.00667
C 18.40565 6.42035 0.00143
C 18.44271 4.87231 -0.017
C 18.58793 14.91359 0.04892
C 13.50217 10.64618 -0.02696
C 14.78456 7.12596 0.03698
C 15.95169 9.20698 0.00028
C 12.22566 8.57954 0.00228
C 12.22041 7.08694 0.00798
C 13.48258 6.50293 0.00422
C 13.49061 5.05642 0.0351
C 12.25365 4.28793 -0.03113
C 12.27666 2.90158 0.02098
C 13.48583 2.16973 0.01848
C 13.38855 0.77726 -0.00619
C 12.18398 0.06679 -0.02162
C 14.7564 8.50657 -0.02213
C 14.63785 32.6724 0.00889
C 15.31221 30.52784 0.00979
C 16.01886 17.48845 0.01443
C 14.78533 16.92016 0.03505
C 14.73375 15.52482 -0.02815
C 16.08215 14.83497 -0.04147
C 15.9946 13.4556 -0.05302
C 14.74716 12.71298 0.00213
C 14.78131 11.34177 -0.00066
C 16.00399 10.63315 -0.00289
C 15.76835 31.77409 -0.00481
C 10.98339 31.95925 0.00572
C 9.83553 32.71648 0.0402
C 7.3478 0.12154 -0.02759
C 3.55239 5.03606 0.017
C 2.38014 4.28631 -0.03113
C 2.42879 2.95254 -0.02566
C 3.62654 2.28377 -0.00094
C 3.62143 0.76224 0.02322
C 2.42216 0.06847 -0.00725
C 4.88663 32.785 -0.05697
C 6.06728 32.05769 0.01087
C 6.1233 30.60073 -0.01343
C 3.5772 6.42657 -0.00643
C 4.89261 29.88056 0.00988
C 6.14183 27.74335 0.01305
C 6.14 26.31245 -0.00077
C 4.98562 25.61995 0.03368
C 4.96172 24.21541 -0.02929
C 6.24368 23.5522 -0.00966
C 6.28283 22.10334 -0.03337
C 4.96754 21.35001 0.01227
C 4.99352 19.98182 0.00873
C 6.20025 19.24967 -0.00049
C 4.95118 28.46596 0.0276
C 6.11679 17.77283 0.00848
C 2.39556 7.2121 0.0086
C 3.61856 9.27767 -0.00074
C 3.66193 30.57785 -0.04307
C 2.35205 29.90017 0.03189
C 2.30638 28.50332 0.00031
C 3.63208 27.77591 -0.003
C 3.67765 26.31952 0.01402
C 2.38166 25.60762 0.02379
C 2.42006 24.14771 0.00907
C 3.74746 23.49483 0.00643
C 3.72928 22.03709 -0.01509
C 2.34146 8.58416 -0.00518
C 2.51659 21.34306 0.03267
C 3.73788 19.16744 0.00402
C 3.70703 17.74571 0.0073
C 2.4588 17.08015 0.0174
C 2.51097 15.66044 0.03828
C 3.75711 14.86307 0.01226
C 3.58711 13.55497 -0.00279
C 2.43503 12.80241 0.01996
C 2.3681 11.38621 -0.03996
C 3.58257 10.68524 0.01465
C 2.48089 19.93084 0.02374
C 4.93843 17.05046 -0.01303
C 4.91031 15.64724 -0.01378
C 6.18378 14.92687 0.02635
C 7.46111 21.35637 -0.02896
C 7.4315 19.93172 -0.00131
C 8.66269 19.21748 -0.01118
C 8.647 17.88555 -0.014
C 7.41348 17.11569 0.02147
C 7.39932 15.69949 0.00373
C 8.59751 15.01231 -0.00191
C 8.5927 13.51908 0.00438
C 7.26862 12.71508 0.01291
C 8.68742 22.02717 -0.01004
C 7.25572 11.28122 0.00093
C 8.50991 9.19592 -0.01634
C 7.26465 8.53068 -0.00334
C 7.30238 7.15225 0.02339
C 8.47243 6.4657 0.01641
C 8.54194 5.0822 -0.00719
C 7.28711 4.32571 0.01364
C 7.40705 2.96069 -0.01062
C 8.64316 2.16282 -0.00033
C 8.54116 0.83732 0.03589
C 8.5183 10.61162 0.00057
C 8.63087 23.44687 0.00488
C 7.41261 24.21211 0.01745
C 7.41013 25.61823 0.03693
C 6.13739 13.5475 0.0127
C 4.89497 12.77909 0.01396
C 4.81793 11.37338 0.01849
C 6.0357 10.65247 -0.01142
C 5.99831 9.25333 -0.00562
C 4.83297 8.54864 -0.00494
C 4.85266 7.13916 0.00054
C 6.10093 6.44484 0.03007
C 6.05513 5.04793 -0.00095
C 4.81665 4.32441 0.01572
C 4.85002 2.90628 -0.04848
C 6.08588 2.2846 -0.00892
C 6.05976 0.83739 -0.01362
C 4.88441 0.06 -0.0008
C 7.30738 32.71518 0.0288
C 8.52871 32.02682 0.00393
C 8.56897 30.68958 0.00895
C 7.3718 29.90614 0.00685
C 7.38472 28.42532 0.02888
C 8.57472 27.8147 -0.00482
C 8.57214 26.28287 -0.01384
C 17.16543 4.2286 0.00364
C 17.1772 2.8508 -0.00831
C 18.33962 2.02098 -0.02957
C 18.36786 0.56154 -0.04422
C 30.68083 4.9834 0.07705
C 29.36327 4.2081 0.0103
C 29.44194 2.85458 0.02108
C 30.62061 2.09027 0.00716
C 30.58763 0.65861 0.00307
C 29.40532 34.0456 0.00346
C 31.82991 32.61759 0.01713
C 33.11408 31.94293 -0.01694
C 33.16809 30.54219 0.01428
C 30.61555 6.45273 0.01908
C 31.95409 29.83188 -0.02142
C 33.10809 27.67937 0.00026
C 33.04476 26.29043 0.00682
C 31.80504 25.59868 -0.01779
C 31.85768 24.13814 0.03794
C 33.15523 23.46255 0.01927
C 33.12851 22.06539 0.01574
C 31.93769 21.32858 -0.02383
C 31.89717 19.87936 -0.01429
C 33.14779 19.17449 -0.0136
C 31.91619 28.44826 0.0544
C 33.22567 17.83048 0.00594
C 29.40277 7.12727 0.01518
C 30.66627 9.25987 -0.03735
C 30.68064 30.57733 0.01324
C 29.47105 29.92671 0.0014
C 29.39677 28.47379 0.00924
C 30.64448 27.80117 0.02326
C 30.62234 26.33026 0.00261
C 29.41155 25.5866 0.03265
C 29.42411 24.17937 -0.02049
C 30.70927 23.42008 -0.01854
C 30.64831 22.00845 -0.01415
C 29.39613 8.54942 -0.00971
C 29.44327 21.3138 -0.03039
C 30.69029 19.15108 0.03531
C 30.73545 17.7697 -0.00669
C 29.53232 17.11712 0.0101
C 29.55017 15.65973 0.01705
C 30.73629 14.9617 -0.0405
C 30.74891 13.51047 -0.01303
C 29.48129 12.77619 -0.01461
C 29.52583 11.35069 -0.02155
C 30.78146 10.59322 -0.00944
C 29.4799 19.81847 0.01836
C 31.98485 17.12323 -0.02474
C 31.96103 15.65764 0.00369
C 33.189 14.85398 0.00455
C 0.02038 21.37929 -0.02213
C 34.38255 19.86013 0.01951
C 1.24351 19.23085 -0.01678
C 1.22674 17.74397 0.01223
C 0.04957 17.10456 0.00648
C 0.04402 15.66756 0.02114
C 1.26061 14.97378 -0.02957
C 1.19355 13.55445 0.00343
C 34.40276 12.78397 -0.02656
C 1.25608 22.08396 0.02712
C 34.40296 11.34974 -0.02442
C 1.07905 9.32552 -0.00583
C 34.41144 8.56523 -0.02302
C 34.39273 7.08154 -0.02849
C 1.14315 6.40151 0.02931
C 1.18129 5.02198 0.00628
C 34.36789 4.30352 -0.0345
C 34.33105 2.87366 -0.00931
C 1.20008 2.22314 -0.00939
C 1.18789 0.83273 -0.00468
C 1.13381 10.72309 -0.00027
C 1.20342 23.48849 0.00723
C 34.38812 24.16268 0.03076
C 34.30304 25.56156 -0.05239
C 33.15309 13.51967 -0.00644
C 31.90159 12.79513 -0.01839
C 31.95307 11.36151 0.00137
C 33.1239 10.57336 0.00199
C 33.13775 9.18772 0.04381
C 31.93361 8.43362 0.02806
C 31.80721 7.08526 0.01504
C 33.03874 6.37869 -0.00069
C 33.07417 5.01184 0.04926
C 31.85214 4.29539 -0.03838
C 31.81171 2.93255 0.00349
C 33.0772 2.18332 -0.00323
C 33.07467 0.73438 -0.00841
C 31.86137 34.06684 0.0001
C 34.3154 32.69337 -0.02927
C 1.18649 32.08477 -0.01404
C 1.21047 30.66669 0.01027
C 34.35804 29.83382 0.01831
C 34.30451 28.48468 -0.01037
C 1.12073 27.75081 -0.00439
C 1.15053 26.29299 -0.00598
C 30.69195 31.91386 0.04266
C 3.68367 32.08535 0.03284
C 29.48946 32.64334 0.01177
C 28.17967 0.68952 0.01699
C 22.09336 15.40978 0.01852
C 23.41247 14.82348 -0.00381
C 23.33597 13.36774 0.03046
C 22.1229 12.68469 0.0296
C 22.10247 11.29865 0.03374
C 23.40729 10.65594 -0.02845
C 23.31751 9.21095 -0.03213
C 21.98102 8.53312 0.02239
C 22.0807 6.99975 0.01153
C 21.98934 16.89023 0.01126
C 23.28912 6.30414 0.02734
C 22.06606 4.23755 0.01515
C 22.04273 2.7469 -0.00225
C 23.17501 2.0448 0.00071
C 23.26166 0.54715 -0.01107
C 22.13255 33.89082 -0.01586
C 24.6458 32.59636 -0.01971
C 25.78626 31.88788 -0.02118
C 25.6363 30.52105 0.00733
C 24.15663 30.32552 -0.00178
C 23.28634 4.91599 -0.0055
C 25.80017 19.02833 0.00768
C 23.13122 17.43582 -0.01185
C 22.1666 32.33346 -0.00478
C 17.17991 34.0051 0.00654
C 19.64454 32.38689 -0.00703
C 20.80663 31.87733 -0.04076
C 20.40118 16.87377 -0.00652
C 19.85471 15.68363 0.0058
C 20.91882 14.7039 -0.00865
C 20.93836 13.30223 0.00675
C 19.71679 12.617 -0.00311
C 19.66718 11.25597 0.00742
C 23.4654 31.61981 -0.01662
C 20.90919 10.53586 -0.01594
C 19.61012 8.486 -0.01154
C 19.60521 7.07245 -0.01721
C 20.823 6.3387 -0.02422
C 20.85659 4.95614 0.01277
C 19.6317 4.13966 0.00096
C 19.60942 2.61597 -0.01527
C 20.85674 1.90465 0.01087
C 20.87684 0.50876 0.00199
C 19.65869 33.91877 0.01511
C 20.79823 9.17733 0.0106
C 25.68319 17.70416 -0.0276
C 24.38762 17.0094 0.03005
C 24.529 15.62588 -0.04078
C 28.23081 22.00976 -0.0032
C 26.96628 21.32753 0.00622
C 26.77824 19.94547 -0.02815
C 28.19316 19.19518 -0.00942
C 28.21948 17.79017 0.00487
C 27.01211 17.05561 0.00826
C 27.0551 15.65617 -0.00294
C 28.24523 14.93277 0.00152
C 28.18939 13.45083 0.01257
C 28.15983 23.46277 -0.00037
C 27.00225 12.79244 0.02316
C 28.23154 10.638 0.00194
C 28.24278 9.241 -0.00621
C 27.04393 8.48892 0.02611
C 27.04547 7.05448 0.02198
C 28.25701 6.33469 0.01094
C 28.13054 4.90222 0.00235
C 26.91858 4.20974 0.01495
C 26.93182 2.79313 0.01259
C 28.17702 2.09285 0.01799
C 27.06289 11.36654 0.04185
C 27.05945 24.28653 -0.01654
C 27.087 25.51488 -0.00218
C 28.13575 26.36964 -0.00802
C 25.83043 14.96321 0.02117
C 25.81746 13.6031 0.02737
C 24.60859 12.75268 -0.00498
C 24.6084 11.35447 0.00135
C 25.80323 10.65538 0.03102
C 25.71228 9.18492 0.02555
C 24.55049 8.46591 0.01423
C 24.60087 7.04903 -0.00285
C 25.76575 6.33224 -0.009
C 25.75962 4.87005 -0.01199
C 24.50887 4.16044 -0.00229
C 24.47141 2.76977 -0.00938
C 25.59158 2.05731 -0.0264
C 25.75598 0.61891 -0.01154
C 24.54285 33.95549 0.00684
C 26.97744 32.6304 -0.01052
C 28.28568 31.93846 -0.01679
C 28.16879 30.58731 0.00367
C 26.86048 29.79634 0.04306
C 27.02374 28.45544 0.00996
C 28.16423 27.72369 0.00195
C 27.00993 34.06671 -0.00416
C 2.44675 32.74348 0.04505
