436
Graphene
C 0.03189 0.01212 0.01295
C 13.58895 22.00119 0.02339
C 12.27842 21.38243 0.01641
C 12.28083 19.95028 -0.00719
C 13.54562 19.16849 0.01364
C 13.57542 17.78597 -0.01062
C 12.33695 17.07961 -0.00033
C 12.24437 15.60176 0.03589
C 13.47421 14.8756 -0.02759
C 13.48693 13.36104 0.0402
C 12.289 12.76266 0.00572
C 12.35221 11.37902 0.03592
C 13.55798 10.60393 0.00406
C 13.58881 9.20317 0.00943
C 12.35535 8.50092 0.02841
C 12.2831 7.18392 -0.01111
C 13.52662 6.34641 -0.01275
C 13.50321 4.90368 0.00985
C 12.23204 4.19211 -0.02245
C 12.32332 2.76541 -0.00428
C 13.46439 2.09403 0.03101
C 13.49482 0.73247 -0.01536
C 12.30103 34.04938 -0.02689
C 14.74049 32.70016 -0.01046
C 13.4417 23.48716 -0.00334
C 16.00421 31.97754 -0.00891
C 12.30495 24.17288 -0.01634
C 13.54659 26.29413 0.00093
C 9.84069 17.05178 -0.00892
C 9.81231 15.63997 -0.01362
C 11.05192 14.90234 -0.0008
C 11.10022 13.5425 0.0288
C 9.8582 12.8917 0.00393
C 9.81566 11.4194 0.00895
C 11.04715 10.72834 0.00685
C 11.08929 9.17934 0.02888
C 9.84744 8.50768 -0.00482
C 9.88212 7.1281 -0.01384
C 11.14862 6.35768 0.03693
C 11.04042 4.90785 0.01745
C 9.81539 4.27762 0.00488
C 9.83619 2.81733 -0.01004
C 10.99192 2.11177 -0.02896
C 11.10579 0.7043 -0.00131
C 9.94469 0.02238 -0.01118
C 12.31035 32.67966 -0.014
C 13.55671 32.01515 0.02147
C 13.46984 30.65629 0.00373
C 12.26668 29.86202 -0.00191
C 12.27201 28.3508 0.00438
C 13.55653 27.65684 0.01291
C 12.30453 25.65252 0.00057
C 15.99526 30.49178 0.02819
C 14.71367 29.86406 0.00165
C 14.71633 28.46035 -0.02971
C 18.45691 31.92605 -0.0108
C 18.50672 30.60811 -0.00368
C 17.25171 29.7469 -0.02696
C 17.26251 28.41216 -0.00114
C 18.44519 23.39822 0.00228
C 18.48539 21.97569 0.00798
C 17.18499 21.26269 0.00422
C 17.17968 19.85849 0.0351
C 18.46714 19.09913 -0.03113
C 18.48343 17.69368 0.02098
C 17.19489 17.07369 0.01848
C 17.15773 15.6169 -0.00619
C 18.40567 14.95247 -0.02162
C 18.35822 13.56179 0.00889
C 17.17311 12.83206 -0.00481
C 17.21179 11.40092 0.00979
C 18.462 10.61309 0.01443
C 18.48182 9.23815 0.03505
C 17.23294 8.5594 -0.02815
C 17.21144 7.13783 -0.04147
C 18.49551 6.42599 -0.05302
C 18.43042 5.00317 0.00213
C 17.21337 4.22538 -0.00066
C 17.20818 32.65872 -0.01957
C 14.75025 0.03745 0.02058
C 16.03286 0.75756 0.01965
C 15.94808 2.15207 -0.03682
C 15.97774 27.68856 0.02894
C 15.87498 26.30554 -0.01789
C 14.77604 25.56106 0.00444
C 14.71914 24.13732 -0.00925
C 15.98304 23.44614 0.01877
C 15.99243 22.02789 0.01363
C 14.73867 21.27215 -0.02162
C 14.7548 19.81332 0.00415
C 15.93181 19.1297 -0.0014
C 15.98918 17.71562 0.02162
C 14.72433 17.02341 0.0076
C 11.11023 17.74174 -0.04848
C 14.80151 15.6055 0.01241
C 15.93365 13.52691 0.01945
C 14.76727 12.72618 0.01416
C 14.73655 11.36628 0.03542
C 15.9481 10.66687 0.02299
C 15.99877 9.28275 0.00244
C 14.78928 8.45938 -0.01717
C 14.73065 7.10871 0.05265
C 15.96115 6.41058 -0.01952
C 15.94861 4.96351 -0.02813
C 14.73321 4.25938 0.00374
C 14.7458 2.88757 0.00052
C 16.00335 14.88714 -0.01454
C 17.24556 2.8539 -0.00289
C 11.10292 19.19329 0.01572
C 9.84995 21.30757 0.03007
C 3.64669 2.19904 -0.02375
C 3.71361 0.75858 0.00558
C 2.48093 34.03272 -0.0059
C 4.88083 32.65956 -0.01386
C 6.12947 31.96824 -0.02805
C 6.19799 30.4767 0.00081
C 4.98735 29.84031 0.00245
C 4.91667 28.39911 0.02728
C 6.20901 27.63414 -0.00039
C 6.16687 26.24032 0.0064
C 4.85113 25.54252 0.00211
C 4.88891 24.2068 -0.00449
C 6.15476 23.43578 -0.01979
C 6.17802 21.97474 0.02784
C 4.9104 21.30954 -0.01977
C 4.95182 19.84867 -0.00561
C 6.12684 19.13113 0.00208
C 6.19733 17.73108 0.01707
C 4.82897 16.99351 0.02769
C 4.88118 15.71058 -0.03291
C 6.08442 14.94872 -0.04999
C 6.11635 13.51238 0.04505
C 4.96286 12.80784 0.03284
C 2.43163 2.78496 0.00828
C 4.96114 11.37474 -0.04307
C 2.49152 4.30209 0.00088
C 3.68505 6.4302 -0.00177
C 3.68256 30.51255 0.01984
C 2.41351 29.74703 0.00535
C 2.4541 28.35501 -0.00198
C 3.73858 27.67673 -0.00012
C 3.68741 26.24476 -0.04306
C 2.47112 25.60874 -0.03672
C 2.46355 24.20357 0.01913
C 3.64929 23.46928 0.00267
C 3.73187 22.01173 0.00787
C 2.53659 21.33307 0.02426
C 2.49719 19.92267 0.01218
C 3.6505 19.06104 -0.01471
C 3.64461 17.69153 -0.02827
C 2.37918 17.03672 0.01078
C 2.39278 15.54131 -0.00112
C 3.69549 14.89404 0.03345
C 3.6768 13.5004 0.00748
C 2.43805 12.80332 0.00662
C 2.46693 11.29734 -0.0154
C 3.67444 10.68358 -0.01299
C 3.66945 9.28209 -0.00407
C 2.50105 8.53578 0.01138
C 2.42936 7.07917 0.03278
C 3.68769 4.97361 0.04421
C 6.19618 10.68384 0.03189
C 6.1341 9.24952 0.00031
C 4.88565 8.56652 -0.003
C 7.40813 11.36643 -0.01343
C 8.6311 10.72089 0.00988
C 8.62131 9.29061 0.0276
C 7.40337 8.60461 0.01305
C 7.31825 7.21082 -0.00077
C 8.56305 6.44809 0.03368
C 8.59303 5.01871 -0.02929
C 7.30701 4.27451 -0.00966
C 7.37665 2.88055 -0.03337
C 8.61373 2.12087 0.01227
C 8.65176 0.6788 0.00873
C 7.38616 0.05192 -0.00049
C 9.83203 32.71264 0.00848
C 11.06504 31.97668 -0.01303
C 10.99862 30.53967 -0.01378
C 9.77421 29.87023 0.02635
C 9.83236 28.38334 0.0127
C 11.09141 27.69899 0.01396
C 11.02677 26.32262 0.01849
C 9.8186 25.59482 -0.01142
C 9.92157 24.21047 -0.00562
C 11.0957 23.4042 -0.00494
C 11.05019 22.0134 0.00054
C 7.3278 12.76603 0.01087
C 8.61284 13.50494 -0.05697
C 8.54445 14.96266 -0.00725
C 7.29302 15.63615 0.02322
C 4.85046 7.12737 0.01402
C 6.09292 6.38738 0.02379
C 6.1412 5.02528 0.00907
C 4.86905 4.2828 0.00643
C 4.9228 2.90037 -0.01509
C 6.14034 2.12143 0.03267
C 6.15625 0.70077 0.02374
C 4.91897 0.02878 0.00402
C 7.40627 32.67639 0.0073
C 8.62813 32.00216 0.0174
C 8.58788 30.52201 0.03828
C 9.82002 19.88852 -0.00095
C 7.35836 29.80443 0.01226
C 8.54251 27.75741 0.01996
C 8.65338 26.28662 -0.03996
C 7.39709 25.50719 0.01465
C 7.44411 24.09666 -0.00074
C 8.63298 23.46523 -0.00518
C 8.61351 22.04117 0.0086
C 7.40823 21.31684 -0.00643
C 7.36724 19.86644 0.017
C 8.58606 19.16547 -0.03113
C 8.60437 17.78166 -0.02566
C 7.42971 17.08028 -0.00094
C 7.37852 28.31813 -0.00279
C 18.45981 2.0781 0.00028
C 18.4848 0.71557 -0.02213
C 17.22271 0.04482 0.03698
C 30.7642 14.86014 -0.0405
C 30.6827 13.49346 -0.01303
C 29.56545 12.71766 -0.01461
C 29.47423 11.30271 -0.02155
C 30.70187 10.67177 -0.00944
C 30.70342 9.1869 -0.03735
C 29.47033 8.55498 -0.00971
C 29.51466 7.12099 0.01518
C 30.74794 6.32655 0.01908
C 30.76707 4.96015 0.07705
C 29.52536 4.30031 0.0103
C 29.59863 2.80651 0.02108
C 30.75936 2.05818 0.00716
C 30.75884 0.68382 0.00307
C 29.54278 34.02961 0.00346
C 31.93198 32.63374 0.01713
C 33.20384 31.92575 -0.01694
C 33.20198 30.5442 0.01428
C 31.96246 29.84276 -0.02142
C 32.00033 28.46895 0.0544
C 33.20697 27.72333 0.00026
C 33.22913 26.34696 0.00682
C 31.92742 25.60061 -0.01779
C 29.5339 15.62792 0.01705
C 31.96757 24.14356 0.03794
C 29.57845 17.07551 0.0101
C 30.75557 19.16626 0.03531
C 28.24654 9.18655 -0.00621
C 27.02852 8.5479 0.02611
C 27.07424 7.13157 0.02198
C 28.31321 6.4474 0.01094
C 28.22 4.88205 0.00235
C 27.0001 4.22438 0.01495
C 27.05339 2.81894 0.01259
C 28.36599 2.12393 0.01799
C 28.23237 0.65895 0.01699
C 26.99996 34.07089 -0.00416
C 29.51315 32.59709 0.01177
C 30.68269 31.92079 0.04266
C 30.7401 30.46207 0.01324
C 29.5052 29.878 0.0014
C 29.53743 28.44514 0.00924
C 30.75467 27.69672 0.02326
C 30.72318 26.23578 0.00261
C 29.4495 25.50007 0.03265
C 29.45287 24.15192 -0.02049
C 30.74665 23.45057 -0.01854
C 30.80965 21.97833 -0.01415
C 29.53084 21.29229 -0.03039
C 29.46734 19.91974 0.01836
C 30.74976 17.78357 -0.00669
C 33.194 23.50346 0.01927
C 33.17774 22.03918 0.01574
C 31.94021 21.29457 -0.02383
C 0.00185 24.20361 0.03076
C 1.24228 23.45548 0.00723
C 1.24708 22.01861 0.02712
C 34.40158 21.27259 -0.02213
C 34.39253 19.86044 0.01951
C 1.21006 19.21855 -0.01678
C 1.20131 17.83788 0.01223
C 34.42705 16.97741 0.00648
C 0.00353 15.56757 0.02114
C 1.16049 14.88799 -0.02957
C 1.22464 13.4944 0.00343
C 0.02471 12.7788 -0.02656
C 34.34372 11.28833 -0.02442
C 1.16977 10.62719 -0.00027
C 1.25588 9.2338 -0.00583
C 34.43266 8.46867 -0.02302
C 34.39358 7.09956 -0.02849
C 1.25947 6.34559 0.02931
C 1.25544 4.9482 0.00628
C 0.03413 4.2548 -0.0345
C 34.42818 2.79174 -0.00931
C 1.24709 2.04991 -0.00939
C 1.22565 0.6844 -0.00468
C 34.39192 25.57268 -0.05239
C 1.22749 26.2587 -0.00598
C 1.28281 27.66774 -0.00439
C 0.00544 28.42985 -0.01037
C 31.88427 19.88396 -0.01429
C 33.10939 19.13747 -0.0136
C 33.20442 17.66538 0.00594
C 31.93522 17.02401 -0.02474
C 32.03748 15.59993 0.00369
C 33.2362 14.87444 0.00455
C 33.08749 13.46844 -0.00644
C 31.88699 12.70207 -0.01839
C 31.9689 11.33576 0.00137
C 33.1764 10.60538 0.00199
C 33.24832 9.16516 0.04381
C 28.32524 10.59182 0.00194
C 31.99108 8.51574 0.02806
C 33.16896 6.38633 -0.00069
C 33.23526 4.89074 0.04926
C 31.93906 4.23552 -0.03838
C 31.95304 2.82931 0.00349
C 33.25492 2.0603 -0.00323
C 33.28565 0.65232 -0.00841
C 31.95243 34.01249 0.0001
C 34.43212 32.65432 -0.02927
C 1.24004 31.93778 -0.01404
C 1.24001 30.51105 0.01027
C 0.05208 29.85161 0.01831
C 31.94084 7.08256 0.01504
C 27.06887 11.36157 0.04185
C 27.11639 12.77735 0.02316
C 28.35058 13.4874 0.01257
C 20.95072 0.73323 -0.00652
C 19.71603 0.02711 0.0058
C 22.15207 32.55021 -0.00865
C 23.34779 31.94083 0.00675
C 23.38353 30.56267 -0.00311
C 22.10594 29.87446 0.00742
C 22.09355 28.42592 -0.01594
C 23.36083 27.7295 0.0106
C 23.3344 26.30062 -0.01154
C 22.0841 25.59107 -0.01721
C 22.17832 24.15612 -0.02422
C 23.33743 23.5488 0.01277
C 23.35152 17.66892 0.00096
C 22.15529 17.09417 -0.01527
C 22.18784 15.60656 0.01087
C 23.39171 14.8522 0.00199
C 23.3084 13.44273 0.01511
C 22.12873 12.77547 -0.00478
C 22.13863 11.32343 -0.01662
C 23.5311 10.71263 -0.01185
C 23.33638 9.27129 0.01126
C 22.15933 8.49169 0.01852
C 22.14287 7.06035 -0.00381
C 20.79809 2.15027 -0.04076
C 19.61318 2.87874 -0.00703
C 19.60487 4.25419 0.00654
C 20.8583 4.95016 -0.04422
C 19.70253 32.63427 -0.00109
C 20.81252 31.87318 -0.00491
C 20.89433 30.50511 0.03338
C 19.61671 29.80186 -0.0258
C 19.56771 28.40821 -0.0331
C 20.80653 27.68981 -0.00316
C 20.91985 26.28335 0.02188
C 20.95777 23.31759 -0.01979
C 20.83234 22.10964 0.02691
C 19.71726 21.19029 -0.01581
C 19.73322 19.83565 0.01452
C 23.34345 6.33369 0.03046
C 20.90539 19.16872 0.04892
C 19.78611 17.12673 -0.03557
C 19.6909 15.63809 0.03754
C 20.86706 14.83769 0.01739
C 20.89718 13.44604 0.00755
C 19.6288 12.83121 -0.0054
C 19.63694 11.39166 0.00667
C 20.90219 10.64033 0.00143
C 20.97929 9.26353 -0.017
C 19.72308 8.54491 0.00364
C 19.67746 7.14456 -0.00831
C 20.88055 6.33064 -0.02957
C 20.91751 17.81895 -0.00111
C 3.6975 31.93625 0.01073
C 23.29961 4.92547 0.0296
C 22.07887 2.81454 -0.02845
C 24.59312 4.23276 -0.00229
C 24.55741 2.83916 -0.00938
C 25.85103 2.13173 -0.0264
C 25.82547 0.69392 -0.01154
C 24.59047 0.08189 0.00684
C 27.09811 32.6944 -0.01052
C 28.21653 31.93368 -0.01679
C 28.30827 30.50404 0.00367
C 27.04462 29.8544 0.04306
C 27.07188 28.46084 0.00996
C 28.30333 27.67278 0.00195
C 28.29286 26.23074 -0.00802
C 27.12936 25.56017 -0.00218
C 27.00964 24.19313 -0.01654
C 28.26181 23.44613 -0.00037
C 28.295 22.04269 -0.0032
C 27.05337 21.26408 0.00622
C 27.03806 19.79204 -0.02815
C 28.23562 19.10021 -0.00942
C 28.33756 17.72286 0.00487
C 27.03194 17.03055 0.00826
C 26.96627 15.63127 -0.00294
C 28.2713 14.92118 0.00152
C 25.75836 4.98234 -0.01199
C 25.85302 6.36409 -0.009
C 24.53473 7.00431 -0.00285
C 24.55705 8.47689 0.01423
C 23.3576 2.21054 -0.03213
C 23.38634 0.76247 0.02239
C 22.13431 33.96888 0.01153
C 24.62463 32.69628 0.02734
C 25.81833 32.01877 -0.0055
C 25.80986 30.55483 0.01515
C 24.58705 29.88455 -0.00225
C 24.61847 28.37664 0.00071
C 25.83626 27.67092 -0.01107
C 25.85105 26.25533 -0.01586
C 24.57778 25.57872 -0.01971
C 22.11978 4.21483 0.03374
C 24.61072 24.16709 -0.02118
C 25.82493 21.98322 -0.00178
C 25.82842 19.21482 0.00768
C 25.76537 17.76455 -0.0276
C 24.52226 17.10274 0.03005
C 24.55511 15.59698 -0.04078
C 25.73685 14.90652 0.02117
C 25.77489 13.50853 0.02737
C 24.56384 12.80937 -0.00498
C 24.66658 11.46224 0.00135
C 25.80421 10.64548 0.03102
C 25.83112 9.26831 0.02555
C 25.79206 23.37599 0.00733
C 2.49233 32.5962 -0.00018
