438
Graphene
C 34.42948 34.07103 0.01295
C 12.22587 21.33332 -0.00334
C 12.25968 19.89737 0.02339
C 13.39262 19.13941 0.01641
C 13.40755 17.80887 -0.00719
C 12.18047 16.98573 0.01364
C 12.21768 15.57074 -0.01062
C 13.56673 14.94228 -0.00033
C 13.58622 13.53104 0.03589
C 12.33764 12.93245 -0.02759
C 12.28707 11.47542 0.0402
C 13.46977 10.6745 0.00572
C 13.49212 9.28799 0.03592
C 12.28419 8.51172 0.00406
C 12.24002 7.06892 0.00943
C 13.53239 6.34097 0.02841
C 13.53452 4.99224 -0.01111
C 12.26515 4.42011 -0.01275
C 12.25668 2.92573 0.00985
C 13.43893 2.2426 -0.02245
C 13.51539 0.73834 -0.00428
C 12.26282 0.04011 0.03101
C 14.65583 32.63656 -0.01536
C 15.94425 31.94161 -0.02689
C 13.51023 22.06262 -0.01634
C 15.92791 30.54422 -0.01046
C 13.50662 23.5003 0.00057
C 12.26756 25.70071 0.01291
C 9.75856 15.67285 -0.04848
C 10.98508 14.89868 -0.00892
C 11.00139 13.46901 -0.01362
C 9.78944 12.75027 -0.0008
C 9.75437 11.31844 0.0288
C 11.05795 10.74914 0.00393
C 11.09275 9.2148 0.00895
C 9.83277 8.63154 0.00685
C 9.80926 7.15755 0.02888
C 11.00964 6.45051 -0.00482
C 10.97768 5.04293 -0.01384
C 9.87669 4.29887 0.03693
C 9.85253 2.7508 0.01745
C 11.02915 2.1913 0.00488
C 11.05927 0.7961 -0.01004
C 9.81991 0.03561 -0.02896
C 12.17413 32.71767 -0.00131
C 13.50359 31.90537 -0.01118
C 13.48464 30.53567 -0.014
C 12.27697 29.82981 0.02147
C 12.30442 28.43514 0.00373
C 13.50476 27.76469 -0.00191
C 13.55315 26.35702 0.00438
C 12.32816 24.2749 0.00093
C 14.71926 29.8743 -0.00891
C 14.72043 28.4068 0.02819
C 15.9323 27.69039 0.00165
C 18.39149 30.54064 -0.01957
C 17.17687 29.74329 -0.0108
C 17.18844 28.39375 -0.00368
C 18.42122 27.66489 -0.02696
C 18.43883 26.23344 -0.00114
C 17.14651 25.57126 0.00228
C 17.21819 24.12151 0.00798
C 18.44993 23.41687 0.00422
C 18.3629 22.05892 0.0351
C 17.09082 21.36996 -0.03113
C 17.12808 19.92583 0.02098
C 18.30602 19.16121 0.01848
C 18.22823 17.73489 -0.00619
C 17.07933 17.01626 -0.02162
C 17.16072 15.64818 0.00889
C 17.33899 12.83782 -0.00481
C 17.27426 11.47851 0.00979
C 18.45365 10.71109 0.01443
C 18.4447 9.28646 0.03505
C 17.22823 8.54634 -0.02815
C 17.21527 7.06411 -0.04147
C 18.53281 6.38567 -0.05302
C 18.41808 5.00909 0.00213
C 18.41468 31.90058 0.02058
C 17.17349 32.59284 0.01965
C 14.67149 34.01991 -0.03682
C 15.98197 0.66917 0.00052
C 15.95529 26.25814 -0.02971
C 14.74674 25.54185 0.02894
C 14.72895 24.22062 -0.01789
C 15.96042 23.47657 0.00444
C 15.92656 22.08061 -0.00925
C 14.6729 21.32164 0.01877
C 14.65378 19.86259 0.01363
C 15.91901 19.20695 -0.02162
C 15.88527 17.75283 0.00415
C 14.65711 17.1371 -0.0014
C 14.75789 15.70249 0.02162
C 9.65561 17.14865 0.01572
C 15.98023 14.90531 0.0076
C 14.77574 12.67648 -0.01454
C 14.76978 11.3455 0.01945
C 16.07273 10.64733 0.01416
C 16.01308 9.21976 0.03542
C 14.71648 8.51071 0.02299
C 14.7091 7.1654 0.00244
C 15.9625 6.34567 -0.01717
C 16.00558 4.8808 0.05265
C 14.78046 4.23542 -0.01952
C 14.70889 2.85165 -0.02813
C 15.99186 2.09737 0.00374
C 15.99496 13.50579 0.01241
C 10.99726 17.75421 -0.00095
C 11.04972 19.16479 0.03007
C 9.86608 19.92327 0.00054
C 3.6998 0.66406 0.00828
C 2.48481 34.07444 -0.02375
C 4.90267 32.74023 0.00558
C 6.07671 31.93807 -0.0059
C 6.17702 30.47 -0.01386
C 4.87833 29.89641 -0.02805
C 4.81786 28.46775 0.00081
C 6.04741 27.76078 0.00245
C 6.03917 26.37669 0.02728
C 4.88694 25.61322 -0.00039
C 4.94815 24.17393 0.0064
C 6.16975 23.40625 0.00211
C 6.1474 22.02664 -0.00449
C 4.87896 21.28348 -0.01979
C 4.85581 19.8951 0.02784
C 6.04639 19.25156 -0.01977
C 6.12446 17.90073 -0.00561
C 4.85901 17.02949 0.00208
C 4.86995 15.62795 0.01707
C 6.0408 14.92684 0.02769
C 6.0946 13.52149 -0.03291
C 4.84167 12.82989 -0.04999
C 4.83937 11.36626 0.04505
C 3.71154 2.14821 0.00088
C 2.44636 2.81756 0.04421
C 2.5106 4.2093 -0.00177
C 3.7739 5.00555 0.03278
C 3.70518 30.55481 -0.00018
C 2.45928 29.85753 0.01073
C 2.40583 28.43621 0.01984
C 3.62503 27.72081 0.00535
C 3.67007 26.33571 -0.00198
C 2.41017 25.58931 -0.00012
C 2.46178 24.05598 -0.04306
C 3.75102 23.43219 -0.03672
C 3.65494 22.05205 0.01913
C 2.37824 21.39183 0.00267
C 2.38943 19.93577 0.00787
C 6.14714 10.78068 0.03284
C 3.64125 19.21336 0.02426
C 2.40836 17.02716 -0.01471
C 2.409 15.68527 -0.02827
C 3.5864 14.99491 0.01078
C 3.6115 13.53016 -0.00112
C 2.34696 12.76067 0.03345
C 2.28472 11.39522 0.00748
C 3.60771 10.61756 0.00662
C 3.70286 9.23692 -0.0154
C 2.42903 8.45399 -0.01299
C 2.55418 7.08791 -0.00407
C 3.79714 6.42026 0.01138
C 3.60835 17.72677 0.01218
C 17.21251 4.27467 -0.00066
C 6.19628 9.30498 -0.04307
C 4.97256 7.19863 0.00031
C 8.57682 10.61865 0.01087
C 8.59786 9.25886 -0.01343
C 7.30033 8.5562 0.00988
C 7.38199 7.10962 0.0276
C 8.60529 6.44622 0.01305
C 8.5921 4.98291 -0.00077
C 7.39836 4.36513 0.03368
C 7.32365 2.92019 -0.02929
C 8.56069 2.18632 -0.00966
C 8.61269 0.76574 -0.03337
C 7.34732 0.0468 0.01227
C 9.75752 32.66662 0.00873
C 10.98913 32.03638 -0.00049
C 10.99686 30.62649 0.00848
C 9.81281 29.81381 -0.01303
C 9.83893 28.47506 -0.01378
C 11.06306 27.73103 0.02635
C 11.05376 26.30456 0.0127
C 9.80598 25.61331 0.01396
C 9.78902 24.19882 0.01849
C 11.07131 23.56191 -0.01142
C 11.02298 22.02942 -0.00562
C 9.85664 21.31438 -0.00494
C 7.32584 11.46381 -0.05697
C 7.34977 12.90982 -0.00725
C 8.66389 13.52532 0.02322
C 8.63451 15.00845 -0.00094
C 6.17765 6.49982 -0.003
C 6.1232 5.00958 0.01402
C 4.95749 4.32511 0.02379
C 4.87965 2.87607 0.00907
C 6.08965 2.21694 0.00643
C 6.09592 0.7977 -0.01509
C 4.87581 0.02266 0.03267
C 7.22272 32.71011 0.02374
C 8.47207 31.98963 0.00402
C 8.54614 30.61267 0.0073
C 7.351 29.8576 0.0174
C 4.97432 8.6005 0.03189
C 7.36745 28.42439 0.03828
C 8.52148 26.40676 -0.00279
C 7.36724 25.66596 0.01996
C 7.31813 24.25455 -0.03996
C 8.60985 23.4965 0.01465
C 8.60555 22.05746 -0.00074
C 7.36114 21.25918 -0.00518
C 7.40496 19.88821 0.0086
C 8.63678 19.21753 -0.00643
C 8.50545 17.8354 0.017
C 7.25025 17.09736 -0.03113
C 7.29735 15.7188 -0.02566
C 8.55321 27.80032 0.01226
C 17.18443 2.88891 -0.00289
C 18.39646 2.12614 0.00028
C 18.40494 0.72394 -0.02213
C 30.63007 14.90648 -0.0405
C 30.59211 13.47477 -0.01303
C 29.44377 12.73959 -0.01461
C 29.52803 11.27853 -0.02155
C 30.69396 10.57729 -0.00944
C 30.74245 9.06077 -0.03735
C 29.49539 8.35778 -0.00971
C 29.55051 7.03176 0.01518
C 30.74964 6.3011 0.01908
C 30.74927 4.91113 0.07705
C 29.39487 4.25164 0.0103
C 29.49558 2.89284 0.02108
C 30.77676 2.07471 0.00716
C 30.69855 0.68086 0.00307
C 29.54021 0.00537 0.00346
C 31.902 32.69521 0.01713
C 33.1489 31.92862 -0.01694
C 33.20221 30.5149 0.01428
C 31.95491 29.82717 -0.02142
C 31.96116 28.46862 0.0544
C 33.20387 27.71092 0.00026
C 33.1955 26.31664 0.00682
C 31.91448 25.57608 -0.01779
C 29.43031 15.66486 0.01705
C 29.39269 17.00988 0.0101
C 30.66478 17.7035 -0.00669
C 30.67883 19.18432 0.03531
C 28.30815 10.56336 0.00194
C 28.32112 9.22571 -0.00621
C 27.09007 8.44897 0.02611
C 27.07763 7.07905 0.02198
C 28.34545 6.33152 0.01094
C 28.16867 4.93701 0.00235
C 26.85417 4.23545 0.01495
C 27.04322 2.91017 0.01259
C 28.2638 2.10125 0.01799
C 28.24559 0.70628 0.01699
C 27.04294 0.01627 -0.00416
C 31.89994 24.11548 0.03794
C 29.4895 32.61833 0.01177
C 30.69097 30.53057 0.01324
C 29.45832 29.83507 0.0014
C 29.39827 28.46222 0.00924
C 30.70402 27.83238 0.02326
C 30.73597 26.34759 0.00261
C 29.48241 25.58227 0.03265
C 29.44321 24.20932 -0.02049
C 30.70092 23.41799 -0.01854
C 30.73373 22.00112 -0.01415
C 29.49137 21.33475 -0.03039
C 29.45666 19.88762 0.01836
C 30.74734 31.95325 0.04266
C 27.1207 11.26613 0.04185
C 33.20273 23.42523 0.01927
C 31.90787 21.3023 -0.02383
C 34.41326 24.15351 0.03076
C 1.22004 23.45096 0.00723
C 1.18133 22.01211 0.02712
C 34.37515 21.24781 -0.02213
C 0.00942 19.7675 0.01951
C 1.21259 19.15994 -0.01678
C 1.04488 17.73194 0.01223
C 34.28327 17.07404 0.00648
C 34.34072 15.58639 0.02114
C 1.11677 14.85928 -0.02957
C 1.09012 13.48029 0.00343
C 34.30165 12.67692 -0.02656
C 34.30592 11.29675 -0.02442
C 1.11158 10.62892 -0.00027
C 1.22132 9.15732 -0.00583
C 34.40158 8.48193 -0.02302
C 34.34054 7.0866 -0.02849
C 1.17546 6.36956 0.02931
C 1.29841 4.99524 0.00628
C 34.42514 4.22496 -0.0345
C 0.00679 2.79225 -0.00931
C 1.25596 2.05333 -0.00939
C 1.26584 0.63376 -0.00468
C 34.39346 25.63157 -0.05239
C 1.18983 26.26321 -0.00598
C 1.26889 27.68908 -0.00439
C 0.07403 28.45081 -0.01037
C 31.90665 19.88987 -0.01429
C 33.21324 19.12463 -0.0136
C 33.01646 17.77647 0.00594
C 31.875 17.03359 -0.02474
C 31.94673 15.57658 0.00369
C 33.15809 14.89849 0.00455
C 33.09772 13.39439 -0.00644
C 31.89533 12.72845 -0.01839
C 31.88147 11.36855 0.00137
C 33.1064 10.58847 0.00199
C 33.13985 9.13571 0.04381
C 33.174 22.05055 0.01574
C 31.91902 8.35607 0.02806
C 33.21373 6.31377 -0.00069
C 33.21512 4.88585 0.04926
C 31.91125 4.21255 -0.03838
C 31.98418 2.8278 0.00349
C 33.26739 2.14728 -0.00323
C 33.24523 0.74671 -0.00841
C 32.00038 0.04338 0.0001
C 34.38179 32.65462 -0.02927
C 1.17366 31.94745 -0.01404
C 1.15966 30.51328 0.01027
C 34.36932 29.75641 0.01831
C 31.92458 6.95493 0.01504
C 3.62911 32.00761 -0.0005
C 26.95655 12.64282 0.02316
C 28.20989 14.88999 0.00152
C 19.59636 0.06652 -0.04076
C 22.09978 32.64969 -0.00652
C 23.32238 31.89068 0.0058
C 23.35222 30.48784 -0.00865
C 22.06995 29.79512 0.00675
C 22.08226 28.28538 -0.00311
C 23.37547 27.60028 0.00742
C 23.33365 26.24585 -0.01594
C 22.1059 25.54637 0.0106
C 22.1638 24.12801 -0.01154
C 23.31142 23.44072 -0.01721
C 23.23268 21.92164 -0.02422
C 22.0127 21.20245 0.01277
C 21.97172 19.77306 0.00096
C 23.26956 19.10262 -0.01527
C 23.25315 17.69093 0.01087
C 22.09519 17.00583 0.00199
C 22.2084 11.51451 0.01511
C 23.45086 10.66679 -0.00478
C 23.33479 9.30459 -0.01662
C 22.13084 8.59916 -0.01185
C 22.23699 7.18143 0.01126
C 23.36686 6.4229 0.01852
C 20.84742 0.71744 -0.00703
C 20.81699 2.1564 0.00654
C 19.56189 2.9039 -0.04422
C 19.6807 4.32881 -0.02957
C 17.19783 34.03532 0.03698
C 19.62695 32.61018 -0.00109
C 20.89098 31.92803 -0.00491
C 20.8231 30.49895 0.03338
C 19.62723 29.80363 -0.0258
C 19.5982 28.40355 -0.0331
C 20.88079 27.63848 -0.00316
C 20.8744 26.30277 0.02188
C 19.63951 25.55095 -0.01979
C 19.66887 24.17648 0.02691
C 20.91635 23.46389 -0.01581
C 23.24473 4.90782 -0.00381
C 20.82087 22.00903 0.01452
C 19.57926 19.88114 -0.00111
C 20.76619 19.07226 -0.03557
C 20.733 17.61036 0.03754
C 19.37679 16.89966 0.01739
C 19.65033 11.53749 0.00755
C 20.95056 10.89588 -0.0054
C 20.97631 9.37035 0.00667
C 19.76308 8.62796 0.00143
C 19.77782 7.21482 -0.017
C 20.94 6.45568 0.00364
C 20.79615 5.0432 -0.00831
C 19.58861 21.2588 0.04892
C 28.22747 13.49074 0.01257
C 21.99388 4.29822 0.03046
C 23.33349 2.12573 0.03374
C 25.72848 4.92331 -0.01199
C 24.50474 4.30308 -0.00229
C 24.59207 2.82959 -0.00938
C 25.7391 2.07779 -0.0264
C 25.78866 0.68468 -0.01154
C 24.50472 34.04576 0.00684
C 26.94136 32.72289 -0.01052
C 28.24437 31.94136 -0.01679
C 28.19404 30.58119 0.00367
C 27.02132 29.8802 0.04306
C 27.0005 28.43503 0.00996
C 28.28432 27.6684 0.00195
C 28.26217 26.30558 -0.00802
C 27.01614 25.61788 -0.00218
C 27.02167 24.19308 -0.01654
C 28.24513 23.45814 -0.00037
C 28.27235 22.01315 -0.0032
C 26.94734 21.36099 0.00622
C 27.04329 19.98002 -0.02815
C 28.27547 19.11352 -0.00942
C 28.12223 17.67508 0.00487
C 26.8947 16.95097 0.00826
C 26.93743 15.58739 -0.00294
C 25.85866 6.36262 -0.009
C 24.59666 7.08668 -0.00285
C 24.5343 8.52883 0.01423
C 25.80562 9.17836 0.02555
C 23.33312 0.7524 -0.02845
C 21.98253 34.06457 -0.03213
C 24.51753 32.63976 0.02239
C 25.76 32.01866 0.01153
C 25.79533 30.58716 0.02734
C 24.60323 29.82596 -0.0055
C 24.58097 28.36837 0.01515
C 25.84878 27.76089 -0.00225
C 25.78381 26.33653 0.00071
C 24.55848 25.59103 -0.01107
C 24.48394 24.10816 -0.01586
C 22.03739 2.79227 0.0296
C 25.74252 23.40098 -0.01971
C 24.48835 21.28957 0.00733
C 24.47959 19.78048 -0.00178
C 25.76858 19.26898 0.00768
C 25.72413 17.72998 -0.0276
C 24.46316 17.04145 0.03005
C 24.41574 15.66791 -0.04078
C 25.62803 14.90226 0.02117
C 25.75358 13.51575 0.02737
C 24.47863 12.71718 -0.00498
C 24.66503 11.39063 0.00135
C 25.86487 10.70816 0.03102
C 25.76376 21.98908 -0.02118
C 2.44603 32.66894 0.01116
