347
Graphene
C 34.3371 0.02372 0.01295
C 18.45342 31.959 0.0351
C 18.45655 30.56865 -0.03113
C 17.22957 29.80512 0.02098
C 17.21307 28.40369 0.01848
C 18.42116 27.74389 -0.00619
C 18.45519 26.33772 -0.02162
C 17.1402 25.59361 0.00889
C 17.15896 24.16362 -0.00481
C 18.38401 23.43095 0.00979
C 18.43696 21.99294 0.01443
C 17.22689 21.33885 0.03505
C 17.24149 19.83945 -0.02815
C 18.40175 19.10883 -0.04147
C 18.43284 17.69894 -0.05302
C 17.21049 17.01468 0.00213
C 17.37694 15.50823 -0.00066
C 18.50213 14.73403 -0.00289
C 17.16898 32.65215 0.00422
C 14.82752 34.05112 0.00798
C 16.00495 0.71425 0.00228
C 15.85223 2.07776 -0.00114
C 14.79169 32.67342 0.01945
C 15.93454 31.9595 0.01416
C 16.00124 30.55658 0.03542
C 14.75891 29.83879 0.02299
C 14.74987 28.45152 0.00244
C 15.96431 27.75896 -0.01717
C 15.97942 26.38585 0.05265
C 14.77987 25.68071 -0.01952
C 18.38157 13.34269 0.00028
C 14.81724 24.1854 -0.02813
C 15.93554 21.96709 0.00052
C 14.63092 21.25547 -0.03682
C 14.79922 19.88585 0.01965
C 16.0632 19.04947 0.02058
C 16.03449 17.63611 -0.01957
C 14.82516 16.95117 -0.0108
C 15.13772 15.52492 -0.00368
C 16.19128 14.77769 -0.02696
C 15.99693 23.39216 0.00374
C 17.30422 12.32806 -0.02213
C 18.32426 10.76836 0.03698
C 18.35067 9.46297 -0.00109
C 19.72717 16.99878 -0.02957
C 19.71354 15.51741 -0.04422
C 20.94553 14.76133 0.00654
C 20.88378 13.41067 -0.00703
C 19.64302 12.82778 -0.04076
C 19.62237 11.35384 -0.00652
C 20.79075 10.60565 0.0058
C 20.82476 9.27383 -0.00865
C 20.95539 17.68882 -0.00831
C 19.56415 8.54801 0.00675
C 20.83117 6.39864 0.00742
C 20.71354 4.95054 -0.01594
C 19.52039 4.31847 0.0106
C 19.53483 2.86928 -0.01154
C 20.88606 2.22802 -0.01721
C 20.85524 0.77514 -0.02422
C 19.60277 0.0625 0.01277
C 22.16463 32.71205 0.00096
C 19.591 7.09727 -0.00311
C 12.26727 0.09316 -0.01454
C 20.944 19.06884 0.00364
C 19.65077 21.23877 0.00143
C 18.32713 6.48869 -0.00491
C 18.25527 5.07042 0.03338
C 17.16293 4.2479 -0.0258
C 16.99143 2.91054 -0.0331
C 18.25841 2.21322 -0.00316
C 18.43554 0.77995 0.02188
C 17.25187 0.06076 -0.01979
C 19.68026 32.68115 0.02691
C 19.66517 19.80122 -0.017
C 20.91796 31.9964 -0.01581
C 19.67453 29.80846 0.04892
C 19.63205 28.37812 -0.00111
C 20.85795 27.69602 -0.03557
C 20.85515 26.29971 0.03754
C 19.6766 25.62011 0.01739
C 19.69885 24.11487 0.00755
C 20.89625 23.40771 -0.0054
C 20.91157 21.94158 0.00667
C 20.89197 30.52712 0.01452
C 23.37867 31.97337 -0.01527
C 13.37785 0.67896 0.01241
C 13.5181 17.69744 0.02162
C 4.80955 29.8478 -0.0008
C 4.78462 28.42445 0.0288
C 6.01611 27.73656 0.00393
C 6.11713 26.3308 0.00895
C 4.88302 25.50841 0.00685
C 4.86606 24.14021 0.02888
C 6.19038 23.44815 -0.00482
C 6.16386 22.07195 -0.01384
C 4.87654 21.31196 0.03693
C 4.91459 19.91559 0.01745
C 6.19965 19.19689 0.00488
C 6.07714 17.73732 -0.01004
C 5.02471 17.17822 -0.02896
C 6.13522 0.73805 -0.00131
C 4.8076 0.10777 -0.01118
C 7.3207 32.68229 -0.014
C 8.62875 32.13007 0.02147
C 6.06445 30.61117 -0.01362
C 6.03244 31.9842 -0.00892
C 4.80499 32.72787 -0.04848
C 2.42208 0.05191 0.01572
C 3.60373 30.52958 -0.00966
C 2.38042 29.82773 -0.03337
C 2.37778 28.42184 0.01227
C 3.57501 27.67697 0.00873
C 3.6676 26.30372 -0.00049
C 2.44726 25.57703 0.00848
C 2.4506 24.10215 -0.01303
C 3.64316 23.42758 -0.01378
C 8.56771 30.66255 0.00373
C 3.64564 22.01429 0.02635
C 2.44477 19.79897 0.01396
C 3.69433 19.09778 0.01849
C 3.58979 17.71047 -0.01142
C 2.41296 17.00905 -0.00562
C 2.4892 15.59295 -0.00494
C 2.28058 2.95049 0.00054
C 3.43655 2.32556 0.03007
C 3.56718 0.77493 -0.00095
C 2.46594 21.2219 0.0127
C 7.26907 29.85561 -0.00191
C 7.29739 28.50571 0.00438
C 8.5583 27.74221 0.01291
C 9.82182 19.9096 -0.00428
C 10.99719 19.26851 0.03101
C 10.9779 17.74858 -0.01536
C 10.16537 0.09861 -0.02689
C 12.2392 32.69172 -0.01046
C 13.51276 32.05699 -0.00891
C 13.51239 30.57584 0.02819
C 12.21261 29.91933 0.00165
C 9.91388 21.29819 -0.02245
C 12.26 28.53547 -0.02971
C 13.48851 26.3456 -0.01789
C 12.3079 25.60527 0.00444
C 12.29898 24.25542 -0.00925
C 13.48365 23.47221 0.01877
C 13.5072 22.01261 0.01363
C 12.32816 21.26405 -0.02162
C 12.31191 19.85133 0.00415
C 13.52569 19.07404 -0.0014
C 13.47192 27.82921 0.02894
C 12.0905 17.18015 0.0076
C 11.08719 22.02615 0.00985
C 9.83475 24.24898 -0.01111
C 8.57707 26.37109 0.00093
C 7.39042 25.67721 0.00057
C 7.43606 24.17551 -0.01634
C 8.6233 23.47357 -0.00334
C 8.71677 22.0381 0.02339
C 7.50105 21.281 0.01641
C 7.43169 19.85161 -0.00719
C 8.62902 19.10425 0.01364
C 11.0553 23.54294 -0.01275
C 8.59069 17.73346 -0.01062
C 9.83843 32.85446 0.03589
C 11.05058 31.96941 -0.02759
C 10.94962 30.59687 0.0402
C 9.74086 29.92427 0.00572
C 9.77461 28.47704 0.03592
C 11.00927 27.81746 0.00406
C 11.04947 26.33965 0.00943
C 9.82643 25.63193 0.02841
C 7.18378 0.00906 -0.00033
C 3.56742 31.96813 -0.02929
C 23.35041 30.60216 0.01087
C 22.13094 28.37569 0.01511
C 30.66205 2.07961 0.01428
C 30.69496 0.6667 -0.02142
C 29.44387 0.04063 0.0544
C 31.92312 32.69497 0.00026
C 33.06329 31.96043 0.00682
C 33.15351 30.54512 -0.01779
C 31.88214 29.82158 0.03794
C 31.88562 28.43556 0.01927
C 33.18457 27.72051 0.01574
C 33.16581 26.27037 -0.02383
C 31.90568 25.5391 -0.01429
C 31.95389 24.16749 -0.0136
C 33.22376 23.48808 0.00594
C 33.228 22.06657 -0.02474
C 31.97521 21.33877 0.00369
C 31.99076 19.86153 0.00455
C 33.18962 19.18841 -0.00644
C 29.49679 2.82972 -0.01694
C 29.58666 4.37265 0.01713
C 30.78466 4.97111 0.00346
C 30.79416 6.41255 0.00307
C 30.70483 32.02054 0.01836
C 30.61007 30.56536 0.03531
C 29.36896 29.81688 -0.00669
C 29.41683 28.34457 0.0101
C 30.66806 27.7382 0.01705
C 30.62495 26.23657 -0.0405
C 29.41589 25.60222 -0.01303
C 29.4451 24.14988 -0.01461
C 33.23751 17.80119 -0.01839
C 30.74605 23.46475 -0.02155
C 29.45108 21.25264 -0.03735
C 29.55177 19.86159 -0.00971
C 30.75086 19.17581 0.01518
C 30.65932 17.68752 0.01908
C 29.49025 16.86605 0.07705
C 30.8321 9.20171 0.0103
C 29.49871 8.75239 0.02108
C 29.55233 7.24843 0.00716
C 30.75849 22.07944 -0.00944
C 31.96655 16.99236 0.00137
C 31.89529 15.60275 0.00199
C 33.2331 14.98489 0.04381
C 1.18386 22.0023 -0.01678
C 34.42714 21.30338 0.01223
C 34.37998 19.94927 0.00648
C 1.22423 19.23091 0.02114
C 1.19097 17.82469 -0.02957
C 0.01238 17.10956 0.00343
C 0.03659 15.74622 -0.02656
C 1.15304 15.03831 -0.02442
C 1.2713 23.41016 0.01951
C 1.0894 13.67026 -0.00027
C 34.07864 11.47985 -0.02302
C 34.36353 8.24694 -0.02849
C 0.07388 7.07304 0.02931
C 1.44323 4.45903 0.00628
C 0.10457 4.17288 -0.0345
C 34.32706 2.7573 -0.00931
C 1.03602 2.02961 -0.00939
C 1.13056 0.6568 -0.00468
C 0.19211 12.65911 -0.00583
C 29.46476 32.72512 -0.03039
C 0.07525 24.17757 -0.02213
C 1.16828 26.26 0.00723
C 33.70645 13.76076 0.02806
C 33.418 10.33868 0.01504
C 33.17973 9.05757 -0.00069
C 31.87559 8.40476 0.04926
C 32.04177 7.09384 -0.03838
C 33.28062 6.3707 0.00349
C 33.295 4.93783 -0.00323
C 32.07133 4.27254 -0.00841
C 0.00699 25.54584 0.02712
C 31.92367 2.8765 0.0001
C 33.13532 0.73709 -0.01404
C 31.96177 0.01155 0.01027
C 34.29838 32.67808 0.01831
C 1.22306 31.96069 -0.01037
C 1.20741 30.57011 -0.00439
C 34.38275 29.91262 -0.00598
C 34.37646 28.45873 -0.05239
C 1.11621 27.71685 0.03076
C 33.10138 2.16507 -0.02927
C 22.13233 29.84674 0.00199
C 26.99526 0.09491 -0.01415
C 28.27007 2.23242 -0.02049
C 22.04079 4.29477 0.00733
C 22.12413 2.88789 -0.00178
C 23.35043 2.19011 0.00768
C 23.34161 0.75649 -0.0276
C 22.09418 0.03291 0.03005
C 24.6401 32.72651 -0.04078
C 25.80324 31.93569 0.02117
C 25.72121 30.54105 0.02737
C 24.52148 29.83661 -0.00498
C 24.59122 28.4107 0.00135
C 25.80374 27.65854 0.03102
C 25.82517 26.26678 0.02555
C 24.54785 25.52993 0.01423
C 24.51964 24.10073 -0.00285
C 25.82116 23.36671 -0.009
C 25.81749 21.93777 -0.01199
C 24.63476 21.23189 -0.00229
C 23.27798 5.10484 -0.02118
C 23.33122 6.42748 -0.01971
C 22.08712 7.12634 -0.01586
C 22.07235 8.58385 -0.01107
C 23.37411 27.71283 -0.00478
C 23.3694 26.29345 -0.01662
C 22.05039 25.56614 -0.01185
C 22.07268 24.1716 0.01126
C 23.33461 23.3877 0.01852
C 23.38742 21.94351 -0.00381
C 22.18436 21.29823 0.03046
C 22.16848 19.86478 0.0296
C 24.56607 19.7937 -0.00938
C 23.3917 19.13478 0.03374
C 22.18299 17.03844 -0.03213
C 22.1778 15.56047 0.02239
C 23.34169 14.88869 0.01153
C 23.30887 13.48885 0.02734
C 22.13868 12.68923 -0.0055
C 22.07948 11.28205 0.01515
C 23.27722 10.68536 -0.00225
C 23.35033 9.21554 0.00071
C 23.39717 17.69142 -0.02845
C 25.85265 19.09282 -0.0264
C 25.86653 17.7029 -0.01154
C 24.73611 16.92899 0.00684
C 28.27038 26.30791 -0.00621
C 27.00549 25.57052 0.02611
C 27.02859 24.10496 0.02198
C 28.25951 23.39973 0.01094
C 28.23177 21.98425 0.00235
C 27.0841 21.22919 0.01495
C 27.0791 19.82184 0.01259
C 28.30693 19.17064 0.01799
C 28.19601 27.68179 0.00194
C 28.34059 17.63727 0.01699
C 27.15117 15.57102 0.01177
C 28.13843 9.24142 0.04266
C 27.03005 8.54087 0.01324
C 27.0281 7.14609 0.0014
C 28.2591 6.51776 0.00924
C 28.25969 5.10476 0.02326
C 27.06328 4.35806 0.00261
C 27.02256 2.90704 0.03265
C 27.13584 16.93627 -0.00416
C 28.19254 0.74883 -0.01854
C 27.01652 28.43828 0.04185
C 28.21139 30.55589 0.01257
C 24.72515 15.54491 -0.01052
C 26.02613 14.78758 -0.01679
C 25.7854 13.41537 0.00367
C 24.60676 12.68938 0.04306
C 24.5807 11.29497 0.00996
C 25.8407 10.59476 0.00195
C 25.7673 9.26648 -0.00802
C 24.57593 8.48379 -0.00218
C 27.01196 29.87594 0.02316
C 24.5596 7.10936 -0.01654
C 25.76037 4.98356 -0.0032
C 24.5892 4.2589 0.00622
C 24.60351 2.86739 -0.02815
C 25.83317 2.09821 -0.00942
C 25.7777 0.77247 0.00487
C 24.60841 0.06866 0.00826
C 27.00871 32.66169 -0.00294
C 28.21642 31.99706 0.00152
C 25.79329 6.43644 -0.00037
C 2.37594 32.68375 0.03368
