382
Graphene
C 34.38935 0.04578 0.01295
C 11.0027 5.03193 0.01241
C 9.81342 4.29343 -0.01454
C 9.80267 2.92757 0.01945
C 11.00259 2.20751 0.01416
C 11.02322 0.71275 0.03542
C 9.8448 0.1123 0.02299
C 12.29096 32.62772 0.00244
C 13.48225 31.87686 -0.01717
C 13.47081 30.51369 0.05265
C 12.23627 29.80623 -0.01952
C 12.2879 28.35985 -0.02813
C 13.55789 27.64266 0.00374
C 13.59192 26.2299 0.00052
C 12.36859 25.61699 -0.03682
C 12.41788 24.0984 0.01965
C 13.59545 23.22681 0.02058
C 13.44951 21.83485 -0.01957
C 12.2217 21.2577 -0.0108
C 12.25133 19.85984 -0.00368
C 11.05325 6.40543 0.0076
C 9.82659 7.10199 0.02162
C 9.83014 8.539 -0.0014
C 11.07565 9.21307 0.00415
C 11.06697 30.50863 -0.01111
C 9.80414 29.88888 -0.01275
C 9.88097 28.45669 0.00985
C 11.10901 27.69908 -0.02245
C 11.10377 26.31959 -0.00428
C 9.9124 25.63076 0.03101
C 9.82078 24.26514 -0.01536
C 11.06105 23.50197 -0.02689
C 11.05077 22.07103 -0.01046
C 13.58701 19.27635 -0.02696
C 9.87295 21.36418 -0.00891
C 11.06091 19.17607 0.00165
C 11.08251 17.69235 -0.02971
C 9.80225 16.93592 0.02894
C 9.76212 15.58696 -0.01789
C 11.09253 14.91921 0.00444
C 11.08241 13.45392 -0.00925
C 9.80463 12.76444 0.01877
C 9.86372 11.34369 0.01363
C 11.09885 10.68183 -0.02162
C 9.89509 19.91552 0.02819
C 13.68551 17.85122 -0.00114
C 12.35632 17.07014 0.00228
C 12.35621 15.57636 0.00798
C 14.65223 16.93594 -0.0258
C 14.87385 15.66238 -0.0331
C 15.98204 14.8703 -0.00316
C 15.94882 13.42805 0.02188
C 14.72657 12.7919 -0.01979
C 14.75459 11.38217 0.02691
C 16.01459 10.65947 -0.01581
C 16.01065 9.26319 0.01452
C 14.72119 8.54805 0.04892
C 14.67667 24.07836 0.03338
C 14.78882 7.15632 -0.00111
C 15.94568 4.96592 0.03754
C 14.7 4.25667 0.01739
C 14.71642 2.80216 0.00755
C 15.94722 2.05551 -0.0054
C 15.91642 0.6845 0.00667
C 14.68893 33.99562 0.00143
C 17.18227 32.61532 -0.017
C 18.43206 31.97227 0.00364
C 18.44205 30.51002 -0.00831
C 16.04411 6.33625 -0.03557
C 10.99063 32.02626 0.02841
C 14.9386 25.38922 -0.00491
C 15.94851 27.68222 0.03698
C 13.5145 14.96947 0.00422
C 13.52833 13.54541 0.0351
C 12.32234 12.778 -0.03113
C 12.28645 11.41581 0.02098
C 13.49859 10.61391 0.01848
C 13.48487 9.25675 -0.00619
C 12.3028 8.48738 -0.02162
C 12.28219 7.06218 0.00889
C 13.48916 6.39352 -0.00481
C 15.99052 26.2581 -0.00109
C 13.53834 4.97044 0.00979
C 12.27773 2.83405 0.03505
C 13.49068 2.07976 -0.02815
C 13.53468 0.66635 -0.04147
C 12.2807 34.03529 -0.05302
C 14.64183 32.54574 0.00213
C 15.93267 31.8772 -0.00066
C 15.91099 30.47184 -0.00289
C 14.72164 29.70711 0.00028
C 14.7653 28.32539 -0.02213
C 12.3278 4.3254 0.01443
C 9.72663 32.80601 0.00943
C 7.3551 0.11084 0.00406
C 8.62498 0.83314 0.03592
C 3.59667 5.02462 0.02322
C 2.38511 4.25818 -0.00725
C 2.42317 2.85913 -0.05697
C 3.62536 2.11011 0.01087
C 3.6941 0.74113 -0.01343
C 2.44563 0.01333 0.00988
C 4.81098 32.59317 0.0276
C 6.0945 31.94452 0.01305
C 6.12197 30.56294 -0.00077
C 3.70154 6.41029 -0.00094
C 4.90095 29.8781 0.03368
C 6.18472 27.74916 -0.00966
C 6.19432 26.31793 -0.03337
C 4.95976 25.61013 0.01227
C 4.91266 24.1399 0.00873
C 6.10106 23.46308 -0.00049
C 6.11567 22.05293 0.00848
C 4.92892 21.295 -0.01303
C 4.96184 19.86852 -0.01378
C 6.2085 19.21364 0.02635
C 4.88284 28.40433 -0.02929
C 6.20727 17.80758 0.0127
C 2.3969 7.14079 -0.02566
C 3.67399 9.22817 0.017
C 3.6555 30.51654 0.01402
C 2.3972 29.77984 0.02379
C 2.41755 28.45177 0.00907
C 3.64727 27.78195 0.00643
C 3.69112 26.34469 -0.01509
C 2.42912 25.56939 0.03267
C 2.47349 24.22445 0.02374
C 3.63895 23.42487 0.00402
C 3.69824 22.03382 0.0073
C 2.43721 8.49266 -0.03113
C 2.45879 21.33101 0.0174
C 3.68273 19.19011 0.01226
C 3.6114 17.81496 -0.00279
C 2.49511 17.09343 0.01996
C 2.46181 15.61928 -0.03996
C 3.69153 14.94391 0.01465
C 3.6528 13.56137 -0.00074
C 2.43518 12.77588 -0.00518
C 2.45196 11.38414 0.0086
C 3.65654 10.67708 -0.00643
C 2.36652 19.93766 0.03828
C 17.15109 29.81112 -0.02957
C 4.94484 17.11124 0.01396
C 6.09418 14.98509 -0.01142
C 8.60988 22.11513 -0.014
C 7.36832 21.31427 0.02147
C 7.44964 19.84214 0.00373
C 8.75191 19.11841 -0.00191
C 8.7204 17.78119 0.00438
C 7.37724 17.04306 0.01291
C 7.39097 15.5896 0.00093
C 8.61645 14.88759 0.00057
C 8.54869 13.46078 -0.01634
C 8.62504 23.50659 -0.01118
C 7.31998 12.78999 -0.00334
C 8.55117 10.67308 0.01641
C 8.59095 9.21031 -0.00719
C 7.30246 8.51601 0.01364
C 7.3248 7.16643 -0.01062
C 8.54705 6.45706 -0.00033
C 8.54366 5.06396 0.03589
C 7.28574 4.35998 -0.02759
C 7.28689 2.96036 0.0402
C 8.58294 2.23784 0.00572
C 7.31122 11.40336 0.02339
C 4.87064 15.74628 0.01849
C 7.35483 24.21493 -0.00131
C 8.64569 26.31499 -0.01004
C 6.12158 13.55028 -0.00562
C 4.8901 12.88433 -0.00494
C 4.86438 11.49008 0.00054
C 6.11931 10.73035 0.03007
C 6.14751 9.28781 -0.00095
C 4.91079 8.5811 0.01572
C 4.91804 7.14314 -0.04848
C 6.16279 6.42987 -0.00892
C 6.10882 5.04121 -0.01362
C 7.4363 25.63518 -0.02896
C 4.91906 4.3374 -0.0008
C 6.1094 2.16085 0.00393
C 6.13214 0.7549 0.00895
C 4.87418 34.065 0.00685
C 7.30058 32.71963 0.02888
C 8.55304 32.10302 -0.00482
C 8.55696 30.60744 -0.01384
C 7.38417 29.96095 0.03693
C 7.44003 28.47293 0.01745
C 8.69291 27.77825 0.00488
C 4.85906 2.84154 0.0288
C 17.17225 28.36353 -0.04422
C 18.42858 27.76597 0.00654
C 18.49274 13.42012 -0.00703
C 29.38384 4.31257 0.0103
C 29.42082 2.85805 0.02108
C 30.71965 2.1462 0.00716
C 30.75054 0.73308 0.00307
C 29.51242 0.06684 0.00346
C 31.90171 32.66386 0.01713
C 33.1758 31.96329 -0.01694
C 33.20895 30.56331 0.01428
C 31.97726 29.83467 -0.02142
C 30.66638 4.99381 0.07705
C 31.94952 28.44679 0.0544
C 33.13379 26.25453 0.00682
C 31.9302 25.47604 -0.01779
C 31.94845 24.11719 0.03794
C 33.22337 23.46027 0.01927
C 33.16336 22.0534 0.01574
C 31.93611 21.29048 -0.02383
C 31.91506 19.88048 -0.01429
C 33.18912 19.25605 -0.0136
C 33.2488 17.83013 0.00594
C 33.11899 27.71341 0.00026
C 32.05018 17.09262 -0.02474
C 30.72314 6.35799 0.01908
C 29.50201 8.49105 -0.00971
C 29.53667 29.86831 0.0014
C 29.52282 28.44471 0.00924
C 30.72165 27.65091 0.02326
C 30.61956 26.28041 0.00261
C 29.29287 25.44593 0.03265
C 29.59358 24.15289 -0.02049
C 30.7586 23.44458 -0.01854
C 30.67923 21.97965 -0.01415
C 29.52885 21.26005 -0.03039
C 29.52843 7.01687 0.01518
C 29.58985 19.87084 0.01836
C 30.78469 17.81782 -0.00669
C 29.63473 17.01711 0.0101
C 29.45585 15.62023 0.01705
C 30.72812 14.92987 -0.0405
C 30.766 13.50356 -0.01303
C 29.4937 12.73007 -0.01461
C 29.47129 11.33313 -0.02155
C 30.72414 10.61763 -0.00944
C 30.74883 9.2917 -0.03735
C 30.70263 19.1654 0.03531
C 30.74833 30.56266 0.01324
C 31.9913 15.59754 0.00369
C 33.18746 13.51395 -0.00644
C 34.42798 21.3199 -0.02213
C 0.04261 19.90406 0.01951
C 1.24207 19.19621 -0.01678
C 1.26875 17.78386 0.01223
C 0.03695 17.04402 0.00648
C 0.03081 15.66783 0.02114
C 1.29769 14.8925 -0.02957
C 1.17492 13.43889 0.00343
C 34.3598 12.73954 -0.02656
C 1.21249 22.06995 0.02712
C 34.40416 11.40072 -0.02442
C 1.21905 9.20871 -0.00583
C 0.00548 8.50912 -0.02302
C 34.42471 7.10151 -0.02849
C 1.26412 6.41834 0.02931
C 1.14193 4.97422 0.00628
C 34.30378 4.29977 -0.0345
C 34.37425 2.88131 -0.00931
C 1.2146 2.19401 -0.00939
C 1.22624 0.67352 -0.00468
C 1.17314 10.63241 -0.00027
C 33.24374 14.9545 0.00455
C 1.2485 23.50761 0.00723
C 34.40733 25.59726 -0.05239
C 32.01146 12.75294 -0.01839
C 31.9493 11.26814 0.00137
C 33.17054 10.63722 0.00199
C 33.20577 9.22676 0.04381
C 32.02122 8.48579 0.02806
C 31.97037 7.12475 0.01504
C 33.21026 6.40031 -0.00069
C 33.10331 5.01166 0.04926
C 31.90296 4.26593 -0.03838
C 34.42782 24.14224 0.03076
C 31.92979 2.87233 0.00349
C 33.14998 0.71697 -0.00841
C 31.97518 0.02792 0.0001
C 34.3377 32.75726 -0.02927
C 1.10334 32.04394 -0.01404
C 1.16885 30.52945 0.01027
C 34.38669 29.82757 0.01831
C 34.41935 28.39841 -0.01037
C 1.26061 27.65262 -0.00439
C 1.20015 26.24086 -0.00598
C 33.12934 2.10464 -0.00323
C 3.60566 31.95385 -0.003
C 30.73872 31.94592 0.04266
C 27.02784 34.06163 -0.00416
C 19.63985 7.02652 0.03046
C 20.88636 6.33471 0.0296
C 20.87313 4.92677 0.03374
C 19.68524 4.20876 -0.02845
C 19.71301 2.76164 -0.03213
C 20.90651 2.07105 0.02239
C 20.92817 0.67011 0.01153
C 19.68079 34.05756 0.02734
C 22.22263 32.65409 -0.0055
C 19.6547 8.4467 -0.00381
C 23.41144 31.93993 0.01515
C 22.14505 29.79228 0.00071
C 22.05352 28.36995 -0.01107
C 23.27764 27.76973 -0.01586
C 22.15975 12.71671 -0.01971
C 22.18445 11.25952 -0.02118
C 23.29995 10.59205 0.00733
C 23.31372 9.16038 -0.00178
C 22.157 8.4291 0.00768
C 22.16596 7.05777 -0.0276
C 23.4117 30.45082 -0.00225
C 23.365 6.4054 0.03005
C 20.84491 9.17975 0.01852
C 19.63951 11.33309 -0.01185
C 17.25861 12.77555 -0.04076
C 17.26283 11.36394 -0.00652
C 18.43692 10.6398 0.0058
C 18.43844 9.16061 -0.00865
C 17.25754 8.42492 0.00675
C 17.21778 7.03455 -0.00311
C 18.41017 6.33009 0.00742
C 18.45544 4.86714 -0.01594
C 17.16631 4.16709 0.0106
C 20.9077 10.59785 0.01126
C 17.18052 2.78193 -0.01154
C 18.46754 0.69476 -0.02422
C 17.25115 0.01224 0.01277
C 19.63669 32.63116 0.00096
C 20.89449 32.01694 -0.01527
C 20.90044 30.52764 0.01087
C 19.6556 29.8203 0.00199
C 19.62222 28.26159 0.01511
C 20.7749 27.59146 -0.00478
C 19.60935 12.62289 -0.01662
C 18.45649 2.10324 -0.01721
C 29.47737 32.69356 0.01177
C 23.33532 4.9875 -0.04078
C 22.06611 2.79172 0.02737
C 28.29695 31.97948 0.00622
C 28.36534 30.61993 -0.02815
C 27.11395 29.9477 -0.00942
C 27.15649 28.51324 0.00487
C 28.36474 27.77184 0.00826
C 28.28837 26.39556 -0.00294
C 28.44488 14.73919 0.00152
C 28.248 13.44747 0.01257
C 27.03689 12.80687 0.02316
C 27.02097 32.64258 -0.0032
C 27.02018 11.39235 0.04185
C 28.22175 9.19596 -0.00621
C 27.09503 8.5592 0.02611
C 27.03434 7.17076 0.02198
C 28.21883 6.39462 0.01094
C 28.19094 4.96245 0.00235
C 26.93297 4.20042 0.01495
C 26.94933 2.8332 0.01259
C 28.20223 2.14037 0.01799
C 28.23685 0.77165 0.01699
C 28.28165 10.6502 0.00194
C 22.11616 4.25926 0.02117
C 24.59808 34.06743 -0.00037
C 25.74149 2.11826 -0.00218
C 23.30762 2.10708 -0.00498
C 23.31523 0.71063 0.00135
C 22.13963 34.05319 0.03102
C 24.60666 32.66507 0.02555
C 25.78155 31.99612 0.01423
C 25.81048 30.49059 -0.00285
C 24.65136 29.70978 -0.009
C 24.5413 28.17887 -0.01199
C 25.84172 27.88315 -0.00229
C 25.79234 0.68492 -0.01654
C 25.75918 13.27748 -0.00938
C 24.50759 11.31996 -0.01154
C 25.7212 10.67596 0.00684
C 25.8182 9.2233 -0.01052
C 24.6007 8.54245 -0.01679
C 24.53669 7.09392 0.00367
C 25.83024 6.42113 0.04306
C 25.7316 4.99324 0.00996
C 24.54046 4.30566 0.00195
C 24.48942 2.80731 -0.00802
C 24.44652 12.67808 -0.0264
C 2.38109 32.6829 0.00031
