400
Graphene
C 0.02818 0.00359 0.01295
C 12.3029 8.5609 0.00165
C 12.34109 7.15808 -0.02971
C 13.60116 6.41685 0.02894
C 13.56 5.0198 -0.01789
C 12.31135 4.30507 0.00444
C 12.28718 2.85528 -0.00925
C 13.46946 2.14701 0.01877
C 13.5244 0.7379 0.01363
C 12.2623 34.06159 -0.02162
C 14.74376 32.61577 0.00415
C 16.05708 31.85916 -0.0014
C 16.10171 30.41024 0.02162
C 14.84573 29.76389 0.0076
C 14.74241 28.3535 0.01241
C 15.98664 27.55876 -0.01454
C 16.01413 26.19131 0.01945
C 14.80792 25.53341 0.01416
C 14.70082 24.11545 0.03542
C 15.9827 23.33023 0.02299
C 15.917 21.94937 0.00244
C 14.74956 21.25915 -0.01717
C 13.50801 9.28718 0.02819
C 14.60505 11.26415 0.05265
C 13.39478 10.64412 -0.00891
C 13.53175 22.01699 -0.02689
C 11.17841 10.75326 0.02339
C 11.06209 9.32878 0.01641
C 9.87716 8.57971 -0.00719
C 9.83937 7.2332 0.01364
C 11.11081 6.50278 -0.01062
C 11.08642 5.0537 -0.00033
C 9.86536 4.36467 0.03589
C 9.89756 2.91301 -0.02759
C 11.08463 2.17592 0.0402
C 11.02652 0.77385 0.00572
C 9.81237 0.06273 0.03592
C 12.33632 32.65394 0.00406
C 13.59951 31.89465 0.00943
C 13.60059 30.49057 0.02841
C 12.32033 29.78714 -0.01111
C 12.23593 28.39968 -0.01275
C 13.51428 27.64151 0.00985
C 13.53326 26.19098 -0.02245
C 12.1948 25.60545 -0.00428
C 12.25701 24.17303 0.03101
C 13.51141 23.4267 -0.01536
C 12.19426 21.58706 -0.01046
C 9.71277 21.22515 -0.00334
C 15.85348 10.80415 -0.01952
C 14.77297 8.5555 0.00374
C 17.28379 12.80502 -0.05302
C 17.1431 11.44167 0.00213
C 18.46524 10.74356 -0.00066
C 18.42753 9.30583 -0.00289
C 17.23251 8.5257 0.00028
C 17.20327 7.08393 -0.02213
C 18.42592 6.42313 0.03698
C 18.47574 4.95272 -0.00109
C 17.23291 4.25345 -0.00491
C 17.16501 2.82891 0.03338
C 18.41856 2.1296 -0.0258
C 18.41239 0.69805 -0.0331
C 17.13923 0.03251 -0.00316
C 19.62866 32.76517 0.02188
C 20.7933 32.00186 -0.01979
C 19.58943 24.10554 0.02691
C 20.91282 23.69751 -0.01581
C 20.86567 22.12107 0.01452
C 19.66602 21.33117 0.04892
C 19.72535 19.92677 -0.00111
C 20.90136 19.17894 -0.03557
C 18.43337 13.52308 -0.04147
C 15.96681 9.33636 -0.02813
C 18.44902 14.87229 -0.02815
C 17.38274 16.96731 0.01443
C 14.79173 7.12869 0.00052
C 16.01629 6.3604 -0.03682
C 16.03164 4.94894 0.01965
C 14.7867 4.22614 0.02058
C 14.70882 2.80924 -0.01957
C 15.93254 2.0978 -0.0108
C 15.95257 0.68169 -0.00368
C 14.72223 34.0022 -0.02696
C 17.19815 32.6389 -0.00114
C 18.42949 32.02842 0.00228
C 18.50991 30.59814 0.00798
C 17.50248 29.67979 0.00422
C 17.11163 28.30765 0.0351
C 17.20243 25.40279 -0.03113
C 17.0804 24.06075 0.02098
C 18.38151 23.3533 0.01848
C 18.37919 21.98529 -0.00619
C 17.19141 21.23741 -0.02162
C 17.25224 19.81591 0.00889
C 18.49759 19.25305 -0.00481
C 18.48224 17.83542 0.00979
C 17.30187 15.69979 0.03505
C 20.94804 17.80212 0.03754
C 10.96706 21.8448 -0.01634
C 9.82175 24.21842 0.00093
C 2.37039 4.31838 0.00402
C 2.4329 2.87902 0.0073
C 3.66305 2.19901 0.0174
C 3.61596 0.77407 0.03828
C 2.42613 0.05516 0.01226
C 4.87919 32.68181 -0.00279
C 6.15484 31.99944 0.01996
C 6.10417 30.56687 -0.03996
C 4.87726 29.83918 0.01465
C 4.83429 28.41905 -0.00074
C 6.0428 27.73269 -0.00518
C 6.03342 26.30345 0.0086
C 4.85449 25.54658 -0.00643
C 4.88654 24.18068 0.017
C 6.133 23.44581 -0.03113
C 6.16264 22.04731 -0.02566
C 4.94866 21.19707 -0.00094
C 4.94397 19.77081 0.02322
C 6.35596 19.03305 -0.00725
C 5.99809 17.70111 -0.05697
C 4.79722 17.08836 0.01087
C 3.63362 5.03346 0.02374
C 4.86443 15.6002 -0.01343
C 3.70418 6.42348 0.03267
C 2.40089 8.54873 0.00643
C 3.60044 30.53925 0.0064
C 2.42175 29.8702 0.00211
C 2.38053 28.41936 -0.00449
C 3.6579 27.72839 -0.01979
C 3.65065 26.31113 0.02784
C 2.44088 25.57269 -0.01977
C 2.47191 24.16071 -0.00561
C 3.68181 23.37991 0.00208
C 3.69322 21.95092 0.01707
C 2.4657 21.25789 0.02769
C 2.45801 19.8097 -0.03291
C 3.6897 19.22133 -0.04999
C 3.5998 17.79857 0.04505
C 2.38146 17.04599 0.03284
C 2.39633 15.66721 -0.04307
C 3.59454 14.93651 0.03189
C 3.67761 13.53284 0.00031
C 2.41709 12.76338 -0.003
C 2.42262 11.33783 0.01402
C 3.68283 10.68616 0.02379
C 3.63155 9.28306 0.00907
C 2.46939 7.16301 -0.01509
C 11.01605 23.51025 0.00057
C 6.10928 15.03292 0.00988
C 4.95561 12.82346 0.01305
C 7.17999 12.63219 -0.0008
C 7.48659 11.277 0.0288
C 8.7665 10.62738 0.00393
C 8.6166 9.24094 0.00895
C 7.35534 8.621 0.00685
C 7.33617 7.18088 0.02888
C 8.61007 6.49949 -0.00482
C 8.59944 5.04657 -0.01384
C 7.41462 4.35632 0.03693
C 7.35379 2.89179 0.01745
C 8.63891 2.23596 0.00488
C 8.62014 0.76441 -0.01004
C 7.37853 0.1034 -0.02896
C 9.80859 32.70241 -0.00131
C 11.10265 31.94949 -0.01118
C 11.04145 30.5313 -0.014
C 9.78657 29.92089 0.02147
C 9.78277 28.49566 0.00373
C 10.97254 27.72658 -0.00191
C 11.04016 26.27367 0.00438
C 9.78489 25.63727 0.01291
C 7.50249 19.92425 -0.01362
C 6.1786 13.6252 0.0276
C 7.37351 21.32226 -0.00892
C 8.53762 23.51593 0.01572
C 4.92496 11.38369 -0.00077
C 6.1492 10.66423 0.03368
C 6.14503 9.26137 -0.02929
C 4.90728 8.59336 -0.00966
C 4.91053 7.13501 -0.03337
C 6.14623 6.40814 0.01227
C 6.14834 5.03654 0.00873
C 4.84666 4.28988 -0.00049
C 4.86593 2.9312 0.00848
C 6.11624 2.18078 -0.01303
C 6.11946 0.76576 -0.01378
C 4.8587 34.06653 0.02635
C 7.38181 32.7122 0.0127
C 8.558 32.00652 0.01396
C 8.54339 30.62085 0.01849
C 7.34048 29.91288 -0.01142
C 7.23094 28.44092 -0.00562
C 8.55066 27.74803 -0.00494
C 8.61589 26.33564 0.00054
C 7.29846 25.63733 0.03007
C 7.32885 24.18863 -0.00095
C 8.53946 22.06897 -0.04848
C 19.69681 17.06693 0.01739
C 19.58795 15.64049 0.00755
C 20.89214 14.97776 -0.0054
C 29.46183 7.04669 0.01518
C 30.66991 6.3586 0.01908
C 30.69085 4.91864 0.07705
C 29.42967 4.1843 0.0103
C 29.52925 2.82204 0.02108
C 30.70904 2.07183 0.00716
C 30.78377 0.68873 0.00307
C 29.55511 34.0774 0.00346
C 32.02846 32.60724 0.01713
C 33.32628 31.91291 -0.01694
C 33.27034 30.52971 0.01428
C 32.06102 29.76964 -0.02142
C 31.9391 28.33011 0.0544
C 33.14031 27.66602 0.00026
C 33.18108 26.21871 0.00682
C 31.96573 25.53076 -0.01779
C 31.97653 24.1394 0.03794
C 33.21086 23.39098 0.01927
C 33.24382 22.00229 0.01574
C 31.99255 21.3627 -0.02383
C 31.96123 19.90321 -0.01429
C 29.45782 8.46811 -0.00971
C 33.15028 19.15626 -0.0136
C 30.68759 9.26664 -0.03735
C 29.50476 11.41046 -0.02155
C 27.14973 0.0175 -0.00416
C 29.50842 32.67495 0.01177
C 30.81839 31.91533 0.04266
C 30.78546 30.51664 0.01324
C 29.56039 29.78163 0.0014
C 29.4777 28.36896 0.00924
C 30.71496 27.64182 0.02326
C 30.68116 26.23701 0.00261
C 29.44299 25.59356 0.03265
C 29.44044 24.16502 -0.02049
C 30.6641 23.45732 -0.01854
C 30.64172 21.99901 -0.01415
C 29.41428 21.34618 -0.03039
C 29.46315 19.88038 0.01836
C 30.68424 19.20688 0.03531
C 30.7132 17.76515 -0.00669
C 29.4862 17.10855 0.0101
C 29.4043 15.64392 0.01705
C 30.68396 14.9597 -0.0405
C 30.69302 13.48923 -0.01303
C 29.45372 12.79794 -0.01461
C 30.6887 10.58606 -0.00944
C 28.35506 0.71413 0.01699
C 33.12033 17.75531 0.00594
C 31.88151 15.66694 0.00369
C 1.26486 22.02713 0.02712
C 0.00478 21.36599 -0.02213
C 0.03321 19.9086 0.01951
C 1.24274 19.15535 -0.01678
C 1.16464 17.74011 0.01223
C 34.36904 17.01556 0.00648
C 34.38867 15.66684 0.02114
C 1.19667 14.89252 -0.02957
C 1.17961 13.48651 0.00343
C 34.38205 12.70736 -0.02656
C 34.40337 11.35471 -0.02442
C 1.22839 10.68692 -0.00027
C 1.19167 9.2346 -0.00583
C 34.40414 8.47804 -0.02302
C 34.3846 7.08413 -0.02849
C 1.22086 6.45513 0.02931
C 1.14047 5.06925 0.00628
C 34.37125 4.3362 -0.0345
C 34.39241 2.92975 -0.00931
C 1.19744 2.21361 -0.00939
C 1.18595 0.76077 -0.00468
C 1.26415 23.43835 0.00723
C 31.90765 17.11076 -0.02474
C 0.00238 24.0588 0.03076
C 1.24487 26.20259 -0.00598
C 33.15415 14.98553 0.00455
C 33.16817 13.50994 -0.00644
C 31.90081 12.75593 -0.01839
C 31.90555 11.31335 0.00137
C 33.14525 10.66663 0.00199
C 33.14336 9.25947 0.04381
C 31.92789 8.48563 0.02806
C 31.87656 7.08423 0.01504
C 33.13477 6.39307 -0.00069
C 33.10947 4.98007 0.04926
C 31.9126 4.23957 -0.03838
C 31.94848 2.8467 0.00349
C 33.18661 2.15136 -0.00323
C 33.22386 0.72911 -0.00841
C 32.01325 34.07632 0.0001
C 0.04134 32.65138 -0.02927
C 1.26199 31.98181 -0.01404
C 1.17053 30.54925 0.01027
C 34.42715 29.79135 0.01831
C 34.33155 28.3981 -0.01037
C 1.17404 27.65543 -0.00439
C 34.40583 25.50909 -0.05239
C 28.30352 2.09922 0.01799
C 27.07816 2.81594 0.01259
C 26.98598 4.22034 0.01495
C 23.34526 14.92286 0.00199
C 23.37025 13.48028 0.01511
C 22.14781 12.77601 -0.00478
C 22.09474 11.28712 -0.01662
C 23.31257 10.60323 -0.01185
C 23.39782 9.20957 0.01126
C 22.10211 8.51595 0.01852
C 22.14873 7.09046 -0.00381
C 23.3803 6.39357 0.03046
C 23.40562 4.98218 0.0296
C 22.1511 4.28133 0.03374
C 22.16231 2.85474 -0.02845
C 23.35398 2.01125 -0.03213
C 23.35659 0.66467 0.02239
C 22.15274 33.97672 0.01153
C 24.66308 32.59608 0.02734
C 25.9534 31.90675 -0.0055
C 25.90327 30.52589 0.01515
C 25.77309 27.79154 -0.00225
C 25.56195 26.4108 0.00071
C 24.40579 25.48415 -0.01107
C 22.1741 15.63926 0.01087
C 24.56547 24.04892 -0.01586
C 22.12813 17.1067 -0.01527
C 23.35435 19.22297 0.01277
C 20.91495 13.50695 0.00667
C 19.66106 12.829 0.00143
C 19.71715 11.38747 -0.017
C 20.88262 10.64813 0.00364
C 20.88276 9.20916 -0.00831
C 19.62121 8.51475 -0.02957
C 19.71988 7.09034 -0.04422
C 20.93511 6.35426 0.00654
C 20.89345 4.88414 -0.00703
C 19.68761 4.23021 -0.04076
C 19.69674 2.84113 -0.00652
C 20.90262 2.12045 0.0058
C 20.89225 0.67016 -0.00865
C 19.64596 0.04107 0.00675
C 22.11798 32.46334 -0.00311
C 23.47345 32.0687 0.00742
C 22.16908 24.12515 -0.01594
C 23.32538 23.35646 0.0106
C 23.31508 22.00864 -0.01154
C 22.07018 21.3597 -0.01721
C 22.06456 19.94124 -0.02422
C 23.343 17.75656 0.00096
C 25.80303 23.40187 -0.01971
C 25.8044 21.98596 -0.02118
C 24.57446 21.32049 0.00733
C 28.20507 26.22623 -0.00802
C 26.92986 25.58293 -0.00218
C 27.01009 24.12284 -0.01654
C 28.23987 23.46093 -0.00037
C 28.20795 22.07384 -0.0032
C 26.97457 21.29742 0.00622
C 27.04894 19.84857 -0.02815
C 28.26432 19.20713 -0.00942
C 28.26772 17.77006 0.00487
C 27.0605 16.99487 0.00826
C 26.98624 15.55942 -0.00294
C 28.23011 14.8843 0.00152
C 28.27265 13.54672 0.01257
C 27.00336 12.77164 0.02316
C 27.05362 11.41375 0.04185
C 28.27107 10.63476 0.00194
C 28.20695 9.17941 -0.00621
C 27.00051 8.5178 0.02611
C 26.99928 7.13942 0.02198
C 28.21639 6.38463 0.01094
C 28.26081 4.95581 0.00235
C 28.27184 27.61456 0.00195
C 27.09324 28.36058 0.00996
C 27.17052 29.79934 0.04306
C 28.33062 30.50603 0.00367
C 24.60541 19.86118 -0.00178
C 25.76823 19.14971 0.00768
C 25.82839 17.69645 -0.0276
C 24.53522 17.01539 0.03005
C 24.60207 15.52048 -0.04078
C 25.78016 14.80832 0.02117
C 25.76816 13.42024 0.02737
C 24.57635 12.71868 -0.00498
C 24.54064 11.30369 0.00135
C 25.85853 10.60891 0.03102
C 3.66001 31.98707 -0.00039
C 25.75811 9.20663 0.02555
C 24.56518 7.14727 -0.00285
C 25.76719 6.50364 -0.009
C 25.82784 4.99607 -0.01199
C 24.54683 4.2232 -0.00229
C 24.63568 2.7426 -0.00938
C 25.86088 2.11698 -0.0264
C 25.86995 0.72469 -0.01154
C 24.6395 34.05045 0.00684
C 27.13698 32.61062 -0.01052
C 28.3883 31.9049 -0.01679
C 24.58619 8.5439 0.01423
C 2.45712 32.68711 0.02728
