366
Graphene
C 34.368 0.04555 0.01295
C 17.09445 28.4353 0.00374
C 18.32949 27.66281 0.00052
C 18.34376 26.27178 -0.03682
C 17.08262 25.60091 0.01965
C 17.04648 24.13862 0.02058
C 18.32104 23.50794 -0.01957
C 18.45857 22.1291 -0.0108
C 17.26868 21.41386 -0.00368
C 17.129 29.86985 -0.02813
C 17.23231 19.99778 -0.02696
C 18.4332 17.74448 0.00228
C 17.2217 17.12535 0.00798
C 17.30306 15.60952 0.00422
C 18.38135 14.808 0.0351
C 18.31272 13.34178 -0.03113
C 17.04369 12.65211 0.02098
C 17.20517 11.30058 0.01848
C 18.43608 10.61996 -0.00619
C 18.44654 19.28362 -0.00114
C 18.39214 30.5091 -0.01952
C 18.41265 31.88448 0.05265
C 17.12674 32.56687 -0.01717
C 14.60594 25.54958 -0.02971
C 14.5369 24.10688 0.02894
C 15.80399 23.42284 -0.01789
C 15.97048 22.02269 0.00444
C 14.75937 21.27906 -0.00925
C 14.71965 19.86281 0.01877
C 15.99412 19.25163 0.01363
C 15.93141 17.87848 -0.02162
C 14.76856 17.13445 0.00415
C 14.76387 15.70321 -0.0014
C 16.00553 14.9121 0.02162
C 15.87284 13.49348 0.0076
C 16.07816 6.30179 0.01241
C 15.95155 4.82907 -0.01454
C 14.66516 4.12458 0.01945
C 14.80038 2.76605 0.01416
C 16.08233 2.06111 0.03542
C 15.99822 0.61374 0.02299
C 14.79019 0.00255 0.00244
C 18.47602 9.25872 -0.02162
C 17.21359 8.62882 0.00889
C 17.18106 7.07939 -0.00481
C 18.49524 6.34597 0.00979
C 20.82314 14.82952 -0.00111
C 20.87694 13.42199 -0.03557
C 19.57662 12.73179 0.03754
C 19.62914 11.34913 0.01739
C 20.89687 10.63185 0.00755
C 20.95443 9.15987 -0.0054
C 19.73131 8.47157 0.00667
C 19.74495 7.03795 0.00143
C 20.9454 6.35766 -0.017
C 20.93994 4.97945 0.00364
C 19.64996 4.18908 -0.00831
C 19.69784 2.78703 -0.02957
C 20.95289 2.02537 -0.04422
C 20.86883 0.5831 0.00654
C 19.63105 34.05286 -0.00703
C 22.09092 32.6276 -0.04076
C 23.26987 31.9081 -0.00652
C 23.27532 30.48075 0.0058
C 22.05895 29.81858 -0.00865
C 19.63067 15.46659 0.04892
C 15.87423 26.26413 0.00165
C 19.68949 16.91217 0.01452
C 20.90249 19.1095 0.02691
C 18.43005 4.9132 0.01443
C 17.24342 4.15385 0.03505
C 17.21071 2.77329 -0.02815
C 18.40211 2.04651 -0.04147
C 18.42357 0.61915 -0.05302
C 17.20977 33.99417 0.00213
C 19.63639 32.63762 -0.00066
C 20.84149 31.89778 -0.00289
C 20.85556 30.52731 0.00028
C 19.60912 29.81116 -0.02213
C 19.54912 28.36454 0.03698
C 20.77701 27.64374 -0.00109
C 20.88396 26.20174 -0.00491
C 19.60471 25.53786 0.03338
C 19.61085 24.14433 -0.0258
C 20.81462 23.43893 -0.0331
C 20.89402 21.96654 -0.00316
C 19.58769 21.27428 0.02188
C 19.63427 19.89033 -0.01979
C 20.8612 17.72142 -0.01581
C 15.91947 27.76512 0.02819
C 14.67409 28.49383 -0.00891
C 14.67021 29.89914 -0.01046
C 4.87549 29.82741 -0.00049
C 4.79121 28.41376 0.00848
C 5.97992 27.61593 -0.01303
C 6.19056 26.21785 -0.01378
C 4.80102 12.51476 0.02635
C 5.04365 11.16988 0.0127
C 5.84591 9.85871 0.01396
C 4.9825 8.98939 0.01849
C 5.11514 7.47246 -0.01142
C 6.07745 6.47059 -0.00562
C 6.37739 5.15838 -0.00494
C 5.01161 4.44507 0.00054
C 4.92425 3.03578 0.03007
C 6.11517 2.22915 -0.00095
C 6.09352 0.83701 0.01572
C 4.86738 0.0554 -0.04848
C 7.31542 32.83299 -0.00892
C 8.60649 32.13045 -0.01362
C 8.65764 30.58539 -0.0008
C 6.09023 30.5916 0.00873
C 7.35834 29.9642 0.0288
C 6.12204 32.08069 0.01227
C 2.39563 0.04469 -0.00966
C 3.62493 30.58332 -0.00074
C 2.38872 29.8522 -0.00518
C 2.40601 28.49957 0.0086
C 3.58777 27.67184 -0.00643
C 3.55949 26.14966 0.017
C 2.34055 25.37939 -0.03113
C 3.73815 13.48156 -0.02566
C 2.44484 12.86972 -0.00094
C 2.38034 11.45242 0.02322
C 3.66061 10.82389 -0.00725
C 3.55893 9.41337 -0.05697
C 2.49702 8.62776 0.01087
C 2.41555 7.20361 -0.01343
C 3.77203 6.56011 0.00988
C 3.82673 5.11389 0.0276
C 2.51935 4.39124 0.01305
C 2.4317 2.97099 -0.00077
C 3.63795 2.2188 0.03368
C 3.58118 0.85898 -0.02929
C 4.83469 32.77067 -0.03337
C 22.05599 28.3542 0.00675
C 7.26052 28.4506 0.00393
C 8.54907 26.4592 0.00685
C 12.23986 28.451 0.01364
C 13.43367 27.67807 -0.01062
C 13.42225 26.26504 -0.00033
C 12.15771 25.60473 0.03589
C 12.15598 24.179 -0.02759
C 13.33308 23.39207 0.0402
C 13.54589 21.91934 0.00572
C 13.5132 19.20971 0.03592
C 13.40722 17.72648 0.00406
C 12.54287 16.79184 0.00943
C 12.24484 15.4476 0.02841
C 13.65342 15.05308 -0.01111
C 12.4376 2.92113 -0.01275
C 13.57718 2.11097 0.00985
C 13.54376 0.61332 -0.02245
C 12.25091 0.05095 -0.00428
C 14.6984 32.67224 0.03101
C 15.86801 31.93977 -0.01536
C 15.92237 30.49802 -0.02689
C 12.2404 29.87378 -0.00719
C 8.46539 27.82797 0.00895
C 13.5033 30.60138 0.01641
C 12.18882 32.72959 -0.00334
C 7.59623 4.37401 0.02888
C 7.33058 2.90279 -0.00482
C 8.58828 2.19689 -0.01384
C 8.56618 0.8453 0.03693
C 7.34682 0.14087 0.01745
C 9.85655 32.83748 0.00488
C 10.98997 32.05223 -0.01004
C 11.02546 30.58247 -0.02896
C 9.78768 29.84804 -0.00131
C 9.71344 28.52074 -0.01118
C 11.01873 27.77886 -0.014
C 10.9412 26.348 0.02147
C 9.66388 25.73436 0.00373
C 11.02472 14.83291 -0.00191
C 8.84513 4.50672 0.00438
C 9.64454 3.22512 0.01291
C 11.04721 2.49071 0.00093
C 11.07092 0.94511 0.00057
C 9.84212 0.13433 -0.01634
C 13.42506 32.02841 0.02339
C 23.27201 27.67101 -0.00311
C 23.27943 26.23082 0.00742
C 22.0573 25.47832 -0.01594
C 29.4471 4.18574 0.00307
C 29.49197 2.84955 0.00346
C 30.68686 2.1822 0.01713
C 30.62205 0.80037 -0.01694
C 29.35639 0.05315 0.01428
C 31.91574 32.67663 -0.02142
C 33.18291 31.97361 0.0544
C 33.13877 30.52474 0.00026
C 31.93695 29.85091 0.00682
C 31.89556 28.41101 -0.01779
C 33.17448 27.72643 0.03794
C 33.15801 26.31978 0.01927
C 31.93779 25.60688 0.01574
C 32.02176 24.12769 -0.02383
C 33.30904 23.46691 -0.01429
C 33.29656 22.0266 -0.0136
C 32.00777 21.24961 0.00594
C 32.06992 19.84486 -0.02474
C 33.27272 19.15126 0.00369
C 30.70209 4.97371 0.00716
C 33.22415 17.71489 0.00455
C 30.70601 6.43002 0.02108
C 29.51705 8.59699 0.07705
C 29.43709 28.37487 0.03265
C 30.70304 27.7276 -0.02049
C 30.69128 26.25083 -0.01854
C 29.42943 25.49697 -0.01415
C 29.57531 24.06674 -0.03039
C 30.86289 23.43292 0.01836
C 30.76747 22.04233 0.03531
C 29.43859 21.32041 -0.00669
C 29.56631 19.9269 0.0101
C 30.76215 19.20161 0.01705
C 30.71958 17.76846 -0.0405
C 29.55609 16.97761 -0.01303
C 29.53039 15.55356 -0.01461
C 30.80536 14.88199 -0.02155
C 30.68196 13.55296 -0.00944
C 29.55696 12.80381 -0.03735
C 29.5654 11.33873 -0.00971
C 30.76528 10.69529 0.01518
C 30.80787 9.19763 0.01908
C 29.52861 7.12355 0.0103
C 29.44135 29.8404 0.00261
C 31.89706 17.02404 -0.00644
C 33.304 14.92848 0.00137
C 1.6557 24.19102 0.01951
C 34.41184 21.25548 -0.01678
C 34.40007 19.85015 0.01223
C 34.36402 17.12466 0.00648
C 0.09705 15.71365 0.02114
C 1.19948 14.92846 -0.02957
C 1.12344 13.53171 0.00343
C 34.39674 12.81986 -0.02656
C 34.43144 11.34764 -0.02442
C 1.22094 10.69496 -0.00027
C 1.15971 9.31144 -0.00583
C 0.01196 8.57522 -0.02302
C 0.01979 7.12606 -0.02849
C 1.29539 6.46143 0.02931
C 1.23211 5.04107 0.00628
C 34.39573 4.32872 -0.0345
C 34.3794 2.87257 -0.00931
C 1.15868 2.09659 -0.00939
C 1.12705 0.75565 -0.00468
C 0.16806 24.26221 -0.02213
C 32.07539 15.63819 -0.01839
C 34.41908 25.69827 0.02712
C 1.21521 27.71507 0.03076
C 33.20209 13.51425 0.00199
C 32.02285 12.81091 0.04381
C 31.99086 11.35712 0.02806
C 33.23626 10.67482 0.01504
C 33.19147 9.22347 -0.00069
C 31.97412 8.5431 0.04926
C 31.9348 7.09913 -0.03838
C 33.1415 6.44175 0.00349
C 33.13469 5.02787 -0.00323
C 31.88838 4.27635 -0.00841
C 31.916 2.896 0.0001
C 33.15124 2.17994 -0.02927
C 33.10152 0.74562 -0.01404
C 31.81571 0.0889 0.01027
C 34.40891 32.68541 0.01831
C 1.23093 31.91601 -0.01037
C 1.19985 30.58462 -0.00439
C 34.378 29.82745 -0.00598
C 34.39885 28.3958 -0.05239
C 1.21664 26.31302 0.00723
C 3.62848 32.0107 0.01465
C 30.64434 30.51729 0.02326
C 29.38048 32.67109 0.0014
C 22.11529 34.06267 0.02734
C 24.62778 32.6042 -0.0055
C 25.79671 31.87423 0.01515
C 25.73465 30.39698 -0.00225
C 24.50462 29.73163 0.00071
C 24.52042 28.34444 -0.01107
C 25.75557 27.62985 -0.01586
C 25.72711 26.2086 -0.01971
C 24.50584 25.51945 -0.02118
C 24.57125 24.07016 0.00733
C 25.76784 23.35933 -0.00178
C 25.81005 21.9152 0.00768
C 24.50231 21.26422 -0.0276
C 24.58101 19.79211 0.03005
C 25.82495 19.12532 -0.04078
C 25.8153 17.68164 0.02117
C 24.59809 16.9778 0.02737
C 24.58541 15.59866 -0.00498
C 25.78044 14.91161 0.00135
C 23.31585 0.71394 0.01153
C 25.78011 13.48869 0.03102
C 23.38103 2.10762 0.02239
C 22.1211 4.23599 -0.02845
C 22.06431 24.07231 0.0106
C 23.29602 23.35595 -0.01154
C 23.31713 22.00615 -0.01721
C 22.08858 21.33944 -0.02422
C 22.09773 19.89259 0.01277
C 23.32472 19.17963 0.00096
C 23.39777 17.72073 -0.01527
C 22.15951 16.90927 0.01087
C 22.15131 15.51426 0.00199
C 23.37667 14.88209 0.01511
C 23.34095 13.46083 -0.00478
C 22.09975 12.74339 -0.01662
C 22.07859 11.32909 -0.01185
C 23.31064 10.71804 0.01126
C 23.36838 9.27879 0.01852
C 22.18147 8.59778 -0.00381
C 22.15702 7.13907 0.03046
C 23.44759 6.35118 0.0296
C 23.33031 4.97014 0.03374
C 22.13463 2.84778 -0.03213
C 30.66975 32.00469 0.00924
C 24.54581 12.83026 0.02555
C 25.74434 10.59135 -0.00285
C 28.32713 19.16597 -0.00294
C 28.27104 17.73958 0.00152
C 27.04606 17.0374 0.01257
C 27.08659 15.6065 0.02316
C 28.27999 14.87356 0.04185
C 28.24628 13.43092 0.00194
C 26.99701 12.77978 -0.00621
C 27.014 11.32953 0.02611
C 28.27189 10.67222 0.02198
C 28.28547 9.21832 0.01094
C 27.03778 8.46876 0.00235
C 27.03363 7.04617 0.01495
C 28.25128 6.40045 0.01259
C 28.29037 4.94148 0.01799
C 27.0561 4.26587 0.01699
C 27.0397 2.82013 -0.00416
C 28.26633 2.06717 0.01177
C 28.17067 0.67464 0.04266
C 27.00395 34.01977 0.01324
C 27.01632 19.79767 0.00826
C 24.52074 11.42215 0.01423
C 27.02515 21.25118 0.00487
C 28.31502 23.40351 -0.02815
C 25.77988 9.13475 -0.009
C 24.60783 8.54739 -0.01199
C 24.59607 7.09827 -0.00229
C 25.88288 6.35306 -0.00938
C 25.78541 4.9847 -0.0264
C 24.59223 4.2281 -0.01154
C 24.63415 2.8559 0.00684
C 25.79991 2.15173 -0.01052
C 25.80935 0.66041 -0.01679
C 24.58454 34.03061 0.00367
C 26.8899 32.62389 0.04306
C 28.15725 32.01839 0.00996
C 28.15465 30.57112 0.00195
C 26.97784 29.72929 -0.00802
C 26.96984 28.25901 -0.00218
C 28.2503 27.53404 -0.01654
C 28.11827 26.1767 -0.00037
C 26.89391 25.46473 -0.0032
C 26.98615 24.07053 0.00622
C 28.24133 22.00641 -0.00942
C 2.39952 32.7327 -0.03996
