374
Graphene
C 34.37298 0.02155 0.01295
C 11.89408 21.23709 0.02299
C 12.35302 19.94563 0.00244
C 13.37083 19.40919 -0.01717
C 13.84445 10.56188 0.05265
C 13.58127 9.26832 -0.01952
C 12.39952 8.61857 -0.02813
C 13.49966 0.53501 0.00374
C 12.2816 34.01594 0.00052
C 14.77225 32.77599 -0.03682
C 15.99979 31.97791 0.01965
C 16.02144 30.46298 0.02058
C 14.74921 29.7538 -0.01957
C 14.7362 28.38903 -0.0108
C 15.98544 27.62145 -0.00368
C 15.88005 26.16959 -0.02696
C 14.68578 25.44589 -0.00114
C 14.71142 24.0586 0.00228
C 15.94361 23.36051 0.00798
C 15.94726 21.94848 0.00422
C 13.34742 21.93489 0.03542
C 14.68845 21.2669 0.0351
C 13.44293 23.35557 0.01416
C 12.25518 25.51909 -0.01454
C 10.6913 22.09349 -0.01536
C 10.04006 11.3469 -0.02689
C 11.07108 10.66231 -0.01046
C 11.24939 9.24799 -0.00891
C 9.98621 8.6175 0.02819
C 9.89805 7.14645 0.00165
C 11.0268 6.26196 -0.02971
C 9.90078 4.4598 0.02894
C 9.90965 3.03532 -0.01789
C 11.06969 2.09468 0.00444
C 11.01417 0.71047 -0.00925
C 9.78574 34.06203 0.01877
C 12.28135 32.60219 0.01363
C 13.52815 31.88467 -0.02162
C 13.51895 30.46612 0.00415
C 12.32589 29.72683 -0.0014
C 12.30688 28.35631 0.02162
C 13.51951 27.61271 0.0076
C 13.48334 26.23517 0.01241
C 12.19465 24.10969 0.01945
C 14.81867 19.86651 -0.03113
C 15.93021 19.21898 0.02098
C 15.87576 17.76128 0.01848
C 18.30316 14.86416 0.02691
C 18.43324 13.45377 -0.01581
C 17.30259 12.68255 0.01452
C 17.29627 11.28243 0.04892
C 18.56015 10.45423 -0.00111
C 18.25882 9.1366 -0.03557
C 17.06502 8.55411 0.03754
C 18.55805 6.388 0.01739
C 18.66961 2.11816 0.00755
C 18.54918 0.65922 -0.0054
C 17.28426 34.05702 0.00667
C 19.71428 32.57916 0.00143
C 20.88813 31.84323 -0.017
C 20.91019 30.45153 0.00364
C 19.68604 29.6853 -0.00831
C 19.68242 28.29202 -0.02957
C 20.86432 27.61064 -0.04422
C 20.87515 26.2348 0.00654
C 19.58066 25.53644 -0.00703
C 17.05378 15.59238 -0.01979
C 17.09272 17.05299 0.02188
C 18.32951 17.69482 -0.00316
C 18.38946 19.06811 -0.0331
C 15.93677 14.76842 -0.00619
C 16.09225 13.4342 -0.02162
C 14.84372 11.50193 0.00889
C 15.99504 10.70633 -0.00481
C 15.90509 9.29864 0.00979
C 16.09068 0.56331 0.01443
C 14.80284 0.1423 0.03505
C 17.27695 32.6364 -0.02815
C 18.4829 31.89254 -0.04147
C 10.93068 23.46698 0.03101
C 18.53819 30.48769 -0.05302
C 17.21796 28.37224 -0.00066
C 18.44117 27.61234 -0.00289
C 18.37568 26.20368 0.00028
C 17.14481 25.4693 -0.02213
C 17.14893 24.09542 0.03698
C 18.35675 23.41326 -0.00109
C 18.39779 22.0118 -0.00491
C 17.17446 21.30315 0.03338
C 17.22721 19.83 -0.0258
C 17.22986 29.78382 0.00213
C 9.77238 24.22952 -0.00428
C 9.76121 25.61351 -0.02245
C 11.02809 26.26114 0.00985
C 3.65309 5.04575 -0.00077
C 2.37012 4.35843 0.03368
C 2.43744 2.90511 -0.02929
C 3.613 2.24792 -0.00966
C 3.67675 0.78672 -0.03337
C 2.43383 0.08578 0.01227
C 4.82585 32.74145 0.00873
C 6.03187 32.03825 -0.00049
C 6.06304 30.59213 0.00848
C 4.84315 29.90381 -0.01303
C 4.8886 28.50902 -0.01378
C 6.09684 27.80021 0.02635
C 6.10004 26.33764 0.0127
C 4.88162 25.58713 0.01396
C 4.89332 24.19889 0.01849
C 6.14243 23.47449 -0.01142
C 6.2074 22.0029 -0.00562
C 4.98651 21.32727 -0.00494
C 4.91567 19.97217 0.00054
C 3.71608 6.46757 0.01305
C 2.46145 7.23148 0.0276
C 2.48517 8.59461 0.00988
C 3.73274 9.33083 -0.01343
C 3.59435 30.57872 0.0073
C 2.37124 29.94084 0.0174
C 2.3946 28.46068 0.03828
C 3.65582 27.66006 0.01226
C 3.59514 26.28193 -0.00279
C 2.41013 25.55013 0.01996
C 2.43815 24.1242 -0.03996
C 3.66107 23.43655 0.01465
C 3.68343 22.01854 -0.00074
C 4.71008 16.86881 0.03007
C 2.44894 21.31677 -0.00518
C 3.67177 19.209 -0.00643
C 3.6225 17.89938 0.017
C 2.46682 17.03393 -0.03113
C 2.46796 15.60651 -0.02566
C 3.69325 14.98317 -0.00094
C 3.66117 13.51915 0.02322
C 2.52899 12.8378 -0.00725
C 2.48658 11.42034 -0.05697
C 3.76426 10.79864 0.01087
C 2.44594 19.93148 0.0086
C 19.55735 24.14174 -0.04076
C 4.89367 15.64511 -0.00095
C 4.88202 12.87382 -0.04848
C 7.33933 12.91207 0.00057
C 7.55754 11.47499 -0.01634
C 8.78801 10.80135 -0.00334
C 8.77432 9.39474 0.02339
C 7.54574 8.62398 0.01641
C 7.39326 7.14862 -0.00719
C 8.54558 6.46802 0.01364
C 8.57681 5.07635 -0.01062
C 7.33159 4.32884 -0.00033
C 7.37652 2.90816 0.03589
C 8.73704 2.25716 -0.02759
C 8.58933 0.847 0.0402
C 7.32566 0.05967 0.00572
C 9.7862 32.69326 0.03592
C 11.0407 31.88369 0.00406
C 11.08077 30.48896 0.00943
C 9.82026 29.84549 0.02841
C 9.79516 28.42752 -0.01111
C 11.02832 27.70837 -0.01275
C 7.53076 21.5059 0.00093
C 8.72418 22.13603 0.01291
C 8.62607 23.48987 0.00438
C 7.31269 24.20808 -0.00191
C 5.06289 11.42466 -0.00892
C 6.2843 10.76591 -0.01362
C 6.24283 9.33733 -0.0008
C 4.98367 8.59708 0.0288
C 4.97721 7.21125 0.00393
C 6.1448 6.46414 0.00895
C 6.13239 5.06455 0.00685
C 4.85536 4.35361 0.02888
C 4.86479 2.99045 -0.00482
C 6.2092 13.4895 0.01572
C 6.08261 2.16277 -0.01384
C 4.87849 0.0595 0.01745
C 7.33784 32.69635 0.00488
C 8.59481 31.95127 -0.01004
C 8.5546 30.57028 -0.02896
C 7.32423 29.92202 -0.00131
C 7.32323 28.43951 -0.01118
C 8.52686 27.77291 -0.014
C 8.5522 26.34758 0.02147
C 7.34279 25.63303 0.00373
C 6.13833 0.79021 0.03693
C 20.81454 23.45306 -0.00652
C 20.82828 21.98128 0.0058
C 19.55082 21.26669 -0.00865
C 30.63862 2.15744 0.00716
C 30.78147 0.75359 0.00307
C 29.48295 0.01286 0.00346
C 31.94922 32.71005 0.01713
C 33.23459 32.00046 -0.01694
C 33.24945 30.58116 0.01428
C 31.98743 29.77755 -0.02142
C 31.97659 28.38857 0.0544
C 33.16377 27.69897 0.00026
C 33.18358 26.25889 0.00682
C 31.96098 25.55623 -0.01779
C 31.9743 24.15689 0.03794
C 33.18543 23.4026 0.01927
C 33.18156 21.96733 0.01574
C 31.92126 21.26076 -0.02383
C 31.97321 19.79925 -0.01429
C 33.14294 19.13244 -0.0136
C 33.1629 17.70146 0.00594
C 31.9184 17.01412 -0.02474
C 29.48132 2.88729 0.02108
C 29.46154 4.23982 0.0103
C 30.70753 4.9618 0.07705
C 30.71925 6.43008 0.01908
C 30.70374 27.6741 0.02326
C 30.73666 26.28791 0.00261
C 29.51586 25.5703 0.03265
C 29.53204 24.13426 -0.02049
C 30.70177 23.44756 -0.01854
C 30.65229 22.03823 -0.01415
C 29.45915 21.27302 -0.03039
C 29.50301 19.80164 0.01836
C 30.72298 19.11853 0.03531
C 31.93045 15.55827 0.00369
C 30.74873 17.74193 -0.00669
C 29.42756 15.60486 0.01705
C 30.70133 14.86021 -0.0405
C 30.67202 13.41293 -0.01303
C 29.41949 12.75148 -0.01461
C 29.39777 11.32191 -0.02155
C 30.68638 10.68089 -0.00944
C 30.7649 9.31326 -0.03735
C 29.49112 8.56918 -0.00971
C 29.53758 7.159 0.01518
C 29.47303 17.03214 0.0101
C 29.46178 28.36174 0.00924
C 33.19732 14.90822 0.00455
C 31.92174 12.82475 -0.01839
C 34.33594 19.94315 0.01951
C 1.15133 19.26836 -0.01678
C 1.22422 17.77264 0.01223
C 0.01092 17.06436 0.00648
C 34.39979 15.66971 0.02114
C 1.2469 14.99202 -0.02957
C 1.22387 13.57865 0.00343
C 34.43087 12.82479 -0.02656
C 0.06144 11.40932 -0.02442
C 1.2857 10.68779 -0.00027
C 1.27132 9.24497 -0.00583
C 0.05787 8.57224 -0.02302
C 0.00012 7.19136 -0.02849
C 1.19275 6.39708 0.02931
C 1.16721 5.02867 0.00628
C 34.40977 4.29995 -0.0345
C 34.41879 2.94185 -0.00931
C 1.19659 2.24533 -0.00939
C 1.19301 0.76465 -0.00468
C 34.41545 21.34128 -0.02213
C 1.21403 22.03441 0.02712
C 1.25127 23.39563 0.00723
C 34.41619 24.07785 0.03076
C 31.97097 11.35537 0.00137
C 33.24289 10.68375 0.00199
C 33.27067 9.25789 0.04381
C 32.02594 8.5239 0.02806
C 31.96635 7.1124 0.01504
C 33.19516 6.35787 -0.00069
C 33.15926 4.96267 0.04926
C 31.93034 4.2656 -0.03838
C 31.91731 2.83346 0.00349
C 33.18604 13.51338 -0.00644
C 33.17442 2.18433 -0.00323
C 31.9612 0.025 0.0001
C 34.42351 32.72836 -0.02927
C 1.17782 32.03793 -0.01404
C 1.14267 30.6266 0.01027
C 34.42839 29.82943 0.01831
C 34.39121 28.44998 -0.01037
C 1.19576 27.70409 -0.00439
C 1.21816 26.29705 -0.00598
C 0.00484 25.56759 -0.05239
C 33.13619 0.68899 -0.00841
C 3.60716 32.00722 0.00402
C 29.51176 29.76886 0.0014
C 30.74948 31.95095 0.04266
C 23.2801 21.93518 -0.03213
C 22.03712 21.24764 0.02239
C 22.07926 19.79202 0.01153
C 23.23525 19.12727 0.02734
C 23.20521 17.72767 -0.0055
C 22.01954 16.97107 0.01515
C 22.0696 15.47262 -0.00225
C 23.28949 14.70678 0.00071
C 23.3851 13.2765 -0.01107
C 22.09138 12.66208 -0.01586
C 23.46294 2.06288 -0.01971
C 23.41538 0.66822 -0.02118
C 22.20131 34.06428 0.00733
C 24.66427 32.6225 -0.00178
C 25.87018 31.9042 0.00768
C 25.86319 30.48821 -0.0276
C 24.63437 29.7825 0.03005
C 24.65011 28.36607 -0.04078
C 25.82657 27.65768 0.02117
C 23.29638 23.37508 -0.02845
C 22.05988 24.06725 0.03374
C 22.07995 25.54191 0.0296
C 23.30652 26.23434 0.03046
C 19.62387 19.82861 0.00675
C 20.77568 19.12762 -0.00311
C 20.79786 17.68688 0.00742
C 19.63969 16.96815 -0.01594
C 19.52166 15.56014 0.0106
C 20.80494 14.91511 -0.01154
C 20.89476 13.47842 -0.01721
C 19.60049 12.78827 -0.02422
C 19.6213 11.37013 0.01277
C 25.7584 26.22243 0.02737
C 19.14568 4.42107 0.00096
C 20.99733 2.11376 0.01087
C 20.99781 0.68755 0.00199
C 19.7283 34.01961 0.01511
C 22.16008 32.59079 -0.00478
C 23.42142 31.88438 -0.01662
C 23.37688 30.44125 -0.01185
C 22.14988 29.72268 0.01126
C 22.1169 28.34005 0.01852
C 23.37624 27.65424 -0.00381
C 19.80967 2.95339 -0.01527
C 30.80525 30.54008 0.01324
C 24.51598 25.56411 -0.00498
C 25.80548 23.33977 0.03102
C 27.01216 21.28488 0.00487
C 26.9841 19.89757 0.00826
C 28.22693 19.1341 -0.00294
C 28.24665 17.6989 0.00152
C 27.01151 17.08106 0.01257
C 26.90169 15.64934 0.02316
C 28.18063 14.93939 0.04185
C 28.23603 13.52547 0.00194
C 27.02087 12.85349 -0.00621
C 27.04371 11.4833 0.02611
C 28.10476 10.56624 0.02198
C 28.33679 9.20362 0.01094
C 28.41402 6.38117 0.00235
C 28.43629 5.06262 0.01495
C 27.00137 2.76233 0.01259
C 28.23374 2.14787 0.01799
C 28.27688 0.73321 0.01699
C 26.96264 34.06136 -0.00416
C 29.52613 32.71955 0.01177
C 28.23983 22.01117 -0.00942
C 28.2924 23.4057 -0.02815
C 27.01055 24.08696 0.00622
C 26.99451 25.56287 -0.0032
C 25.75125 21.92662 0.02555
C 24.55683 21.30189 0.01423
C 24.512 19.89679 -0.00285
C 25.74372 19.21418 -0.009
C 25.75188 17.74137 -0.01199
C 24.46725 16.99462 -0.00229
C 24.49252 15.52483 -0.00938
C 25.74872 14.95481 -0.0264
C 25.76381 13.58882 -0.01154
C 24.56106 24.08811 0.00135
C 24.65841 12.66374 0.00684
C 25.80517 0.72901 -0.01679
C 24.63218 34.073 0.00367
C 27.11201 32.69642 0.04306
C 28.26646 31.95503 0.00996
C 28.3135 30.51017 0.00195
C 27.11017 29.7546 -0.00802
C 27.0801 28.37087 -0.00218
C 28.23746 27.67812 -0.01654
C 28.29873 26.25807 -0.00037
C 25.75004 2.06172 -0.01052
C 2.37918 32.71835 0.02374
