423
Graphene
C 34.39274 34.00657 0.01295
C 13.20822 9.55455 0.03592
C 12.23019 8.56552 0.00406
C 12.05327 7.15298 0.00943
C 13.29369 6.43236 0.02841
C 13.36166 5.01025 -0.01111
C 12.19681 4.32451 -0.01275
C 12.25951 2.92416 0.00985
C 13.52843 2.16059 -0.02245
C 13.4227 0.78413 -0.00428
C 12.18811 0.15898 0.03101
C 13.44217 11.02454 0.00572
C 14.72569 32.64266 -0.01536
C 16.00756 30.47775 -0.01046
C 14.75819 29.83042 -0.00891
C 14.77076 28.39812 0.02819
C 15.9165 27.70773 0.00165
C 15.96004 26.32302 -0.02971
C 14.80074 25.603 0.02894
C 14.69797 24.24664 -0.01789
C 15.98942 23.45725 0.00444
C 15.89776 21.95893 -0.00925
C 14.63357 21.30717 0.01877
C 16.1496 31.83 -0.02689
C 12.52283 12.72375 0.0402
C 13.67849 13.49297 -0.02759
C 13.63534 14.88986 0.03589
C 10.92378 5.04945 0.03693
C 9.71514 4.30811 0.01745
C 9.82434 2.85127 0.00488
C 10.99145 2.17796 -0.01004
C 10.98029 0.75259 -0.02896
C 9.78819 0.06189 -0.00131
C 12.33353 32.77383 -0.01118
C 13.5706 31.90122 -0.014
C 13.51807 30.55212 0.02147
C 12.24619 29.8705 0.00373
C 12.28028 28.43589 -0.00191
C 13.49816 27.7301 0.00438
C 13.53043 26.32185 0.01291
C 12.28373 25.52753 0.00093
C 12.25029 24.18653 0.00057
C 13.57612 23.49772 -0.01634
C 13.47478 22.05772 -0.00334
C 12.20638 21.29366 0.02339
C 12.27885 19.83666 0.01641
C 13.56688 19.15367 -0.00719
C 13.62207 17.67857 0.01364
C 12.35434 17.04068 -0.01062
C 12.27242 15.65802 -0.00033
C 14.74323 19.91086 0.01363
C 10.80525 6.43831 -0.01384
C 15.96944 19.19462 -0.02162
C 14.84971 17.00235 -0.0014
C 18.41489 19.12126 -0.03113
C 18.44507 17.76264 0.02098
C 17.15455 16.96574 0.01848
C 17.31424 15.55394 -0.00619
C 18.53273 14.82219 -0.02162
C 18.90655 13.43628 0.00889
C 17.79136 12.52729 -0.00481
C 17.52759 10.95315 0.00979
C 18.18444 9.70071 0.01443
C 17.11944 8.7464 0.03505
C 17.1765 19.90984 0.0351
C 17.0492 7.22944 -0.02815
C 18.37275 5.0435 -0.05302
C 17.16939 4.27972 0.00213
C 17.22261 2.85521 -0.00066
C 18.41237 2.15158 -0.00289
C 18.44833 0.68365 0.00028
C 17.15839 0.03036 -0.02213
C 19.65744 28.35425 0.03698
C 20.85104 27.71271 -0.00109
C 20.87538 26.28233 -0.00491
C 19.653 25.52787 0.03338
C 18.34847 6.56733 -0.04147
C 17.14115 21.31668 0.00422
C 18.50196 22.00117 0.00798
C 18.39039 23.38437 0.00228
C 14.88127 15.55237 0.02162
C 16.17611 14.78445 0.0076
C 16.32857 13.33322 0.01241
C 15.03582 12.7963 -0.01454
C 14.89968 11.46927 0.01945
C 16.12699 10.6326 0.01416
C 15.87278 9.27631 0.03542
C 14.59165 8.65894 0.02299
C 14.53997 7.1393 0.00244
C 15.77002 6.47624 -0.01717
C 15.93849 5.05156 0.05265
C 14.64285 4.44534 -0.01952
C 14.71836 2.99294 -0.02813
C 15.91149 2.19467 0.00374
C 15.84605 0.67179 0.00052
C 14.71228 34.03386 -0.03682
C 17.16613 32.69263 0.01965
C 17.23087 29.72397 0.02058
C 17.20163 28.36985 -0.01957
C 18.42468 27.64451 -0.0108
C 18.43136 26.2349 -0.00368
C 17.17749 25.49243 -0.02696
C 17.23223 24.08489 -0.00114
C 15.98672 17.75731 0.00415
C 19.62303 24.13185 -0.0258
C 11.20865 13.52212 -0.00482
C 9.76379 15.66147 0.00685
C 3.70368 2.15998 0.02784
C 3.59645 0.7279 -0.01977
C 2.37517 0.03202 -0.00561
C 4.87964 32.77192 0.00208
C 6.03886 32.08543 0.01707
C 6.12882 30.639 0.02769
C 4.94771 29.86247 -0.03291
C 5.00066 28.46316 -0.04999
C 6.19664 27.84434 0.04505
C 6.11052 26.34335 0.03284
C 2.4823 2.89032 -0.01979
C 4.94194 25.54591 -0.04307
C 6.19178 23.45178 0.00031
C 6.22177 22.06458 -0.003
C 4.95539 21.22035 0.01402
C 4.94609 19.81288 0.02379
C 6.16118 19.17656 0.00907
C 6.13596 17.72372 0.00643
C 4.86669 17.01734 -0.01509
C 4.86395 15.64637 0.03267
C 6.12327 14.77594 0.02374
C 6.13288 13.44655 0.00402
C 4.97774 24.00631 0.03189
C 2.37675 4.32248 -0.00449
C 3.65543 5.07335 0.00211
C 3.67297 6.46284 0.0064
C 3.65367 30.60512 0.01078
C 2.43225 29.76379 -0.00112
C 2.4456 28.38849 0.03345
C 3.7318 27.71663 0.00748
C 3.74094 26.30342 0.00662
C 2.47864 25.59138 -0.0154
C 2.45086 24.11078 -0.01299
C 3.68509 23.37851 -0.00407
C 3.6719 22.01702 0.01138
C 2.49579 21.30683 0.03278
C 2.42295 19.84641 -0.00177
C 3.68896 19.18547 0.04421
C 3.62574 17.72975 0.00088
C 2.43282 16.97945 0.00828
C 2.42246 15.55046 -0.02375
C 3.68283 14.94377 0.00558
C 3.75614 13.42184 -0.0059
C 2.5044 12.74959 -0.01386
C 2.30463 11.42668 -0.02805
C 3.45684 10.62697 0.00081
C 3.50325 9.18008 0.00245
C 2.31827 8.41486 0.02728
C 2.35794 7.06312 -0.00039
C 4.9911 12.5794 0.0073
C 10.95633 14.90239 0.02888
C 4.72575 11.17715 0.0174
C 4.90447 7.35697 0.01226
C 8.59332 5.13584 -0.00049
C 7.29932 4.44896 0.00848
C 7.31796 3.00586 -0.01303
C 8.56292 2.20344 -0.01378
C 8.52305 0.84016 0.02635
C 7.27195 0.1591 0.0127
C 9.82366 32.75069 0.01396
C 11.04224 32.12897 0.01849
C 11.06252 30.61479 -0.01142
C 9.83313 29.84184 -0.00562
C 8.71766 6.4359 0.00873
C 9.88411 28.48064 -0.00494
C 11.04669 26.32645 0.03007
C 9.79848 25.68334 -0.00095
C 9.80492 24.2319 0.01572
C 11.05247 23.48205 -0.04848
C 11.08104 22.03071 -0.00892
C 9.7926 21.3064 -0.01362
C 9.79876 19.90165 -0.0008
C 11.02843 19.18376 0.0288
C 11.02215 17.82957 0.00393
C 9.79575 17.03107 0.00895
C 11.10227 27.7391 0.00054
C 7.55961 7.17788 0.01227
C 8.63149 14.83457 -0.03337
C 7.46024 15.51305 -0.00966
C 6.17953 6.60742 -0.00279
C 6.12924 5.19308 0.01996
C 4.79112 4.42634 -0.03996
C 4.87641 2.98144 0.01465
C 6.1303 2.30436 -0.00074
C 6.06103 0.85583 -0.00518
C 4.84017 0.17788 0.0086
C 7.34419 32.75783 -0.00643
C 8.62986 32.0451 0.017
C 8.66557 30.58116 -0.03113
C 7.43139 29.94657 -0.02566
C 7.40953 28.54217 -0.00094
C 8.57344 27.78771 0.02322
C 8.56506 26.42093 -0.00725
C 7.36994 25.63656 -0.05697
C 7.3979 24.24454 0.01087
C 8.59605 23.46741 -0.01343
C 8.60939 22.02201 0.00988
C 7.39979 21.32677 0.0276
C 7.33634 19.9264 0.01305
C 8.56594 19.21547 -0.00077
C 8.5331 17.81173 0.03368
C 7.36473 17.0488 -0.02929
C 4.79264 8.72694 0.03828
C 3.67999 31.98459 -0.02827
C 20.88043 23.43996 -0.0331
C 19.69378 21.23101 0.02188
C 29.55156 11.38871 -0.02155
C 30.69147 10.59317 -0.00944
C 30.66609 9.20225 -0.03735
C 29.4506 8.47844 -0.00971
C 29.47942 7.08972 0.01518
C 30.71131 6.36526 0.01908
C 30.67414 4.93883 0.07705
C 29.40708 4.11926 0.0103
C 29.49324 2.7843 0.02108
C 30.74873 1.99122 0.00716
C 29.54585 12.81489 -0.01461
C 30.71713 0.62958 0.00307
C 31.97198 32.55416 0.01713
C 33.19046 31.83567 -0.01694
C 33.18489 30.44824 0.01428
C 31.94073 29.72416 -0.02142
C 32.01433 28.27269 0.0544
C 33.19219 27.57549 0.00026
C 33.12797 26.24781 0.00682
C 31.91031 25.51589 -0.01779
C 31.90225 24.14001 0.03794
C 33.17032 23.40603 0.01927
C 29.48981 34.00192 0.00346
C 30.74898 13.50172 -0.01303
C 30.77521 14.94647 -0.0405
C 29.52559 15.5776 0.01705
C 28.2653 6.41411 0.01094
C 28.13874 4.92388 0.00235
C 26.92113 4.26186 0.01495
C 26.92105 2.82561 0.01259
C 28.21239 2.14051 0.01799
C 28.20528 0.68958 0.01699
C 26.97886 0.0161 -0.00416
C 29.55374 32.58501 0.01177
C 30.79246 31.81992 0.04266
C 30.72543 30.43404 0.01324
C 29.51662 29.66627 0.0014
C 29.47427 28.35058 0.00924
C 30.78696 27.61648 0.02326
C 30.72282 26.18569 0.00261
C 29.46161 25.48322 0.03265
C 29.41878 24.11627 -0.02049
C 30.72096 23.4407 -0.01854
C 30.66526 21.99151 -0.01415
C 29.48302 21.24777 -0.03039
C 29.43274 19.8775 0.01836
C 30.61649 19.19281 0.03531
C 30.69771 17.8003 -0.00669
C 29.52375 17.05137 0.0101
C 33.12216 21.95405 0.01574
C 27.04801 7.0596 0.02198
C 31.91896 21.24873 -0.02383
C 33.18546 19.20248 -0.0136
C 1.17019 23.44345 0.00723
C 1.22438 21.98214 0.02712
C 0.03625 21.27562 -0.02213
C 34.42739 19.86654 0.01951
C 1.25406 19.118 -0.01678
C 1.24317 17.7115 0.01223
C 0.0035 17.06745 0.00648
C 34.42235 15.65618 0.02114
C 1.19367 14.93994 -0.02957
C 1.16685 13.53266 0.00343
C 34.41696 24.12938 0.03076
C 34.3813 12.79883 -0.02656
C 1.05093 10.70262 -0.00027
C 1.11321 9.19374 -0.00583
C 34.3489 8.49763 -0.02302
C 34.31747 6.98532 -0.02849
C 1.17656 6.34048 0.02931
C 1.10246 4.96271 0.00628
C 34.35916 4.23557 -0.0345
C 34.42417 2.82789 -0.00931
C 1.20583 2.11138 -0.00939
C 1.16074 0.70784 -0.00468
C 34.29454 11.40754 -0.02442
C 34.36004 25.5594 -0.05239
C 1.16344 26.2869 -0.00598
C 1.22813 27.68387 -0.00439
C 33.1821 17.7845 0.00594
C 31.9795 17.12812 -0.02474
C 31.96938 15.75198 0.00369
C 33.21178 14.97433 0.00455
C 33.20413 13.55866 -0.00644
C 31.93481 12.83305 -0.01839
C 31.91168 11.44086 0.00137
C 33.12615 10.6151 0.00199
C 33.21282 9.21992 0.04381
C 31.97724 8.47586 0.02806
C 31.91922 7.13189 0.01504
C 33.12857 6.31689 -0.00069
C 33.10558 4.93628 0.04926
C 31.90713 4.18302 -0.03838
C 32.01835 2.74556 0.00349
C 33.20625 2.05527 -0.00323
C 33.12463 0.64081 -0.00841
C 31.93827 34.00202 0.0001
C 34.41655 32.60162 -0.02927
C 1.23484 31.90276 -0.01404
C 1.25886 30.43268 0.01027
C 0.03243 29.71842 0.01831
C 0.03938 28.3601 -0.01037
C 31.91925 19.86085 -0.01429
C 20.92 21.99425 -0.00316
C 27.07331 8.53162 0.02611
C 28.20624 10.70222 0.00194
C 23.3132 22.05671 -0.01594
C 22.11249 21.26459 0.0106
C 22.12026 19.79098 -0.01154
C 23.30323 19.07062 -0.01721
C 23.30995 17.6527 -0.02422
C 22.16759 17.03942 0.01277
C 22.06877 15.47922 0.00096
C 23.20639 14.76372 -0.01527
C 23.06496 13.26814 0.01087
C 21.65904 12.52349 0.00199
C 23.31164 23.39374 0.00742
C 21.75398 10.92086 0.01511
C 23.37057 9.31362 -0.01662
C 22.04847 8.66508 -0.01185
C 22.02096 7.21539 0.01126
C 23.30433 6.49176 0.01852
C 23.29672 5.05701 -0.00381
C 22.02143 4.37288 0.03046
C 22.03886 2.89302 0.0296
C 23.20877 2.1641 0.03374
C 23.27828 0.67717 -0.02845
C 22.03968 0.05547 -0.03213
C 23.25872 10.62757 -0.00478
C 22.0303 24.10884 -0.00311
C 22.01807 25.56568 0.00675
C 23.35179 26.30311 -0.00865
C 19.65254 19.80791 -0.01979
C 20.87039 19.16113 0.02691
C 20.80814 17.71247 -0.01581
C 19.70157 17.04493 0.01452
C 19.6827 15.60964 0.04892
C 20.78001 14.86635 -0.00111
C 20.40344 13.41363 -0.03557
C 21.11264 9.7017 0.03754
C 19.56365 9.19412 0.01739
C 19.60388 7.54853 0.00755
C 20.708 6.6444 -0.0054
C 20.80072 5.16927 0.00667
C 19.61731 4.31972 0.00143
C 19.63357 2.89177 -0.017
C 20.84099 2.18002 0.00364
C 20.84626 0.6991 -0.00831
C 19.62429 34.05437 -0.02957
C 22.10537 32.65421 -0.04422
C 23.39638 31.9457 0.00654
C 23.32414 30.57246 -0.00703
C 22.11597 29.73467 -0.04076
C 22.11093 28.38602 -0.00652
C 23.39666 27.71004 0.0058
C 24.58277 32.63955 0.02239
C 28.31223 9.23957 -0.00621
C 25.86204 31.90009 0.01153
C 24.60122 29.84126 -0.0055
C 24.50307 34.06739 0.00684
C 27.04063 32.61053 -0.01052
C 28.30447 31.94061 -0.01679
C 28.1989 30.48666 0.00367
C 27.02468 29.79208 0.04306
C 27.06754 28.3729 0.00996
C 28.2834 27.62032 0.00195
C 28.28139 26.16532 -0.00802
C 27.05128 25.51286 -0.00218
C 26.95168 24.13134 -0.01654
C 25.74509 0.72246 -0.01154
C 28.13964 23.38299 -0.00037
C 27.02172 21.33797 0.00622
C 27.03741 19.89345 -0.02815
C 28.24791 19.17202 -0.00942
C 28.32333 17.71108 0.00487
C 27.04811 16.99298 0.00826
C 27.11429 15.60819 -0.00294
C 28.32278 14.89428 0.00152
C 28.25163 13.44727 0.01257
C 26.98482 12.75988 0.02316
C 26.96804 11.42456 0.04185
C 28.23104 21.97273 -0.0032
C 25.55948 2.08721 -0.0264
C 24.48663 2.87816 -0.00938
C 24.48155 4.35468 -0.00229
C 24.64249 28.40331 0.01515
C 25.85581 27.63518 -0.00225
C 25.75057 26.22714 0.00071
C 24.52894 25.49388 -0.01107
C 24.46977 24.05092 -0.01586
C 25.73205 23.41514 -0.01971
C 25.78296 21.93242 -0.02118
C 24.48993 21.32108 0.00733
C 24.52563 19.79343 -0.00178
C 25.7793 19.14378 0.00768
C 25.79677 17.73063 -0.0276
C 24.5421 16.91598 0.03005
C 24.47711 15.51852 -0.04078
C 25.71723 14.80948 0.02117
C 25.67967 13.47979 0.02737
C 24.41704 12.69676 -0.00498
C 24.42353 11.30948 0.00135
C 25.73883 10.76499 0.03102
C 25.81385 9.25115 0.02555
C 24.53896 8.54047 0.01423
C 24.53381 7.12395 -0.00285
C 25.75497 6.4153 -0.009
C 25.74026 5.03044 -0.01199
C 25.78373 30.47227 0.02734
C 2.43681 32.64736 -0.01471
