375
Graphene
C 34.35198 0.08853 0.01295
C 9.85323 7.2107 0.02299
C 11.07712 6.39315 0.00244
C 11.12475 4.96562 -0.01717
C 9.85487 4.33307 0.05265
C 9.76254 2.90029 -0.01952
C 10.97986 2.1652 -0.02813
C 11.07932 0.76943 0.00374
C 9.85918 0.15182 0.00052
C 12.29848 32.75545 -0.03682
C 13.5226 31.98343 0.01965
C 13.49274 30.5017 0.02058
C 12.26386 29.789 -0.01957
C 12.24401 28.4012 -0.0108
C 13.51155 27.72198 -0.00368
C 13.54952 26.33695 -0.02696
C 12.27302 25.70225 -0.00114
C 12.25403 24.24511 0.00228
C 13.47181 23.46389 0.00798
C 13.49888 22.0491 0.00422
C 9.89845 8.60385 0.03542
C 11.11069 9.24543 0.01416
C 11.0687 10.70179 0.01945
C 9.86944 11.41733 -0.01454
C 9.8123 32.78768 0.03101
C 11.01727 32.00956 -0.01536
C 11.03629 30.61579 -0.02689
C 9.76152 29.97047 -0.01046
C 9.75071 28.49486 -0.00891
C 10.98967 27.70933 0.02819
C 10.96766 26.36476 0.00165
C 9.7663 25.59331 -0.02971
C 9.7528 24.14089 0.02894
C 12.31207 21.25081 0.0351
C 10.96981 23.451 -0.01789
C 9.8255 21.32307 -0.00925
C 9.92734 19.8748 0.01877
C 11.16671 19.13331 0.01363
C 11.14911 17.77652 -0.02162
C 9.89899 17.12417 0.00415
C 9.8994 15.61772 -0.0014
C 11.04878 14.86059 0.02162
C 11.046 13.46095 0.0076
C 9.75181 12.85961 0.01241
C 11.07094 22.02382 0.00444
C 7.35883 0.03337 -0.00428
C 12.36445 19.82856 -0.03113
C 13.67188 17.58886 0.01848
C 15.91963 23.41783 0.02691
C 15.93146 21.95803 -0.01581
C 14.65098 21.38447 0.01452
C 14.74093 19.98165 0.04892
C 16.15366 8.94944 -0.00111
C 14.82506 8.4893 -0.03557
C 14.80315 7.0466 0.03754
C 14.801 4.11926 0.01739
C 14.68495 2.70956 0.00755
C 15.86757 1.94329 -0.0054
C 16.03888 0.587 0.00667
C 14.78773 33.996 0.00143
C 17.17013 32.62841 -0.017
C 18.45569 31.86905 0.00364
C 18.40618 30.40233 -0.00831
C 17.15066 29.74509 -0.02957
C 17.22166 28.32908 -0.04422
C 18.4697 27.61247 0.00654
C 18.47972 26.15101 -0.00703
C 14.73314 24.15 -0.01979
C 14.75062 25.61266 0.02188
C 15.99381 26.29645 -0.00316
C 16.0126 27.63153 -0.0331
C 12.43531 16.93004 -0.00619
C 12.39464 15.48054 -0.02162
C 12.32057 12.81463 0.00889
C 12.42109 11.45505 -0.00481
C 13.53977 10.6315 0.00979
C 13.56649 9.28348 0.01443
C 12.30508 8.55353 0.03505
C 12.32654 7.11794 -0.02815
C 13.66752 6.35898 -0.04147
C 13.81404 19.02004 0.02098
C 13.65868 4.92271 -0.05302
C 12.22406 2.89321 -0.00066
C 13.49117 2.10705 -0.00289
C 13.50287 0.63755 0.00028
C 12.28071 0.02835 -0.02213
C 14.76801 32.58474 0.03698
C 15.95568 31.84471 -0.00109
C 15.95299 30.46574 -0.00491
C 14.71645 29.79145 0.03338
C 14.77938 28.40518 -0.0258
C 12.34487 4.254 0.00213
C 17.28164 25.50965 -0.04076
C 8.60343 0.78622 -0.02245
C 7.31759 2.9121 -0.01275
C 3.63469 5.04627 0.01305
C 2.44765 4.34489 -0.00077
C 2.35118 2.9516 0.03368
C 3.64548 2.17471 -0.02929
C 3.59677 0.80456 -0.00966
C 2.3427 0.14849 -0.03337
C 4.89278 32.68669 0.01227
C 6.17187 32.0421 0.00873
C 6.09456 30.6211 -0.00049
C 4.74924 29.91865 0.00848
C 4.85619 28.45913 -0.01303
C 6.07138 27.77198 -0.01378
C 6.09642 26.3039 0.02635
C 4.92898 25.60396 0.0127
C 4.95815 24.16754 0.01396
C 6.20512 23.44053 0.01849
C 6.18787 22.05222 -0.01142
C 4.90461 21.43153 -0.00562
C 4.96538 19.97087 -0.00494
C 3.62374 6.48632 0.0276
C 2.39898 7.24865 0.00988
C 2.36314 8.69226 -0.01343
C 3.64992 9.25595 0.01087
C 3.57354 30.66032 0.00402
C 2.39725 29.87833 0.0073
C 2.38771 28.45524 0.0174
C 3.583 27.63658 0.03828
C 3.68408 26.29974 0.01226
C 2.36303 25.70952 -0.00279
C 2.36141 24.15858 0.01996
C 3.6146 23.53552 -0.03996
C 3.7015 22.13323 0.01465
C 6.16999 19.27923 0.00054
C 2.50972 21.39548 -0.00074
C 3.74882 19.28697 0.0086
C 3.7614 17.8626 -0.00643
C 2.53019 17.1233 0.017
C 2.50958 15.66993 -0.03113
C 3.75402 14.97109 -0.02566
C 3.6626 13.53818 -0.00094
C 2.3547 12.83663 0.02322
C 2.40302 11.4532 -0.00725
C 3.62099 10.70134 -0.05697
C 2.46872 19.98717 -0.00518
C 8.6209 2.21283 0.00985
C 6.18964 17.90106 0.03007
C 4.96355 15.73044 0.01572
C 8.56773 23.46232 0.00093
C 8.62202 21.96825 0.00057
C 7.34798 21.32042 -0.01634
C 7.41462 19.96039 -0.00334
C 8.59442 19.22622 0.02339
C 8.66061 17.8353 0.01641
C 7.45085 17.15318 -0.00719
C 7.41703 15.72189 0.01364
C 8.62807 14.96795 -0.01062
C 8.50747 13.56829 -0.00033
C 7.30216 12.87008 0.03589
C 7.39692 11.39236 -0.02759
C 8.6742 10.65842 0.0402
C 8.6686 9.26751 0.00572
C 7.37269 8.57098 0.03592
C 7.38651 7.08991 0.00406
C 8.62715 6.46211 0.00943
C 8.67885 5.12548 0.02841
C 7.36161 4.2834 -0.01111
C 7.35004 24.18965 0.01291
C 7.30065 25.55847 0.00438
C 8.5484 26.26294 -0.00191
C 8.53674 27.65617 0.00373
C 6.17972 14.96983 -0.04848
C 6.11404 13.54317 -0.00892
C 4.88098 12.80235 -0.01362
C 4.87328 11.43484 -0.0008
C 6.1205 10.67891 0.0288
C 6.09214 9.27969 0.00393
C 4.86984 8.52489 0.00895
C 4.8664 7.11835 0.00685
C 6.06834 6.43217 0.02888
C 5.0387 17.14044 -0.00095
C 6.03656 5.07901 -0.00482
C 4.80083 2.93503 0.03693
C 6.02781 2.15172 0.01745
C 6.15677 0.74541 0.00488
C 4.83575 0.08398 -0.01004
C 7.36884 32.70736 -0.02896
C 8.62997 32.06872 -0.00131
C 8.5155 30.61842 -0.01118
C 7.28236 29.86224 -0.014
C 7.28838 28.45763 0.02147
C 4.80015 4.28166 -0.01384
C 3.57128 32.08474 0.02374
C 17.26554 24.02902 -0.00652
C 18.34557 21.68761 -0.00865
C 29.42376 4.35687 0.00716
C 29.4662 2.93841 0.00307
C 30.66053 2.13097 0.00346
C 30.60873 0.70969 0.01713
C 29.42906 0.05009 -0.01694
C 31.85334 32.68538 0.01428
C 33.13057 31.9447 -0.02142
C 33.14547 30.53503 0.0544
C 31.88773 29.82242 0.00026
C 31.93718 28.40023 0.00682
C 33.11995 27.74183 -0.01779
C 33.14484 26.32874 0.03794
C 31.992 25.51748 0.01927
C 31.90434 24.06325 0.01574
C 33.20477 23.36381 -0.02383
C 33.10909 21.89746 -0.01429
C 31.72401 21.22788 -0.0136
C 31.79147 19.81099 0.00594
C 32.9335 18.99133 -0.02474
C 30.72904 5.08401 0.02108
C 30.62105 6.48904 0.0103
C 29.42604 7.20693 0.07705
C 29.56911 8.67148 0.01908
C 28.13961 5.04707 0.02326
C 26.89104 4.30245 0.00261
C 26.89581 2.90534 0.03265
C 28.16206 2.20068 -0.02049
C 28.16925 0.79686 -0.01854
C 26.94943 0.02945 -0.01415
C 29.42085 32.70452 -0.03039
C 30.63223 31.99894 0.01836
C 30.64278 30.57448 0.03531
C 33.14783 17.61227 0.00369
C 29.47377 29.80204 -0.00669
C 30.74221 27.68762 0.01705
C 30.7716 26.28709 -0.0405
C 29.42701 25.61284 -0.01303
C 29.49733 24.24328 -0.01461
C 30.68318 23.48259 -0.02155
C 30.4299 22.09729 -0.00944
C 29.51942 11.47119 -0.03735
C 30.73865 10.71892 -0.00971
C 30.81768 9.28375 0.01518
C 29.4636 28.40711 0.0101
C 28.25344 6.46775 0.00924
C 33.24881 15.01583 0.00455
C 31.91708 12.87089 -0.01839
C 0.01844 19.8076 0.01951
C 1.27638 19.2353 -0.01678
C 1.32003 17.80196 0.01223
C 0.01399 17.08138 0.00648
C 0.03422 15.68975 0.02114
C 1.2564 14.94224 -0.02957
C 1.15752 13.59991 0.00343
C 34.27453 12.92171 -0.02656
C 34.36125 11.47759 -0.02442
C 1.18901 10.78527 -0.00027
C 1.17686 9.38221 -0.00583
C 0.01021 8.62861 -0.02302
C 34.397 7.12269 -0.02849
C 1.16767 6.39104 0.02931
C 1.18508 5.00202 0.00628
C 34.35488 4.34069 -0.0345
C 34.34774 2.9246 -0.00931
C 1.16547 2.21658 -0.00939
C 1.15576 0.83389 -0.00468
C 34.35047 21.18271 -0.02213
C 1.12307 21.97967 0.02712
C 1.15404 23.37855 0.00723
C 34.37783 24.16068 0.03076
C 31.90373 11.42912 0.00137
C 33.09966 10.72397 0.00199
C 33.21607 9.29755 0.04381
C 32.04281 8.51491 0.02806
C 31.92569 7.11158 0.01504
C 33.17806 6.52093 -0.00069
C 33.14811 5.09382 0.04926
C 31.91435 4.29904 -0.03838
C 31.89513 2.83599 0.00349
C 32.94497 13.69366 -0.00644
C 33.12468 2.14778 -0.00323
C 31.89119 0.04009 0.0001
C 34.30939 32.72995 -0.02927
C 1.17562 31.97953 -0.01404
C 1.19057 30.46696 0.01027
C 34.38152 29.8121 0.01831
C 34.33389 28.4678 -0.01037
C 1.14257 27.739 -0.00439
C 1.15728 26.31443 -0.00598
C 34.34838 25.56879 -0.05239
C 33.08221 0.71419 -0.00841
C 18.44053 23.24257 0.0058
C 27.04826 7.19779 0.0014
C 28.35225 9.41486 0.04266
C 20.81956 6.37289 -0.03213
C 20.78466 5.02076 0.02239
C 19.45481 4.56153 0.01153
C 19.43981 3.01918 0.02734
C 20.65653 2.21833 -0.0055
C 20.79541 0.7565 0.01515
C 19.63469 0.0173 -0.00225
C 22.04672 32.64164 0.00071
C 23.23927 31.88805 -0.01107
C 23.32205 30.51939 -0.01586
C 22.16956 29.69743 -0.01971
C 22.1505 28.29948 -0.02118
C 23.34865 27.62677 0.00733
C 23.34063 26.18158 -0.00178
C 22.07566 25.44485 0.00768
C 21.96087 24.0805 -0.0276
C 23.24206 23.24545 0.03005
C 23.34524 21.8143 -0.04078
C 22.13518 21.21459 0.02117
C 19.54744 6.96863 -0.02845
C 19.5936 8.54751 0.03374
C 20.72996 9.13064 0.0296
C 19.7076 21.17691 0.03046
C 17.12875 21.13246 0.00675
C 18.18207 8.80899 -0.00311
C 17.17922 7.95762 0.00742
C 17.19605 6.52059 -0.01594
C 18.46101 5.92288 0.0106
C 17.00914 2.68446 -0.01154
C 18.29823 2.17129 -0.01721
C 18.41293 0.69917 -0.02422
C 17.24684 34.02066 0.01277
C 21.02255 20.20014 0.02737
C 19.64496 32.55051 0.00096
C 20.91994 30.3968 0.01087
C 19.62414 29.73415 0.00199
C 19.62906 28.2952 0.01511
C 20.90006 27.62338 -0.00478
C 20.84784 26.13747 -0.01662
C 19.6503 25.41823 -0.01185
C 19.66233 23.94204 0.01126
C 20.79752 23.3034 0.01852
C 20.85876 21.92492 -0.00381
C 20.84644 31.87436 -0.01527
C 26.99563 8.64517 0.01324
C 23.2123 10.61524 -0.00498
C 22.00933 8.58981 0.03102
C 25.78154 6.53451 0.00487
C 25.68948 5.0731 0.00826
C 24.45388 4.27286 -0.00294
C 24.51626 2.83669 0.00152
C 25.76107 2.16608 0.01257
C 25.73902 0.66831 0.02316
C 24.52583 34.02634 0.04185
C 27.03491 32.64607 0.00194
C 28.20589 31.96979 -0.00621
C 28.22597 30.58549 0.02611
C 27.05329 29.70648 0.02198
C 27.00659 28.26302 0.01094
C 28.18083 27.61125 0.00235
C 28.18716 26.20296 0.01495
C 27.05132 25.44627 0.01259
C 27.0438 23.91987 0.01799
C 28.41906 23.29951 0.01699
C 26.84637 11.42073 -0.00416
C 28.32146 10.87662 0.01177
C 24.46157 7.17293 -0.00942
C 24.5475 8.64932 -0.02815
C 25.79528 9.36463 0.00622
C 25.74728 10.87079 -0.0032
C 22.11195 7.14997 0.02555
C 23.29302 6.40508 0.01423
C 23.26938 5.00955 -0.00285
C 22.06874 4.31482 -0.009
C 22.04138 2.88525 -0.01199
C 23.21534 2.15007 -0.00229
C 23.31984 0.69221 -0.00938
C 22.04228 34.02138 -0.0264
C 24.53613 32.56018 -0.01154
C 23.23895 9.22734 0.00135
C 25.80518 31.97083 0.00684
C 24.57026 29.80303 -0.01679
C 24.54429 28.35244 0.00367
C 25.82087 27.50106 0.04306
C 25.77537 26.10314 0.00996
C 24.49209 25.44019 0.00195
C 24.45053 23.99849 -0.00802
C 25.74171 23.20694 -0.00218
C 24.85766 12.74123 -0.01654
C 24.36666 11.34971 -0.00037
C 25.83514 30.5249 -0.01052
C 2.3601 32.77088 0.03267
