338
Graphene
C 0.00048 0.01085 0.01295
C 9.74935 12.75463 0.00889
C 9.74749 11.38257 -0.00481
C 10.98778 10.69642 0.00979
C 11.02588 9.34094 0.01443
C 9.75077 8.6023 0.03505
C 9.7998 7.18381 -0.02815
C 10.98774 6.37489 -0.04147
C 11.03767 4.96355 -0.05302
C 9.82294 4.26614 0.00213
C 9.88226 2.81525 -0.00066
C 11.12675 2.09291 -0.00289
C 11.15612 0.69355 0.00028
C 9.8961 0.00099 -0.02213
C 12.64955 32.71214 0.03698
C 12.35355 19.92717 -0.00109
C 13.29816 18.95369 -0.00491
C 13.57597 17.69683 0.03338
C 10.96273 13.48534 -0.02162
C 12.30143 17.00774 -0.0258
C 11.04412 14.8945 -0.00619
C 9.91612 17.06828 0.02098
C 7.33821 8.64101 -0.01952
C 7.36335 7.18262 -0.02813
C 8.63773 6.44064 0.00374
C 8.57981 5.01738 0.00052
C 7.3959 4.37007 -0.03682
C 7.44181 2.921 0.01965
C 8.67702 2.11379 0.02058
C 8.66745 0.724 -0.01957
C 7.43376 0.04184 -0.0108
C 9.96029 32.65147 -0.00368
C 11.41322 31.96973 -0.02696
C 10.94937 30.70052 -0.00114
C 9.84897 30.0313 0.00228
C 9.76323 21.06593 0.00798
C 9.82539 19.77048 0.00422
C 11.18711 19.14432 0.0351
C 11.10882 17.76459 -0.03113
C 9.83206 15.64618 0.01848
C 8.59098 9.33599 0.05265
C 12.28348 15.4931 -0.0331
C 13.53177 13.41206 0.02188
C 15.97809 10.71093 -0.00652
C 15.96059 9.25895 0.0058
C 14.72073 8.58949 -0.00865
C 14.70456 7.17294 0.00675
C 15.90292 6.36614 -0.00311
C 15.94414 5.00194 0.00742
C 14.73016 4.28473 -0.01594
C 14.77379 2.85118 0.0106
C 15.94229 2.05793 -0.01154
C 15.96221 0.64699 -0.01721
C 14.80044 34.01382 -0.02422
C 17.30346 32.69262 0.01277
C 18.4809 17.68543 0.00096
C 17.24447 17.1918 -0.01527
C 17.21603 15.71077 0.01087
C 18.46076 14.92644 0.00199
C 18.42636 13.51141 0.01511
C 14.70666 11.35577 -0.04076
C 13.54301 14.80824 -0.00316
C 14.70293 12.68984 -0.00703
C 15.97307 14.91327 -0.04422
C 12.28058 12.73739 -0.01979
C 12.2552 11.38285 0.02691
C 13.49163 10.65829 -0.01581
C 13.52382 9.24699 0.01452
C 12.25561 8.50042 0.04892
C 12.19756 7.05158 -0.00111
C 13.44249 6.42111 -0.03557
C 13.4841 5.07222 0.03754
C 12.27771 4.26226 0.01739
C 12.30776 2.85713 0.00755
C 13.55808 2.13617 -0.0054
C 13.56918 0.7022 0.00667
C 12.38573 0.00694 0.00143
C 14.59055 32.65847 -0.017
C 15.97702 17.64079 0.00364
C 14.80028 16.9365 -0.00831
C 14.72769 15.50856 -0.02957
C 15.96364 13.4964 0.00654
C 8.55288 10.73507 -0.01717
C 7.32643 11.44375 0.00244
C 7.37628 12.82566 0.02299
C 2.44612 8.5239 0.03693
C 2.4059 7.08784 0.01745
C 3.58362 6.40493 0.00488
C 3.61741 4.94016 -0.01004
C 2.42264 4.22013 -0.02896
C 2.44128 2.75607 -0.00131
C 3.74791 2.11317 -0.01118
C 3.74684 0.73016 -0.014
C 2.50555 34.00935 0.02147
C 4.93473 32.69822 0.00373
C 6.15281 32.00374 -0.00191
C 6.1426 30.58419 0.00438
C 4.88215 29.84848 0.01291
C 4.91557 28.3887 0.00093
C 6.11906 27.6292 0.00057
C 6.15275 26.28477 -0.01634
C 4.92477 25.5854 -0.00334
C 3.64756 9.21123 -0.01384
C 4.86772 24.16089 0.02339
C 3.65532 10.66391 -0.00482
C 2.49405 12.74891 0.00685
C 3.71337 30.56839 0.0127
C 2.4453 29.85893 0.01396
C 2.42916 28.49266 0.01849
C 3.67792 27.75267 -0.01142
C 3.67797 26.27417 -0.00562
C 2.41764 25.55857 -0.00494
C 2.37429 24.18476 0.00054
C 3.63069 23.42404 0.03007
C 3.74977 21.97612 -0.00095
C 2.4721 21.26909 0.01572
C 2.45103 19.8186 -0.04848
C 3.67872 19.04635 -0.00892
C 3.5993 17.65239 -0.01362
C 2.39522 17.01106 -0.0008
C 2.4609 15.59303 0.0288
C 3.63661 14.87006 0.00393
C 3.69774 13.47951 0.00895
C 2.44069 11.34539 0.02888
C 6.0791 23.40462 0.01641
C 6.09567 21.96999 -0.00719
C 4.89786 21.22639 0.01364
C 8.54234 30.5861 -0.02971
C 7.29086 29.89385 0.02894
C 7.27494 28.51771 -0.01789
C 8.47877 27.76298 0.00444
C 8.46362 26.38512 -0.00925
C 7.43233 25.54058 0.01877
C 7.4188 24.13031 0.01363
C 8.64547 23.45868 -0.02162
C 8.90884 22.1114 0.00415
C 7.42666 21.2933 -0.0014
C 7.35084 19.89606 0.02162
C 8.60339 19.11332 0.0076
C 8.59181 17.73339 0.01241
C 7.35962 16.9934 -0.01454
C 7.31259 15.62157 0.01945
C 8.57045 14.95652 0.01416
C 8.52219 13.47476 0.03542
C 8.69051 31.98052 0.00165
C 7.44567 32.66995 0.02819
C 4.99955 0.02497 -0.00891
C 6.23592 0.78096 -0.01046
C 4.92873 19.84682 -0.01062
C 6.10578 19.11926 -0.00033
C 6.1532 17.72033 0.03589
C 4.91943 17.02871 -0.02759
C 4.86979 15.61064 0.0402
C 6.09545 14.87577 0.00572
C 6.10702 13.53615 0.03592
C 4.89517 12.86596 0.00406
C 17.2145 12.82885 -0.00478
C 4.87495 11.37694 0.00943
C 6.0658 9.25919 -0.01111
C 4.88754 8.56201 -0.01275
C 4.84867 7.10219 0.00985
C 6.10297 6.41449 -0.02245
C 6.11798 5.00584 -0.00428
C 4.93884 4.27831 0.03101
C 4.90567 2.87831 -0.01536
C 6.19736 2.172 -0.02689
C 6.0997 10.68148 0.02841
C 17.1928 11.40843 -0.01662
C 18.45402 10.71506 -0.01185
C 18.39712 9.35809 0.01126
C 31.8659 29.80901 -0.02142
C 31.98618 28.41039 0.0544
C 33.18386 27.74631 0.00026
C 33.24222 26.32147 0.00682
C 32.08703 25.54276 -0.01779
C 31.98757 24.13249 0.03794
C 33.19962 23.39084 0.01927
C 33.16614 22.03714 0.01574
C 32.02321 21.30422 -0.02383
C 32.00278 19.86519 -0.01429
C 33.17361 19.17399 -0.0136
C 33.12712 17.77334 0.00594
C 31.92928 17.07708 -0.02474
C 31.95097 15.64786 0.00369
C 33.15338 14.99274 0.00455
C 33.22666 13.6383 -0.00644
C 31.97689 12.87384 -0.01839
C 33.17151 30.56996 0.01428
C 32.02603 11.39619 0.00137
C 33.23787 31.96032 -0.01694
C 29.53843 34.0771 0.00346
C 30.7265 17.76792 -0.00669
C 29.42102 17.08903 0.0101
C 29.46696 15.58249 0.01705
C 30.77421 14.89406 -0.0405
C 30.70402 13.43681 -0.01303
C 29.40363 12.70846 -0.01461
C 29.5333 11.27344 -0.02155
C 30.79324 10.6425 -0.00944
C 30.7555 9.30485 -0.03735
C 29.67323 8.51614 -0.00971
C 29.52554 7.14824 0.01518
C 30.6345 6.42778 0.01908
C 30.6812 4.99487 0.07705
C 29.46439 4.21693 0.0103
C 29.43118 2.86017 0.02108
C 30.6599 2.14523 0.00716
C 30.71727 0.72086 0.00307
C 31.93913 32.66668 0.01713
C 33.23165 10.63888 0.00199
C 33.15792 9.25093 0.04381
C 31.98844 8.49538 0.02806
C 1.27357 17.74852 0.01223
C 0.03592 17.06607 0.00648
C 34.3969 15.64583 0.02114
C 1.2126 14.93336 -0.02957
C 1.2604 13.48619 0.00343
C 34.41695 12.76952 -0.02656
C 0.01778 11.35808 -0.02442
C 1.22614 10.67788 -0.00027
C 1.1815 9.18484 -0.00583
C 34.34635 8.47891 -0.02302
C 34.4102 7.05133 -0.02849
C 1.22884 6.35615 0.02931
C 1.21408 4.95264 0.00628
C 34.41542 4.24822 -0.0345
C 0.01003 2.8721 -0.00931
C 1.20444 2.09769 -0.00939
C 1.25595 0.64007 -0.00468
C 1.26889 19.16987 -0.01678
C 34.39203 19.86118 0.01951
C 34.37077 21.28099 -0.02213
C 1.22676 21.93105 0.02712
C 31.85174 7.10161 0.01504
C 33.1452 6.35284 -0.00069
C 33.09733 4.91415 0.04926
C 31.86384 4.2301 -0.03838
C 31.9237 2.86043 0.00349
C 33.20021 2.17861 -0.00323
C 33.24313 0.77726 -0.00841
C 31.98883 0.05381 0.0001
C 30.7252 19.19918 0.03531
C 34.39773 32.69261 -0.02927
C 1.20862 30.54575 0.01027
C 34.34503 29.83951 0.01831
C 34.39565 28.46885 -0.01037
C 1.22039 27.75683 -0.00439
C 1.24095 26.34455 -0.00598
C 0.0205 25.58233 -0.05239
C 34.4024 24.10187 0.03076
C 1.20526 23.40579 0.00723
C 1.21028 32.00362 -0.01404
C 3.75934 31.95077 0.02635
C 29.45996 19.87733 0.01836
C 30.67745 22.01958 -0.01415
C 20.86858 4.98368 -0.0276
C 19.59439 4.27038 0.03005
C 19.64268 2.85157 -0.04078
C 20.87095 2.24035 0.02117
C 20.83772 0.63997 0.02737
C 19.65172 33.98044 -0.00498
C 22.09855 19.69775 0.00135
C 23.39128 19.29206 0.03102
C 23.30914 17.783 0.02555
C 22.11345 17.03368 0.01423
C 22.19647 15.57059 -0.00285
C 23.3916 14.90359 -0.009
C 23.34638 13.4883 -0.01199
C 22.13592 12.94225 -0.00229
C 23.37989 4.92358 -0.00938
C 22.14201 4.3718 -0.0264
C 22.15097 2.96058 -0.01154
C 20.79528 6.37348 0.00768
C 23.28396 2.14982 0.00684
C 19.72794 7.25119 -0.00178
C 19.70768 11.31407 -0.02118
C 17.18203 8.60021 0.01852
C 17.21619 7.14038 -0.00381
C 18.45255 6.42348 0.03046
C 18.41033 4.97987 0.0296
C 17.1235 4.32105 0.03374
C 17.16687 2.86657 -0.02845
C 18.4534 2.07853 -0.03213
C 18.39447 0.70057 0.02239
C 17.17614 0.01824 0.01153
C 19.24435 32.71726 0.02734
C 20.88009 19.10837 -0.0055
C 20.83335 17.74624 0.01515
C 19.67823 16.94554 -0.00225
C 19.73307 15.56063 0.00071
C 20.95304 14.86281 -0.01107
C 20.84875 13.46177 -0.01586
C 19.65033 12.76218 -0.01971
C 19.48701 8.64661 0.00733
C 23.31718 0.60976 -0.01052
C 22.10156 0.00217 -0.01679
C 24.62854 19.7496 0.00367
C 28.30923 13.50191 0.01094
C 28.24847 4.93306 0.00235
C 26.99559 4.27735 0.01495
C 26.97273 2.92569 0.01259
C 28.21434 2.19157 0.01799
C 28.2737 0.80408 0.01699
C 27.06642 0.06038 -0.00416
C 29.42351 32.64482 0.01177
C 30.69812 31.92035 0.04266
C 30.62344 30.47265 0.01324
C 29.32229 29.60905 0.0014
C 29.48654 28.19932 0.00924
C 30.82148 27.61406 0.02326
C 30.87123 26.25419 0.00261
C 29.71713 25.54601 0.03265
C 29.35604 24.21274 -0.02049
C 30.70114 23.43569 -0.01854
C 28.2436 14.90002 0.02198
C 27.06674 15.57833 0.02611
C 27.01684 16.94623 -0.00621
C 28.19707 17.78985 0.00194
C 25.85708 19.17119 0.04306
C 25.77494 17.6742 0.00996
C 24.55194 16.99514 0.00195
C 24.64247 15.51775 -0.00802
C 25.86829 14.83372 -0.00218
C 24.55396 4.2764 -0.01654
C 24.54619 2.91158 -0.00037
C 25.77247 2.24563 -0.0032
C 29.40876 21.37359 -0.03039
C 25.8002 0.79546 0.00622
C 27.08538 32.69279 -0.00942
C 28.19281 31.86305 0.00487
C 28.26047 30.52215 0.00826
C 28.34322 23.40264 -0.00294
C 28.1428 22.03755 0.00152
C 26.9985 21.2683 0.01257
C 27.06924 19.90673 0.02316
C 28.25882 19.1669 0.04185
C 24.60214 0.08379 -0.02815
C 2.47818 32.63313 -0.01378
