376
Graphene
C 34.39528 0.01301 0.01295
C 12.25429 2.94468 0.03542
C 13.37894 2.19128 0.02299
C 13.49101 0.70976 0.00244
C 12.24734 34.07311 -0.01717
C 14.70453 32.65388 0.05265
C 15.93971 32.02541 -0.01952
C 15.98837 30.596 -0.02813
C 14.81648 29.89507 0.00374
C 14.81523 28.31179 0.00052
C 15.99999 27.61702 -0.03682
C 16.07407 26.20792 0.01965
C 14.87196 25.50238 0.02058
C 14.39944 20.39471 -0.01957
C 15.89777 9.14655 -0.0108
C 14.86313 8.54362 -0.00368
C 14.67057 7.08807 -0.02696
C 15.91125 6.45327 -0.00114
C 15.89636 5.05732 0.00228
C 14.79433 4.29636 0.00798
C 12.18474 4.46104 0.01416
C 13.51955 5.10538 0.01945
C 13.50786 6.39055 -0.01454
C 12.29795 7.18435 0.01241
C 9.63843 7.21163 -0.00428
C 11.05183 6.69315 0.03101
C 11.00034 5.17263 -0.01536
C 9.78677 4.33764 -0.02689
C 9.76963 2.91289 -0.01046
C 10.9542 2.20173 -0.00891
C 10.97357 0.72075 0.02819
C 9.83597 34.05772 0.00165
C 12.31989 32.73132 -0.02971
C 14.70565 2.88785 0.00422
C 13.48556 31.94849 0.02894
C 12.30473 29.82497 0.00444
C 12.38177 28.38427 -0.00925
C 13.63889 27.6443 0.01877
C 13.6438 26.13247 0.01363
C 12.31727 25.36512 -0.02162
C 12.33329 24.04261 0.00415
C 13.66366 23.38527 -0.0014
C 13.69494 21.81778 0.02162
C 12.46634 21.14591 0.0076
C 13.61012 30.52573 -0.01789
C 9.69656 21.30812 -0.02245
C 15.98057 2.17787 0.0351
C 14.6935 0.0091 0.02098
C 20.85258 30.4478 -0.01979
C 19.59307 29.71449 0.02691
C 19.63968 28.26097 -0.01581
C 20.96831 27.60156 0.01452
C 20.97504 17.71255 0.04892
C 19.66479 17.04593 -0.00111
C 19.73477 15.63872 -0.03557
C 20.88357 14.80113 0.03754
C 20.91058 13.49996 0.01739
C 19.66463 12.69787 0.00755
C 19.68307 11.35074 -0.0054
C 20.886 10.68118 0.00667
C 20.86614 9.21109 0.00143
C 19.62569 8.43792 -0.017
C 19.5796 7.02812 0.00364
C 20.8336 6.36131 -0.00831
C 20.7899 4.95711 -0.02957
C 19.61023 4.25727 -0.04422
C 19.6537 2.79669 0.00654
C 20.82968 31.82345 0.02188
C 19.6014 32.6298 -0.00316
C 17.17931 0.01663 -0.0331
C 18.41648 0.72555 -0.0258
C 17.14925 32.6332 0.01848
C 18.35452 31.91704 -0.00619
C 18.39423 30.48964 -0.02162
C 17.17593 29.80929 0.00889
C 17.23349 28.38853 -0.00481
C 18.37396 27.66067 0.00979
C 18.05609 17.33474 0.01443
C 16.91113 16.96643 0.03505
C 18.63531 14.73902 -0.02815
C 15.98139 0.75986 -0.03113
C 18.48434 13.52985 -0.04147
C 18.37417 10.62128 0.00213
C 18.47919 9.17273 -0.00066
C 17.23925 8.49207 -0.00289
C 17.13986 7.06953 0.00028
C 18.40668 6.34482 -0.02213
C 18.44422 4.90084 0.03698
C 17.14379 4.34463 -0.00109
C 17.19212 2.86294 -0.00491
C 18.4307 2.13415 0.03338
C 17.16023 11.30977 -0.05302
C 20.90071 2.12516 -0.00703
C 11.08516 21.79416 0.00985
C 9.99545 24.17183 -0.01111
C 3.63313 5.02202 0.0276
C 2.44496 4.29695 0.01305
C 2.38591 2.91232 -0.00077
C 3.60267 2.15355 0.03368
C 3.61729 0.77795 -0.02929
C 2.37432 0.0135 -0.00966
C 4.87467 32.68272 -0.03337
C 6.12388 32.02942 0.01227
C 6.03586 30.59026 0.00873
C 4.7983 29.87016 -0.00049
C 4.84858 28.45285 0.00848
C 6.17042 27.76168 -0.01303
C 6.09075 26.35579 -0.01378
C 4.85245 25.59889 0.02635
C 4.90552 24.12712 0.0127
C 6.11644 23.55977 0.01396
C 6.07448 22.14138 0.01849
C 4.92497 21.3013 -0.01142
C 4.99874 19.89449 -0.00562
C 3.60889 6.43131 0.00988
C 2.41786 7.09635 -0.01343
C 2.5174 8.64305 0.01087
C 3.76073 9.39089 -0.05697
C 3.61155 30.55664 0.02374
C 2.35297 29.87059 0.00402
C 2.41893 28.43235 0.0073
C 3.625 27.75269 0.0174
C 3.61837 26.21913 0.03828
C 2.44085 25.5342 0.01226
C 2.38998 24.18044 -0.00279
C 3.6564 23.45632 0.01996
C 3.71501 22.02821 -0.03996
C 6.27744 19.18517 -0.00494
C 2.39987 21.3243 0.01465
C 3.82084 19.14163 -0.00518
C 3.84058 17.66075 0.0086
C 2.51335 17.09766 -0.00643
C 2.44988 15.71932 0.017
C 3.66282 15.00313 -0.03113
C 3.6192 13.62242 -0.02566
C 2.42438 12.83187 -0.00094
C 2.49475 11.4084 0.02322
C 3.81748 10.80863 -0.00725
C 2.48669 19.88572 -0.00074
C 11.10855 23.30187 -0.01275
C 6.18647 17.86149 0.00054
C 4.91653 15.58803 -0.00095
C 7.28098 21.46084 0.01291
C 7.47226 20.10988 0.00093
C 7.28435 8.4403 0.00057
C 7.30861 7.10543 -0.01634
C 8.56902 6.46809 -0.00334
C 8.60837 5.08693 0.02339
C 7.34598 4.27598 0.01641
C 7.36324 2.91397 -0.00719
C 8.54649 2.21876 0.01364
C 8.5422 0.70247 -0.01062
C 7.34655 0.03872 -0.00033
C 9.85134 32.64858 0.03589
C 11.09649 32.02627 -0.02759
C 11.11404 30.5691 0.0402
C 9.84644 29.92247 0.00572
C 9.90784 28.46503 0.03592
C 11.17522 27.73416 0.00406
C 11.19583 26.23396 0.00943
C 9.94336 25.58654 0.02841
C 8.55842 22.16519 0.00438
C 8.69353 23.5454 -0.00191
C 7.38111 24.28174 0.00373
C 7.37077 25.65287 0.02147
C 4.88225 13.10717 0.01572
C 5.01788 11.57396 -0.04848
C 6.22462 10.78835 -0.00892
C 6.27312 9.44096 -0.01362
C 4.98139 8.67018 -0.0008
C 4.93681 7.17386 0.0288
C 6.02739 6.36425 0.00393
C 6.12818 5.00133 0.00895
C 4.91645 4.27657 0.00685
C 5.06081 17.01344 0.03007
C 4.87061 2.89553 0.02888
C 6.02511 0.80696 -0.01384
C 4.82044 34.06693 0.03693
C 7.37637 32.71887 0.01745
C 8.59223 31.99115 0.00488
C 8.63073 30.54969 -0.01004
C 7.37853 29.89056 -0.02896
C 7.40036 28.49825 -0.00131
C 8.64885 27.73271 -0.01118
C 8.68839 26.32014 -0.014
C 6.16139 2.14865 -0.00482
C 20.83656 0.72344 -0.04076
C 19.61262 34.05616 -0.00652
C 22.06338 32.60256 0.0058
C 30.75368 2.17301 0.00716
C 30.70592 0.71526 0.00307
C 29.44699 0.0624 0.00346
C 31.92899 32.6495 0.01713
C 33.12015 32.0161 -0.01694
C 33.14069 30.56427 0.01428
C 32.00898 29.86687 -0.02142
C 31.96484 28.36341 0.0544
C 33.18164 27.69074 0.00026
C 33.21561 26.25053 0.00682
C 31.98907 25.50922 -0.01779
C 31.91604 24.13434 0.03794
C 33.14702 23.41834 0.01927
C 33.09836 21.99216 0.01574
C 31.83426 21.25265 -0.02383
C 31.87021 19.88315 -0.01429
C 33.16583 19.12579 -0.0136
C 33.14356 17.71067 0.00594
C 31.93752 17.08498 -0.02474
C 29.48215 2.79735 0.02108
C 29.43714 4.28763 0.0103
C 30.66218 5.019 0.07705
C 30.77237 6.42607 0.01908
C 30.73204 27.66374 0.02326
C 30.71308 26.26184 0.00261
C 29.52728 25.62917 0.03265
C 29.46598 24.12397 -0.02049
C 30.62358 23.40538 -0.01854
C 30.62468 22.01797 -0.01415
C 29.41475 21.33192 -0.03039
C 29.50544 19.84912 0.01836
C 30.65947 19.18193 0.03531
C 31.93743 15.66134 0.00369
C 30.65106 17.76464 -0.00669
C 29.45582 15.65139 0.01705
C 30.68266 14.89699 -0.0405
C 30.71134 13.52708 -0.01303
C 29.48532 12.82494 -0.01461
C 29.48335 11.33383 -0.02155
C 30.73763 10.66135 -0.00944
C 30.74866 9.25729 -0.03735
C 29.51773 8.53188 -0.00971
C 29.49892 7.04181 0.01518
C 29.47757 17.08003 0.0101
C 29.5682 28.39703 0.00924
C 33.12309 14.98276 0.00455
C 32.0402 12.79083 -0.01839
C 34.32061 19.87008 0.01951
C 1.19172 19.2045 -0.01678
C 1.25247 17.80134 0.01223
C 34.35717 17.03372 0.00648
C 0.01747 15.65497 0.02114
C 1.18929 15.00382 -0.02957
C 1.24063 13.5413 0.00343
C 0.05289 12.81793 -0.02656
C 0.02755 11.45062 -0.02442
C 1.23364 10.7394 -0.00027
C 1.18081 9.30042 -0.00583
C 0.00865 8.55659 -0.02302
C 34.40565 7.13554 -0.02849
C 1.19822 6.49608 0.02931
C 1.23001 5.00013 0.00628
C 0.02463 4.31622 -0.0345
C 34.3556 2.88802 -0.00931
C 1.19848 2.22404 -0.00939
C 1.08929 0.75994 -0.00468
C 34.30674 21.28837 -0.02213
C 1.19698 21.99191 0.02712
C 1.17518 23.44374 0.00723
C 34.43114 24.08559 0.03076
C 31.98865 11.39983 0.00137
C 33.21748 10.69596 0.00199
C 33.25179 9.23808 0.04381
C 32.0155 8.55385 0.02806
C 32.04267 7.10869 0.01504
C 33.18572 6.34524 -0.00069
C 33.23088 4.95183 0.04926
C 31.94587 4.27779 -0.03838
C 31.9541 2.84938 0.00349
C 33.2424 13.58861 -0.00644
C 33.12196 2.11948 -0.00323
C 31.93727 0.01096 0.0001
C 34.33518 32.68464 -0.02927
C 1.11389 31.98407 -0.01404
C 1.11641 30.61728 0.01027
C 34.36983 29.86169 0.01831
C 34.41359 28.449 -0.01037
C 1.22276 27.73304 -0.00439
C 1.24625 26.30217 -0.00598
C 0.03671 25.57934 -0.05239
C 33.15736 0.70105 -0.00841
C 29.46932 29.82657 0.0014
C 30.78058 30.53173 0.01324
C 30.69396 31.98771 0.04266
C 23.20878 0.63989 -0.02845
C 22.01326 34.05443 -0.03213
C 24.54296 32.60346 0.02239
C 25.78563 31.87258 0.01153
C 25.80314 30.46071 0.02734
C 24.5606 29.75377 -0.0055
C 24.62056 28.4109 0.01515
C 25.83574 27.60856 -0.00225
C 25.83403 26.17066 0.00071
C 24.53096 25.49113 -0.01107
C 24.53212 24.00901 -0.01586
C 25.90145 23.37609 -0.01971
C 25.7919 21.98693 -0.02118
C 24.40556 21.61318 0.00733
C 24.34284 20.05611 -0.00178
C 25.56241 19.23544 0.00768
C 25.74693 17.86321 -0.0276
C 24.5637 17.06535 0.03005
C 24.59131 15.61287 -0.04078
C 23.36359 2.01625 0.03374
C 22.10597 2.81819 0.0296
C 22.05556 4.22904 0.03046
C 23.32787 4.86071 -0.00381
C 23.28986 31.93647 -0.00865
C 23.28759 30.45902 0.00675
C 22.14079 29.79646 -0.00311
C 22.11012 28.38479 0.00742
C 23.43057 27.66233 -0.01594
C 23.36763 26.2132 0.0106
C 23.5864 22.87922 -0.01154
C 23.23879 19.15151 -0.01721
C 23.3695 17.66503 -0.02422
C 25.8324 14.83111 0.02117
C 22.08609 16.98717 0.01277
C 23.36702 14.91195 -0.01527
C 23.3881 13.50241 0.01087
C 22.06907 12.73202 0.00199
C 22.13227 11.33872 0.01511
C 23.37876 10.58076 -0.00478
C 23.33797 9.16373 -0.01662
C 22.09114 8.52768 -0.01185
C 22.04823 7.06193 0.01126
C 23.35552 6.32761 0.01852
C 22.10289 15.55222 0.00096
C 25.82494 13.41998 0.02737
C 24.54076 12.72714 -0.00498
C 24.64076 11.2871 0.00135
C 28.25729 19.14988 -0.00942
C 28.22804 17.81259 0.00487
C 27.05514 17.09893 0.00826
C 27.06458 15.64493 -0.00294
C 28.27658 14.88811 0.00152
C 28.2503 13.49432 0.01257
C 27.02766 12.76865 0.02316
C 27.10615 11.33572 0.04185
C 28.32513 10.65556 0.00194
C 26.84647 19.87955 -0.02815
C 28.24502 9.17905 -0.00621
C 26.99935 7.12368 0.02198
C 28.26727 6.38185 0.01094
C 28.27276 4.95525 0.00235
C 27.02084 4.20557 0.01495
C 26.97934 2.84979 0.01259
C 28.18689 2.10073 0.01799
C 28.28495 0.72258 0.01699
C 26.91611 34.00988 -0.00416
C 29.50657 32.67041 0.01177
C 27.06206 8.45866 0.02611
C 3.55754 32.01659 0.03267
C 26.97224 21.24815 0.00622
C 28.32249 23.37652 -0.00037
C 25.91545 10.63131 0.03102
C 25.95722 9.24082 0.02555
C 24.59287 8.52715 0.01423
C 24.5724 7.11785 -0.00285
C 25.75826 6.32952 -0.009
C 25.81426 4.88774 -0.01199
C 24.61682 4.23333 -0.00229
C 24.54781 2.79335 -0.00938
C 25.76135 2.07725 -0.0264
C 28.26236 22.00768 -0.0032
C 25.74039 0.59788 -0.01154
C 27.01924 32.58196 -0.01052
C 28.21487 31.90938 -0.01679
C 28.19107 30.50028 0.00367
C 27.0251 29.7674 0.04306
C 27.08028 28.29857 0.00996
C 28.25729 27.60869 0.00195
C 28.27769 26.23158 -0.00802
C 27.06948 25.49085 -0.00218
C 27.0865 24.04498 -0.01654
C 24.52503 34.03666 0.00684
C 2.43988 32.7514 -0.01509
