317
Graphene
C 34.34419 0.01381 0.01295
C 13.3462 10.68856 -0.00491
C 13.47737 9.23336 0.03338
C 12.24516 8.48418 -0.0258
C 12.2727 7.06864 -0.0331
C 13.51353 6.2975 -0.00316
C 13.51664 4.92169 0.02188
C 12.19401 4.26155 -0.01979
C 12.29771 2.7621 0.02691
C 13.48466 2.13468 -0.01581
C 13.50435 0.73722 0.01452
C 12.30172 0.01573 0.04892
C 14.72235 32.70619 -0.00111
C 16.03014 32.03052 -0.03557
C 15.99186 30.58136 0.03754
C 14.79594 29.90295 0.01739
C 12.15311 11.37242 -0.00109
C 12.32136 12.78884 0.03698
C 13.42421 13.62355 -0.02213
C 12.28269 15.40234 0.00028
C 9.8371 4.27761 -0.03113
C 9.80446 2.84214 0.02098
C 11.08106 2.15152 0.01848
C 11.06091 0.66046 -0.00619
C 9.80887 34.05326 -0.02162
C 12.40679 32.66164 0.00889
C 13.58367 31.91004 -0.00481
C 14.84671 28.52578 0.00755
C 13.52426 30.49213 0.00979
C 13.54085 27.85588 0.03505
C 13.58061 26.51442 -0.02815
C 14.5024 23.08245 -0.04147
C 13.31081 22.46923 -0.05302
C 12.33893 21.45596 0.00213
C 12.41706 19.82128 -0.00066
C 12.07788 16.66226 -0.00289
C 12.3564 29.76773 0.01443
C 16.05083 27.8678 -0.0054
C 16.01374 26.4865 0.00667
C 14.73237 25.68963 0.00143
C 16.99814 25.55836 0.00096
C 18.44233 9.33775 -0.01527
C 17.28824 8.60544 0.01087
C 17.1569 7.11216 0.00199
C 18.4432 6.44861 0.01511
C 18.41252 4.98741 -0.00478
C 17.1789 4.27471 -0.01662
C 18.21683 26.14448 0.01277
C 17.18386 2.88716 -0.01185
C 18.42491 0.80284 0.01852
C 17.20325 0.04687 -0.00381
C 19.65663 32.70255 0.03046
C 20.84949 32.05149 0.0296
C 20.82534 30.65328 0.03374
C 19.71545 29.83768 -0.02845
C 19.7879 28.4004 -0.03213
C 18.35484 2.24201 0.01126
C 10.99504 4.99114 0.0351
C 18.49435 27.6292 -0.02422
C 17.25279 29.78645 -0.01154
C 15.07543 24.30955 -0.017
C 14.66766 11.28793 0.00364
C 15.7979 10.73343 -0.00831
C 15.92359 9.19483 -0.02957
C 14.70079 8.45964 -0.04422
C 14.69032 7.00396 0.00654
C 15.9182 6.38269 -0.00703
C 17.28851 28.46139 -0.01721
C 15.92948 4.9377 -0.04076
C 14.72955 2.84322 0.0058
C 15.95044 2.15108 -0.00865
C 15.94351 0.71922 0.00675
C 14.7328 0.06467 -0.00311
C 17.21509 32.70469 0.00742
C 18.44666 31.99762 -0.01594
C 18.47068 30.50098 0.0106
C 14.72125 4.25558 -0.00652
C 11.07983 6.31935 0.00422
C 9.75793 7.1064 0.00798
C 9.79753 8.4768 0.00228
C 4.59507 32.67237 0.01364
C 4.65107 19.94949 -0.01062
C 6.00862 19.33048 -0.00033
C 6.1058 17.87067 0.03589
C 4.91249 17.07785 -0.02759
C 4.93927 15.63997 0.0402
C 6.10524 14.88102 0.00572
C 2.41341 0.01037 -0.00719
C 6.18112 13.47259 0.03592
C 4.83385 11.39779 0.00943
C 6.11447 10.66656 0.02841
C 6.16252 9.25782 -0.01111
C 4.89389 8.48875 -0.01275
C 4.87996 7.06571 0.00985
C 6.13827 6.38106 -0.02245
C 6.12278 4.94316 -0.00428
C 4.8996 12.76467 0.00406
C 4.87823 4.24899 0.03101
C 3.60657 0.83289 0.01641
C 2.36521 2.8628 -0.00334
C 2.38788 19.84455 0.03693
C 3.64454 19.11441 0.01745
C 3.6553 17.66953 0.00488
C 2.38384 17.05163 -0.01004
C 2.44267 15.65708 -0.02896
C 3.672 14.96263 -0.00131
C 3.60936 13.53314 -0.01118
C 3.57032 2.19171 0.02339
C 2.39491 12.75793 -0.014
C 3.63568 10.63985 0.00373
C 3.62887 9.23698 -0.00191
C 2.39305 8.53353 0.00438
C 2.38538 7.07419 0.01291
C 3.57817 6.37216 0.00093
C 3.64433 4.97047 0.00057
C 2.4522 4.24275 -0.01634
C 2.44112 11.31946 0.02147
C 21.04046 27.75382 0.02239
C 4.8688 2.84258 -0.01536
C 6.11644 0.67249 -0.01046
C 7.2636 34.05806 0.02299
C 10.03181 32.6762 0.00244
C 11.06715 31.94631 -0.01717
C 10.91085 21.80123 0.05265
C 9.70868 21.25666 -0.01952
C 9.74014 19.84698 -0.02813
C 11.01793 19.21549 0.00374
C 8.49977 0.7063 0.03542
C 11.05693 17.74449 0.00052
C 9.81488 15.5353 0.01965
C 10.94176 14.73663 0.02058
C 10.97085 13.3768 -0.01957
C 9.66073 12.73134 -0.0108
C 9.75953 11.31943 -0.00368
C 10.95033 10.58258 -0.02696
C 11.06005 9.15377 -0.00114
C 9.94836 16.96689 -0.03682
C 6.09166 2.16937 -0.02689
C 8.55312 2.12957 0.01416
C 7.36849 4.29477 -0.01454
C 4.81932 34.06478 -0.00891
C 7.28454 19.95349 0.02819
C 8.49224 19.06271 0.00165
C 8.67455 17.61401 -0.02971
C 7.35078 17.11102 0.02894
C 7.27748 15.65875 -0.01789
C 8.51105 14.98937 0.00444
C 7.25676 2.82577 0.01945
C 8.50695 13.53742 -0.00925
C 7.37882 11.34145 0.01363
C 8.60694 10.57334 -0.02162
C 8.60715 9.12741 0.00415
C 7.35099 8.46247 -0.0014
C 7.33991 7.08487 0.02162
C 8.53709 6.40053 0.0076
C 8.60559 4.94556 0.01241
C 7.3472 12.7135 0.01877
C 2.62492 21.20784 -0.01384
C 20.9093 26.38877 0.01153
C 21.01498 9.20368 -0.0055
C 33.08061 26.24157 0.03794
C 31.88388 25.56742 0.01927
C 32.06671 24.18681 0.01574
C 33.28635 23.54201 -0.02383
C 33.35378 22.15557 -0.01429
C 32.08113 21.3856 -0.0136
C 31.97927 19.93931 0.00594
C 33.14969 19.20739 -0.02474
C 33.1349 17.78883 0.00369
C 31.86378 17.13507 0.00455
C 31.82784 15.64787 -0.00644
C 33.12073 14.94321 -0.01839
C 33.18399 13.53919 0.00137
C 31.93248 12.8804 0.00199
C 31.9373 11.37111 0.04381
C 33.1014 27.69418 -0.01779
C 31.92438 28.4634 0.00682
C 31.9602 29.83699 0.00026
C 33.17724 30.50257 0.0544
C 30.52145 13.67476 -0.02155
C 29.43625 12.84847 -0.00944
C 29.47475 11.33571 -0.03735
C 30.70835 10.6255 -0.00971
C 30.70301 9.20635 0.01518
C 29.49527 8.48215 0.01908
C 29.49243 7.08693 0.07705
C 33.16101 10.74708 0.02806
C 30.73815 6.36675 0.0103
C 29.39564 4.2366 0.00716
C 29.42493 2.78038 0.00307
C 30.67742 2.11014 0.00346
C 30.68267 0.66336 0.01713
C 29.40505 0.02793 -0.01694
C 31.98627 32.5852 0.01428
C 33.2972 31.92485 -0.02142
C 30.62774 4.89448 0.02108
C 33.2133 9.26299 0.01504
C 32.00303 8.4657 -0.00069
C 32.03409 7.02188 0.04926
C 34.40881 17.0874 0.00648
C 34.3737 15.6563 0.02114
C 1.18536 14.9872 -0.02957
C 1.14166 13.50433 0.00343
C 34.39906 12.857 -0.02656
C 34.39397 11.43223 -0.02442
C 1.20682 10.63616 -0.00027
C 1.16806 17.77817 0.01223
C 1.18664 9.22594 -0.00583
C 34.40218 7.1289 -0.02849
C 1.16817 6.40989 0.02931
C 1.18893 4.92498 0.00628
C 34.3441 4.25444 -0.0345
C 34.38256 2.80602 -0.00931
C 1.1687 2.11691 -0.00939
C 1.15016 0.73199 -0.00468
C 34.37176 8.52594 -0.02302
C 30.62354 15.08219 -0.01461
C 1.11856 19.16375 -0.01678
C 0.10496 21.38541 -0.02213
C 33.23975 6.40311 -0.03838
C 33.13491 4.93825 0.00349
C 31.90155 4.26442 -0.00323
C 31.95633 2.83917 -0.00841
C 33.16426 2.10329 0.0001
C 33.10225 0.72151 -0.02927
C 31.91543 34.0012 -0.01404
C 34.42892 19.99323 0.01951
C 0.11805 32.63634 0.01027
C 1.18183 30.65795 -0.01037
C 0.08821 29.84838 -0.00439
C 34.31512 28.35619 -0.00598
C 34.34324 25.69822 -0.05239
C 0.07548 24.31119 0.03076
C 1.2723 23.52143 0.00723
C 1.42288 22.10209 0.02712
C 1.42288 32.04721 0.01831
C 29.35938 15.91482 -0.01303
C 29.34648 17.45844 -0.0405
C 30.7669 17.89792 0.01705
C 22.05345 2.85821 -0.00285
C 23.22722 2.093 -0.009
C 23.30897 0.72172 -0.01199
C 22.06142 0.03414 -0.00229
C 24.51628 32.69529 -0.00938
C 25.67359 31.93138 -0.0264
C 25.60756 30.47572 -0.01154
C 22.0684 4.29405 0.01423
C 24.41666 29.79516 0.00684
C 25.8128 9.07074 -0.01679
C 24.5924 8.42347 0.00367
C 24.63117 6.96786 0.04306
C 25.82226 6.30514 0.00996
C 25.76748 4.92348 0.00195
C 24.49699 4.28936 -0.00802
C 24.46164 2.86258 -0.00218
C 25.71891 10.41317 -0.01052
C 25.70665 2.19087 -0.01654
C 23.36098 5.04699 0.02555
C 22.19569 7.15556 0.00135
C 19.71635 8.6069 0.01515
C 19.60314 7.18004 -0.00225
C 20.90122 6.53093 0.00071
C 20.85607 5.08625 -0.01107
C 19.60782 4.36513 -0.01586
C 19.62479 2.94665 -0.01971
C 20.8262 2.18545 -0.02118
C 23.35733 6.42407 0.03102
C 20.83856 0.76295 0.00733
C 22.10721 32.73604 0.00768
C 23.27597 32.06493 -0.0276
C 23.2615 30.63511 0.03005
C 22.04595 29.96353 -0.04078
C 22.34919 28.5377 0.02117
C 23.50981 9.17975 0.02737
C 22.18471 8.63138 -0.00498
C 19.601 0.07084 -0.00178
C 19.75018 25.49414 0.02734
C 25.78678 0.73339 -0.00037
C 26.89941 32.56098 0.00622
C 28.1541 0.62993 0.01177
C 26.90559 34.00839 0.04266
C 29.36022 32.63038 0.01324
C 30.6086 31.86966 0.0014
C 30.65898 30.4898 0.00924
C 29.38253 29.78047 0.02326
C 29.4414 28.30417 0.00261
C 28.22525 2.12201 -0.00416
C 30.64621 27.67745 0.03265
C 29.49005 25.29378 -0.01854
C 29.39437 24.01134 -0.01415
C 30.81487 23.36858 -0.03039
C 30.799 22.01106 0.01836
C 29.41986 21.37302 0.03531
C 29.39804 19.77168 -0.00669
C 30.81733 19.23372 0.0101
C 30.62245 26.27233 -0.02049
C 24.52265 0.01591 -0.0032
C 26.97598 2.85632 0.01699
C 28.16579 4.98589 0.01259
C 28.10589 31.9366 -0.02815
C 28.10171 30.47796 -0.00942
C 26.86849 29.71495 0.00487
C 27.08427 28.33614 0.00826
C 28.21019 27.6866 -0.00294
C 28.53665 22.48223 0.00152
C 28.68115 18.45164 0.01257
C 26.97882 4.2608 0.01799
C 28.28186 15.02032 0.02316
C 27.05686 12.6753 0.00194
C 26.91826 11.31335 -0.00621
C 28.25246 10.57385 0.02611
C 28.27236 9.21144 0.02198
C 27.03263 8.45541 0.01094
C 26.99423 7.07561 0.00235
C 28.30167 6.4304 0.01495
C 28.1004 13.59948 0.04185
C 2.76403 32.79213 -0.00482
