327
Graphene
C 0.02802 0.02518 0.01295
C 11.14232 23.42139 0.00213
C 11.15622 21.94562 -0.00066
C 9.86422 21.22497 -0.00289
C 9.81175 19.8233 0.00028
C 11.15773 18.98312 -0.02213
C 11.15978 17.45699 0.03698
C 9.80086 16.98154 -0.00109
C 9.97295 24.04746 -0.05302
C 9.79666 15.62192 -0.00491
C 10.88303 13.7097 -0.0258
C 9.86135 12.74993 -0.0331
C 9.8359 11.37416 -0.00316
C 11.05876 10.66331 0.02188
C 11.31784 9.38412 -0.01979
C 9.94434 8.46168 0.02691
C 9.83024 7.1366 -0.01581
C 11.10734 15.18685 0.03338
C 9.92672 25.54247 -0.04147
C 11.06216 26.37024 -0.02815
C 11.07861 27.76751 0.03505
C 7.32733 11.19825 -0.0108
C 8.5742 10.62723 -0.00368
C 8.65482 9.14761 -0.02696
C 7.45459 8.51504 -0.00114
C 7.35372 7.09403 0.00228
C 8.58096 6.42915 0.00798
C 8.61605 5.04945 0.00422
C 7.42471 4.2976 0.0351
C 7.42048 2.89484 -0.03113
C 8.58968 2.20265 0.02098
C 8.59627 0.7345 0.01848
C 7.39468 0.02713 -0.00619
C 9.89155 32.76465 -0.02162
C 11.02011 31.90211 0.00889
C 10.96323 30.59979 -0.00481
C 9.73054 29.82513 0.00979
C 9.77774 28.39089 0.01443
C 10.95761 6.3975 0.01452
C 7.28969 12.74264 -0.01957
C 11.11713 4.95928 0.04892
C 9.76597 2.91887 -0.03557
C 12.4062 4.29607 0.0106
C 12.33783 2.86516 -0.01154
C 13.51844 2.17208 -0.01721
C 13.4335 0.73898 -0.02422
C 12.1648 0.02773 0.01277
C 14.72877 32.66437 0.00096
C 15.91979 31.95856 -0.01527
C 13.61096 5.10452 -0.01594
C 15.90486 30.54294 0.01087
C 14.65359 28.43237 0.01511
C 15.88441 27.82573 -0.00478
C 16.02696 26.41058 -0.01662
C 14.85758 25.61885 -0.01185
C 14.95134 24.27558 0.01126
C 14.58504 7.18447 0.01852
C 15.99087 6.71528 -0.00381
C 14.68052 29.8343 0.00199
C 13.45665 6.46623 0.00742
C 12.20679 7.13335 -0.00311
C 12.42422 8.49735 0.00675
C 11.05393 2.25076 0.03754
C 11.04048 0.87586 0.01739
C 9.85612 0.1386 0.00755
C 12.26105 32.63656 -0.0054
C 13.50732 32.02662 0.00667
C 13.50431 30.52022 0.00143
C 12.23607 29.84557 -0.017
C 12.30188 28.4772 0.00364
C 13.49868 27.71604 -0.00831
C 13.5316 26.34366 -0.02957
C 12.32965 25.5841 -0.04422
C 12.38904 24.184 0.00654
C 13.64478 23.50304 -0.00703
C 13.54911 22.03953 -0.04076
C 12.45075 21.13508 -0.00652
C 12.34193 19.72028 0.0058
C 11.9457 16.24608 -0.00865
C 9.90306 4.29271 -0.00111
C 16.12666 5.1091 0.03046
C 8.54908 13.44057 0.02058
C 7.37648 15.61392 -0.03682
C 2.40041 8.47956 0.00438
C 2.31966 7.10358 0.01291
C 3.6412 6.41476 0.00093
C 3.69832 4.95945 0.00057
C 2.39079 4.32809 -0.01634
C 2.50277 2.88004 -0.00334
C 3.74389 2.26365 0.02339
C 3.65051 9.20599 -0.00191
C 3.71931 0.79182 0.01641
C 4.96778 32.7588 0.01364
C 6.12499 32.03801 -0.01062
C 6.11738 30.48709 -0.00033
C 4.92659 29.81425 0.03589
C 4.89538 28.43437 -0.02759
C 6.19607 27.71125 0.0402
C 6.14223 26.28256 0.00572
C 2.53816 0.03906 -0.00719
C 3.54119 10.65946 0.00373
C 2.28961 11.37714 0.02147
C 2.24907 12.79874 -0.014
C 3.69127 30.61186 -0.00892
C 2.4037 29.88207 -0.01362
C 2.42887 28.48947 -0.0008
C 3.60579 27.76853 0.0288
C 3.64204 26.33138 0.00393
C 2.36493 25.58204 0.00895
C 2.39326 24.22356 0.00685
C 3.65571 23.47641 0.02888
C 3.64397 22.09155 -0.00482
C 2.38142 21.39935 -0.01384
C 2.41655 19.98139 0.03693
C 3.62592 19.20826 0.01745
C 3.62038 17.86765 0.00488
C 2.28724 17.0751 -0.01004
C 2.35305 15.59362 -0.02896
C 3.54161 14.92778 -0.00131
C 3.49545 13.44973 -0.01118
C 4.8925 25.68875 0.03592
C 8.52483 14.84875 0.01965
C 4.90846 24.22306 0.00406
C 6.15273 22.00077 0.02841
C 7.37085 32.6905 -0.0014
C 8.63701 32.01735 0.02162
C 8.60569 30.55691 0.0076
C 7.39985 29.8305 0.01241
C 7.43599 28.41075 -0.01454
C 8.59887 27.67163 0.01945
C 8.60718 26.24478 0.01416
C 4.92829 0.09262 0.00415
C 7.29952 25.53988 0.03542
C 8.69586 23.38661 0.00244
C 8.65282 21.97614 -0.01717
C 7.44894 21.3109 0.05265
C 7.40043 19.94428 -0.01952
C 8.57431 19.20106 -0.02813
C 8.59141 17.76999 0.00374
C 7.33356 16.97905 0.00052
C 7.39413 24.12635 0.02299
C 6.14899 0.7925 -0.02162
C 6.24236 2.16635 0.01363
C 4.98586 2.80215 0.01877
C 4.92651 21.27138 -0.01111
C 4.88662 19.88371 -0.01275
C 6.13603 19.12946 0.00985
C 6.14042 17.65314 -0.02245
C 4.91805 17.08953 -0.00428
C 4.86602 15.61253 0.03101
C 6.13751 14.94262 -0.01536
C 6.0998 13.53286 -0.02689
C 4.77123 12.78858 -0.01046
C 4.83508 11.30564 -0.00891
C 6.08718 10.53135 0.02819
C 6.15715 9.25297 0.00165
C 4.93906 8.52223 -0.02971
C 4.86304 7.0687 0.02894
C 6.09156 6.40423 -0.01789
C 6.14358 5.00852 0.00444
C 4.9223 4.24361 -0.00925
C 6.10206 23.35589 0.00943
C 3.73655 32.04009 -0.04848
C 14.91376 4.37396 0.0296
C 15.96753 2.2221 -0.02845
C 33.06578 26.31874 0.00682
C 31.87139 25.57441 -0.01779
C 31.90469 24.15004 0.03794
C 33.18805 23.3982 0.01927
C 33.16374 22.00334 0.01574
C 31.82909 21.36428 -0.02383
C 31.92864 19.94533 -0.01429
C 33.0665 27.69979 0.00026
C 33.16848 19.27529 -0.0136
C 31.80204 17.13931 -0.02474
C 31.81376 15.65099 0.00369
C 33.04602 14.8173 0.00455
C 32.9878 13.38031 -0.00644
C 31.63699 12.50988 -0.01839
C 31.63966 11.03539 0.00137
C 32.97125 10.59765 0.00199
C 33.08617 17.81791 0.00594
C 31.89247 28.38812 0.0544
C 31.98571 29.83101 -0.02142
C 33.18649 30.54882 0.01428
C 29.40538 21.48476 -0.0405
C 29.5087 20.13342 -0.01303
C 30.55565 19.18458 -0.01461
C 30.60541 17.79888 -0.02155
C 30.74118 14.80384 -0.00944
C 30.74986 13.56693 -0.03735
C 31.11501 9.94149 -0.00971
C 29.00773 6.46122 0.01518
C 30.44169 6.28321 0.01908
C 30.70135 4.88831 0.07705
C 29.43193 4.10514 0.0103
C 29.54203 2.80501 0.02108
C 30.84373 2.06202 0.00716
C 30.7556 0.64188 0.00307
C 29.52345 33.94953 0.00346
C 31.84571 32.60637 0.01713
C 33.12565 31.97366 -0.01694
C 33.06908 9.22027 0.04381
C 30.65855 22.05161 0.01705
C 31.72654 8.62214 0.02806
C 32.97404 6.45282 -0.00069
C 34.30187 17.09346 0.00648
C 34.21046 15.6228 0.02114
C 1.05585 14.89051 -0.02957
C 0.98431 13.50838 0.00343
C 34.21331 12.70927 -0.02656
C 34.16022 11.32735 -0.02442
C 0.99262 10.64714 -0.00027
C 1.08513 17.78897 0.01223
C 1.05009 9.21172 -0.00583
C 34.27347 7.18543 -0.02849
C 1.04763 6.4588 0.02931
C 1.17584 5.03778 0.00628
C 34.40366 4.2816 -0.0345
C 0.01284 2.89789 -0.00931
C 1.29209 2.14289 -0.00939
C 1.26352 0.71564 -0.00468
C 34.35143 8.54301 -0.02302
C 1.20211 19.20993 -0.01678
C 0.02002 19.94564 0.01951
C 0.01788 21.3303 -0.02213
C 33.12437 5.00891 0.04926
C 31.94247 4.26273 -0.03838
C 32.03759 2.85465 0.00349
C 33.24368 2.12488 -0.00323
C 33.18523 0.71247 -0.00841
C 31.95161 0.02378 0.0001
C 34.40047 32.67767 -0.02927
C 1.24753 32.02811 -0.01404
C 1.23015 30.59373 0.01027
C 34.37483 29.85745 0.01831
C 34.33402 28.5067 -0.01037
C 1.14989 27.73961 -0.00439
C 1.11917 26.29661 -0.00598
C 34.29498 25.60252 -0.05239
C 34.30462 24.14328 0.03076
C 1.1687 23.50696 0.00723
C 1.19412 22.11362 0.02712
C 31.68357 7.16628 0.01504
C 14.76345 2.91347 0.03374
C 30.7197 23.45192 0.0101
C 29.4349 25.52291 0.03531
C 19.52854 29.9732 0.00135
C 19.47752 28.54723 0.03102
C 20.59791 27.61294 0.02555
C 20.35748 26.30809 0.01423
C 20.12267 4.24933 -0.00285
C 19.81613 2.87943 -0.009
C 20.9579 2.01468 -0.01199
C 20.84329 30.56006 -0.00498
C 20.88357 0.64819 -0.00229
C 22.05709 32.64235 -0.0264
C 23.29476 31.87761 -0.01154
C 23.27344 30.49206 0.00684
C 21.9923 29.77671 -0.01052
C 21.94312 28.38601 -0.01679
C 23.09071 27.65991 0.00367
C 23.16436 26.1906 0.04306
C 19.6296 0.00622 -0.00938
C 20.89028 31.9202 0.02737
C 19.62942 32.65256 0.02117
C 17.20014 0.11667 -0.04078
C 16.01873 0.82405 -0.03213
C 14.77819 0.10231 0.02239
C 17.22006 32.67021 0.01153
C 18.41832 31.9445 0.02734
C 18.39014 30.6 -0.0055
C 17.19007 29.92465 0.01515
C 17.11404 28.44113 -0.00225
C 18.30738 27.82673 0.00071
C 18.66604 26.36718 -0.01107
C 17.33796 25.80976 -0.01586
C 17.41155 7.02569 -0.01971
C 18.38979 6.43355 -0.02118
C 18.88587 5.01764 0.00733
C 17.37933 4.4144 -0.00178
C 17.19476 2.9824 0.00768
C 18.56088 2.27556 -0.0276
C 18.44594 0.85811 0.03005
C 21.72301 4.18656 0.00996
C 29.57706 24.12583 -0.00669
C 22.24717 2.87293 0.00195
C 23.4292 0.78713 -0.00218
C 26.85099 25.17069 0.01799
C 27.00453 23.79468 0.01699
C 28.48334 23.27694 -0.00416
C 28.26445 5.00287 0.01177
C 26.95362 4.2243 0.04266
C 27.10334 2.77167 0.01324
C 28.28851 2.05732 0.0014
C 28.05163 26.1776 0.01259
C 28.29502 0.6218 0.00924
C 29.48866 32.57728 0.00261
C 30.68844 31.90775 0.03265
C 30.67885 30.46422 -0.02049
C 29.48402 29.7233 -0.01854
C 29.43855 28.33043 -0.01415
C 30.68191 27.66002 -0.03039
C 30.6525 26.22987 0.01836
C 27.05066 33.99991 0.02326
C 28.10091 27.60947 0.01495
C 26.93229 28.29514 0.00235
C 27.00156 29.71532 0.01094
C 22.18616 34.07142 -0.01654
C 24.56163 32.56659 -0.00037
C 25.80296 31.84568 -0.0032
C 25.72644 30.41656 0.00622
C 24.49101 29.79047 -0.02815
C 24.41673 28.35114 -0.00942
C 25.58073 27.60457 0.00487
C 25.58115 26.02006 0.00826
C 24.22769 25.58809 -0.00294
C 25.29036 4.20524 0.00152
C 24.72386 2.88414 0.01257
C 25.93423 2.03165 0.02316
C 25.89031 0.64683 0.04185
C 24.63573 34.04193 0.00194
C 26.99778 32.59868 -0.00621
C 28.24702 31.85869 0.02611
C 28.14027 30.41477 0.02198
C 23.47916 2.21327 -0.00802
C 2.50702 32.73277 0.01572
