366
Graphene
C 34.38296 0.00691 0.01295
C 14.70702 21.16718 0.00374
C 15.55111 9.63825 0.00052
C 15.21697 8.36133 -0.03682
C 14.57118 7.1492 0.01965
C 16.07828 5.00889 0.02058
C 14.82847 4.33461 -0.01957
C 14.78352 2.84645 -0.0108
C 16.00675 2.11718 -0.00368
C 15.93809 21.94149 -0.02813
C 16.00683 0.66146 -0.02696
C 17.32854 32.64654 0.00228
C 18.58783 31.94338 0.00798
C 18.52718 30.55096 0.00422
C 17.20855 29.88289 0.0351
C 16.9948 28.41107 -0.03113
C 18.23461 27.69101 0.02098
C 18.32314 26.23296 0.01848
C 17.13342 25.45737 -0.00619
C 14.85163 33.90222 -0.00114
C 15.8879 23.286 -0.01952
C 14.68255 24.06846 0.05265
C 14.66723 25.56704 -0.01717
C 11.08747 0.61835 -0.02971
C 9.81598 34.03301 0.02894
C 12.3644 28.43953 -0.01789
C 13.66111 27.8063 0.00444
C 13.48264 26.38492 -0.00925
C 12.30181 25.59757 0.01877
C 12.26475 24.19726 0.01363
C 13.4109 23.41723 -0.02162
C 13.59295 22.10645 0.00415
C 12.32802 7.26519 -0.0014
C 13.48397 6.4411 0.02162
C 13.59036 4.98272 0.0076
C 12.30762 4.32177 0.01241
C 12.33143 2.73599 -0.01454
C 13.53507 1.92094 0.01945
C 13.46272 0.29378 0.01416
C 12.23248 33.89509 0.03542
C 15.78486 27.6989 0.02299
C 15.90384 26.24465 0.00244
C 17.13346 24.0351 -0.02162
C 18.32966 23.43218 0.00889
C 18.40098 22.04648 -0.00481
C 17.21537 21.29269 0.00979
C 20.78953 19.19908 -0.00111
C 20.82626 17.73809 -0.03557
C 19.66135 17.08563 0.03754
C 19.64057 15.68198 0.01739
C 20.81549 14.89669 0.00755
C 20.85516 13.39291 -0.0054
C 19.66101 12.67244 0.00667
C 19.74334 11.24157 0.00143
C 20.93833 10.55693 -0.017
C 19.74273 2.73612 0.00364
C 21.00903 1.99796 -0.00831
C 20.94923 0.65823 -0.02957
C 19.71616 0.01182 -0.04422
C 22.14755 32.67672 0.00654
C 23.30597 31.83061 -0.00703
C 23.28813 30.45102 -0.04076
C 22.08669 29.78456 -0.00652
C 22.02189 28.36964 0.0058
C 23.2688 27.66006 -0.00865
C 19.50572 19.86817 0.04892
C 11.06462 2.07004 0.00165
C 19.58986 21.33677 0.01452
C 20.79694 23.46924 0.02691
C 17.26743 19.96786 0.01443
C 18.26117 19.08319 0.03505
C 18.49412 17.79295 -0.02815
C 18.54025 14.83559 -0.04147
C 18.52615 13.58729 -0.05302
C 18.40106 10.79469 0.00213
C 17.13986 2.87884 -0.00066
C 18.40672 2.2806 -0.00289
C 18.52003 0.76724 0.00028
C 17.29353 34.07675 -0.02213
C 19.77646 32.6794 0.03698
C 20.97165 31.87931 -0.00109
C 20.90009 30.50105 -0.00491
C 19.71223 29.74119 0.03338
C 19.61686 28.31847 -0.0258
C 20.82396 27.63119 -0.0331
C 20.87096 26.3061 -0.00316
C 19.61505 25.58646 0.02188
C 19.5856 24.13201 -0.01979
C 20.87345 22.00848 -0.01581
C 9.8747 2.85207 0.02819
C 9.83827 4.26171 -0.00891
C 11.05017 4.96388 -0.01046
C 3.71949 6.49025 -0.00049
C 3.69383 5.08703 0.00848
C 2.49821 4.30661 -0.01303
C 2.42323 2.90827 -0.01378
C 3.71332 2.20699 0.02635
C 3.71235 0.80239 0.0127
C 2.42389 0.04051 0.01396
C 4.9095 32.7478 0.01849
C 6.1205 32.06661 -0.01142
C 6.18789 30.58938 -0.00562
C 4.95223 29.87375 -0.00494
C 4.90812 28.4399 0.00054
C 6.12279 27.72901 0.03007
C 6.11661 26.32673 -0.00095
C 4.90527 25.56756 0.01572
C 4.89246 24.15114 -0.04848
C 6.1232 23.40591 -0.00892
C 6.08538 22.01172 -0.01362
C 4.95064 21.29479 -0.0008
C 2.50393 7.19549 0.00873
C 4.7915 19.94068 0.0288
C 2.47734 8.58125 0.01227
C 3.73136 10.73036 -0.00966
C 3.69201 30.61748 -0.00074
C 2.49834 29.86971 -0.00518
C 2.49138 28.4137 0.0086
C 3.64481 27.65557 -0.00643
C 3.6418 26.27669 0.017
C 2.39619 25.61979 -0.03113
C 2.4078 24.21444 -0.02566
C 3.62802 23.52549 -0.00094
C 3.61664 22.08187 0.02322
C 2.50888 21.28063 -0.00725
C 2.52096 19.84823 -0.05697
C 3.89784 18.99784 0.01087
C 3.70521 17.6528 -0.01343
C 2.44634 17.01924 0.00988
C 2.3413 15.68612 0.0276
C 3.52031 14.87894 0.01305
C 3.62919 13.54263 -0.00077
C 2.47413 12.85818 0.03368
C 2.51441 11.43158 -0.02929
C 3.70525 9.30182 -0.03337
C 23.32521 26.25269 0.00675
C 4.84895 11.55196 0.00393
C 4.93235 8.63752 0.00685
C 8.55516 4.94066 0.01364
C 7.40079 4.30534 -0.01062
C 7.36491 2.90432 -0.00033
C 8.57049 2.19013 0.03589
C 8.55619 0.71256 -0.02759
C 7.30756 0.02721 0.0402
C 9.90243 32.6528 0.00572
C 11.18878 32.04472 0.03592
C 11.19612 30.59668 0.00406
C 9.93464 29.86806 0.00943
C 9.89139 28.51752 0.02841
C 11.15629 27.69442 -0.01111
C 11.06178 26.30272 -0.01275
C 9.7918 25.58247 0.00985
C 9.79823 24.19882 -0.02245
C 11.01777 23.48517 -0.00428
C 10.95575 22.05161 0.03101
C 9.82142 6.87661 -0.01536
C 11.13979 6.54482 -0.02689
C 8.60636 6.28222 -0.00719
C 6.17702 9.22732 0.00895
C 7.41698 7.09573 0.01641
C 7.36038 21.40126 -0.00334
C 4.93729 7.1862 0.02888
C 6.14316 6.46995 -0.00482
C 6.18023 5.00656 -0.01384
C 4.96581 4.34319 0.03693
C 4.93211 2.90679 0.01745
C 6.13483 2.1935 0.00488
C 6.09416 0.77603 -0.01004
C 4.92323 0.07952 -0.02896
C 7.31426 32.72703 -0.00131
C 8.63714 32.00597 -0.01118
C 8.68807 30.59875 -0.014
C 7.43316 29.87064 0.02147
C 7.35501 28.44272 0.00373
C 8.59798 27.74467 -0.00191
C 8.57157 26.26867 0.00438
C 7.24044 25.57162 0.01291
C 7.30652 24.18529 0.00093
C 8.53872 23.49719 0.00057
C 8.4691 22.12003 -0.01634
C 7.24094 8.45841 0.02339
C 22.07724 25.57904 -0.00311
C 22.01512 24.17633 0.00742
C 23.25313 23.424 -0.01594
C 30.73723 0.76704 0.00307
C 29.47116 0.07269 0.00346
C 31.91431 32.67357 0.01713
C 33.20703 31.99539 -0.01694
C 33.17997 30.55338 0.01428
C 31.92641 29.81583 -0.02142
C 31.88878 28.39564 0.0544
C 33.11317 27.74625 0.00026
C 33.14626 26.30751 0.00682
C 31.95914 25.54836 -0.01779
C 31.91546 24.1121 0.03794
C 33.18269 23.45706 0.01927
C 33.18275 22.04685 0.01574
C 31.99637 21.33878 -0.02383
C 32.03558 19.89511 -0.01429
C 33.25273 19.18885 -0.0136
C 33.19866 17.81412 0.00594
C 32.00826 17.14524 -0.02474
C 31.96427 15.65441 0.00369
C 30.71302 2.1453 0.00716
C 33.16998 14.9478 0.00455
C 29.49983 2.87379 0.02108
C 30.75586 4.97038 0.07705
C 29.4493 25.59533 0.03265
C 29.44534 24.11991 -0.02049
C 30.669 23.40535 -0.01854
C 30.6407 21.9781 -0.01415
C 29.44648 21.30102 -0.03039
C 29.50494 19.86321 0.01836
C 30.74236 19.17363 0.03531
C 30.81167 17.7881 -0.00669
C 29.58233 17.04426 0.0101
C 29.52214 15.58802 0.01705
C 30.76136 14.85833 -0.0405
C 30.77055 13.42636 -0.01303
C 29.54189 12.78704 -0.01461
C 29.54133 11.37694 -0.02155
C 30.76743 10.59513 -0.00944
C 30.6956 9.23736 -0.03735
C 29.44769 8.51483 -0.00971
C 29.47744 7.06747 0.01518
C 30.69132 6.41509 0.01908
C 29.50026 4.24879 0.0103
C 30.65819 26.2932 0.00261
C 33.15892 13.56284 -0.00644
C 31.97543 11.31596 0.00137
C 34.42975 19.92966 0.01951
C 1.28003 19.192 -0.01678
C 1.22413 17.75975 0.01223
C 34.41795 17.01121 0.00648
C 34.38743 15.63084 0.02114
C 1.18555 14.93119 -0.02957
C 1.23825 13.53403 0.00343
C 34.41894 12.80976 -0.02656
C 34.4316 11.42418 -0.02442
C 1.23925 10.7165 -0.00027
C 1.20208 9.20408 -0.00583
C 34.38829 8.51944 -0.02302
C 34.39718 7.12753 -0.02849
C 1.18006 6.43652 0.02931
C 1.22994 5.01432 0.00628
C 0.05178 4.30418 -0.0345
C 0.00785 2.91669 -0.00931
C 1.22506 2.15601 -0.00939
C 1.16594 0.71965 -0.00468
C 34.43236 21.33553 -0.02213
C 31.97219 12.76011 -0.01839
C 1.21029 22.04034 0.02712
C 34.35557 24.17972 0.03076
C 33.18258 10.62875 0.00199
C 33.18675 9.24759 0.04381
C 31.97396 8.45623 0.02806
C 31.91278 7.0405 0.01504
C 33.21805 6.40422 -0.00069
C 33.24357 4.99271 0.04926
C 32.00986 4.26743 -0.03838
C 31.98841 2.87815 0.00349
C 33.20826 2.18342 -0.00323
C 33.17266 0.75948 -0.00841
C 31.95004 0.04679 0.0001
C 0.01483 32.6635 -0.02927
C 1.23331 31.98109 -0.01404
C 1.23128 30.54234 0.01027
C 34.38786 29.85714 0.01831
C 34.35373 28.48175 -0.01037
C 1.13478 27.73918 -0.00439
C 1.1614 26.38365 -0.00598
C 34.38497 25.62461 -0.05239
C 1.18991 23.48345 0.00723
C 3.67949 32.03012 0.01465
C 30.64313 27.70199 0.02326
C 29.44783 29.81144 0.0014
C 25.72842 30.49453 0.02734
C 24.53969 29.81028 -0.0055
C 24.5444 28.37645 0.01515
C 25.77444 27.61056 -0.00225
C 25.75038 26.25603 0.00071
C 24.53667 25.52007 -0.01107
C 24.52445 24.11626 -0.01586
C 25.7182 23.35683 -0.01971
C 25.7068 21.92809 -0.02118
C 24.49489 21.36155 0.00733
C 24.53366 19.8574 -0.00178
C 25.71995 19.08661 0.00768
C 25.80284 17.68438 -0.0276
C 24.55766 16.97891 0.03005
C 24.56751 15.53228 -0.04078
C 25.80917 14.87958 0.02117
C 25.75867 13.41986 0.02737
C 24.54752 12.71187 -0.00498
C 24.60025 11.29242 0.00135
C 25.84652 31.8977 0.01153
C 25.88924 10.63006 0.03102
C 24.58156 32.58944 0.02239
C 23.43186 0.70249 -0.02845
C 23.25824 22.02984 0.0106
C 22.06206 21.31494 -0.01154
C 22.00478 19.90577 -0.01721
C 23.26262 19.17905 -0.02422
C 23.34889 17.71316 0.01277
C 22.04954 17.03762 0.00096
C 22.0545 15.63188 -0.01527
C 23.38724 14.8623 0.01087
C 23.33645 13.44308 0.00199
C 22.06056 12.68451 0.01511
C 22.16419 11.22838 -0.00478
C 23.36729 10.53938 -0.01662
C 23.42112 9.11197 -0.01185
C 22.32542 8.24611 0.01126
C 23.39408 6.49748 0.01852
C 23.24993 5.1363 -0.00381
C 22.15699 4.24811 0.03046
C 22.17238 2.82628 0.0296
C 23.39753 2.13973 0.03374
C 22.18786 34.04742 -0.03213
C 29.37078 28.37476 0.00924
C 25.89757 9.18454 0.02555
C 24.65781 7.05792 -0.00285
C 27.07768 15.56379 -0.00294
C 28.3088 14.87499 0.00152
C 28.31491 13.49164 0.01257
C 27.01435 12.77051 0.02316
C 27.06866 11.39772 0.04185
C 28.27985 10.65788 0.00194
C 28.24623 9.23215 -0.00621
C 27.10013 8.52871 0.02611
C 27.05415 7.15839 0.02198
C 28.25408 6.3958 0.01094
C 28.35116 4.9484 0.00235
C 27.09798 4.24909 0.01495
C 27.07903 2.85301 0.01259
C 28.26321 2.12775 0.01799
C 28.25047 0.75095 0.01699
C 27.04291 0.02572 -0.00416
C 29.35958 32.72005 0.01177
C 30.6715 31.94182 0.04266
C 30.6729 30.53955 0.01324
C 27.08468 16.96405 0.00826
C 24.71089 8.50109 0.01423
C 28.31201 17.69868 0.00487
C 27.04877 19.80238 -0.02815
C 25.87076 6.47373 -0.009
C 25.89699 4.97028 -0.01199
C 24.49321 4.30544 -0.00229
C 24.68415 2.83945 -0.00938
C 25.8611 2.12139 -0.0264
C 25.85322 0.72264 -0.01154
C 24.60744 33.97458 0.00684
C 26.98242 32.65047 -0.01052
C 28.26604 31.92387 -0.01679
C 28.1977 30.48661 0.00367
C 27.0096 29.80385 0.04306
C 26.98501 28.32594 0.00996
C 28.21772 27.64014 0.00195
C 28.22078 26.23249 -0.00802
C 27.02111 25.51986 -0.00218
C 26.96283 24.07955 -0.01654
C 28.22521 23.40046 -0.00037
C 28.22299 22.01322 -0.0032
C 26.99084 21.22332 0.00622
C 28.27255 19.14789 -0.00942
C 2.41854 32.69169 -0.03996
