394
Graphene
C 0.00954 0.04038 0.01295
C 13.57564 26.24654 -0.00925
C 12.26138 25.6489 0.01877
C 12.31146 24.18355 0.01363
C 13.54633 23.42337 -0.02162
C 13.57905 9.28644 0.00415
C 12.33799 8.58063 -0.0014
C 12.26446 7.07684 0.02162
C 13.48123 6.36176 0.0076
C 13.52787 4.85185 0.01241
C 13.52269 27.64148 0.00444
C 12.3216 4.28219 -0.01454
C 13.56029 2.10041 0.01416
C 13.57254 0.71894 0.03542
C 12.35496 34.05643 0.02299
C 14.73377 32.73833 0.00244
C 15.97949 31.88713 -0.01717
C 15.95359 30.42917 0.05265
C 14.66629 29.76327 -0.01952
C 14.77476 28.30607 -0.02813
C 15.94439 27.65035 0.00374
C 12.27551 2.85484 0.01945
C 12.31614 28.38374 -0.01789
C 12.24716 29.8987 0.02894
C 13.42476 30.59178 -0.02971
C 11.07464 26.37251 -0.00033
C 9.86968 25.60313 0.03589
C 9.87434 24.17808 -0.02759
C 11.10966 23.43363 0.0402
C 11.02497 22.07741 0.00572
C 9.86789 21.27566 0.03592
C 9.82339 19.92065 0.00406
C 9.91623 11.43891 0.00943
C 10.90722 10.72506 0.02841
C 11.08012 9.34648 -0.01111
C 9.86086 8.46002 -0.01275
C 9.86354 7.09617 0.00985
C 11.09003 6.40303 -0.02245
C 11.16733 4.95559 -0.00428
C 9.83473 4.22352 0.03101
C 9.8443 2.86466 -0.01536
C 11.08375 2.1036 -0.02689
C 11.044 0.66969 -0.01046
C 9.85562 0.01938 -0.00891
C 12.38797 32.69675 0.02819
C 13.56275 31.98219 0.00165
C 16.03735 26.27855 0.00052
C 11.0189 27.7939 -0.01062
C 14.74335 25.59199 -0.03682
C 15.94933 23.33533 0.02058
C 18.45462 4.94966 0.00028
C 17.23847 4.30243 -0.02213
C 17.20378 2.81385 0.03698
C 18.40375 2.15207 -0.00109
C 18.4038 0.72887 -0.00491
C 17.21902 34.04253 0.03338
C 19.73409 32.74477 -0.0258
C 20.91808 31.93719 -0.0331
C 20.93978 30.49287 -0.00316
C 18.47881 6.38288 -0.00289
C 19.71536 29.77876 0.02188
C 20.84746 27.67312 0.02691
C 20.86188 26.25991 -0.01581
C 19.68397 25.48746 0.01452
C 19.7023 24.09918 0.04892
C 20.88498 23.43616 -0.00111
C 20.85299 21.9831 -0.03557
C 19.55266 21.37771 0.03754
C 20.82118 10.68772 0.01739
C 20.87534 9.29994 0.00755
C 19.62096 28.40798 -0.01979
C 17.25842 7.02574 -0.00066
C 17.23894 8.57243 0.00213
C 18.47702 9.24159 -0.05302
C 16.01181 9.24971 -0.01957
C 14.80606 8.60874 -0.0108
C 14.75054 7.07727 -0.00368
C 15.99132 6.33858 -0.02696
C 15.96467 4.92211 -0.00114
C 14.74545 4.23306 0.00228
C 14.77449 2.88814 0.00798
C 15.97553 2.10994 0.00422
C 15.92455 0.72607 0.0351
C 14.72757 0.039 -0.03113
C 17.1973 32.62398 0.02098
C 18.41047 31.97778 0.01848
C 18.46288 30.54194 -0.00619
C 17.27602 29.77839 -0.02162
C 17.18457 28.36918 0.00889
C 18.42003 27.61587 -0.00481
C 18.42148 26.23096 0.00979
C 17.18761 25.49688 0.01443
C 17.14172 24.07754 0.03505
C 18.44324 23.39406 -0.02815
C 18.64175 22.02189 -0.04147
C 14.72274 24.15114 0.01965
C 9.80746 28.38068 0.01364
C 9.78712 29.83259 -0.00719
C 11.02339 30.5862 0.01641
C 2.47222 2.93287 0.01996
C 3.71353 2.07875 -0.03996
C 3.66009 0.71146 0.01465
C 2.44637 34.07856 -0.00074
C 4.88154 32.66594 -0.00518
C 6.12692 31.95892 0.0086
C 6.15212 30.59183 -0.00643
C 4.9654 29.7678 0.017
C 4.93136 28.42921 -0.03113
C 2.41848 4.26251 -0.00279
C 6.14043 27.69667 -0.02566
C 4.90229 25.60544 0.02322
C 4.90283 24.17179 -0.00725
C 6.15266 23.41463 -0.05697
C 6.08188 22.00483 0.01087
C 4.85899 21.3342 -0.01343
C 4.97073 19.85592 0.00988
C 6.22133 19.19839 0.0276
C 6.13536 17.76445 0.01305
C 4.97736 17.01808 -0.00077
C 6.13318 26.26587 -0.00094
C 3.5311 5.01439 0.01226
C 3.66688 6.57112 0.03828
C 2.50638 8.55171 0.0174
C 3.72959 30.49104 -0.00561
C 2.45858 29.839 0.00208
C 2.5107 28.40188 0.01707
C 3.68639 27.63116 0.02769
C 3.66922 26.2736 -0.03291
C 2.35235 25.55121 -0.04999
C 2.41239 24.21465 0.04505
C 3.64982 23.4857 0.03284
C 3.64986 22.03341 -0.04307
C 2.47895 21.33125 0.03189
C 2.44769 19.79081 0.00031
C 3.74026 19.17565 -0.003
C 3.74189 17.81139 0.01402
C 2.48159 17.08789 0.02379
C 2.42771 15.60814 0.00907
C 3.62485 14.87086 0.00643
C 3.68222 13.46027 -0.01509
C 2.47488 12.7801 0.03267
C 2.48474 11.31838 0.02374
C 3.70042 10.70262 0.00402
C 3.67297 9.29403 0.0073
C 4.88064 15.60433 0.03368
C 6.18061 14.89111 -0.02929
C 6.18967 13.49226 -0.00966
C 4.95554 12.8362 -0.03337
C 8.60521 19.02057 0.02888
C 8.52008 17.66783 -0.00482
C 7.32307 17.04913 -0.01384
C 7.34978 15.56207 0.03693
C 8.58555 14.79941 0.01745
C 8.54096 13.60454 0.00488
C 7.40213 12.78922 -0.01004
C 7.40852 11.31674 -0.02896
C 8.6151 10.71441 -0.00131
C 8.60074 9.28404 -0.01118
C 7.4126 8.54922 -0.014
C 7.35719 7.10172 0.02147
C 8.62263 6.41922 0.00373
C 8.66416 5.00601 -0.00191
C 7.36929 4.31108 0.00438
C 7.3579 2.90116 0.01291
C 8.62772 2.13087 0.00093
C 8.64518 0.76059 0.00057
C 7.38911 0.02906 -0.01634
C 9.87276 32.72357 -0.00334
C 11.06918 32.05629 0.02339
C 7.34865 19.92958 0.00685
C 19.66564 8.56639 -0.0054
C 7.29008 21.32541 0.00895
C 8.60725 23.49734 0.0288
C 4.97526 11.38366 0.01227
C 6.17401 10.63609 0.00873
C 6.109 9.28527 -0.00049
C 4.9095 8.60942 0.00848
C 4.86192 7.14462 -0.01303
C 6.0924 6.37846 -0.01378
C 6.09136 5.02584 0.02635
C 4.91431 4.21872 0.0127
C 4.91149 2.83571 0.01396
C 6.10626 2.19587 0.01849
C 6.12464 0.76874 -0.01142
C 4.97634 0.07318 -0.00562
C 7.42293 32.63705 -0.00494
C 8.62801 31.95714 0.00054
C 8.56818 30.5343 0.03007
C 7.35556 29.8506 -0.00095
C 7.33345 28.44059 0.01572
C 8.49511 27.68778 -0.04848
C 8.51591 26.27695 -0.00892
C 7.32961 25.53127 -0.01362
C 7.38068 24.16027 -0.0008
C 8.50267 22.0459 0.00393
C 19.69319 7.13725 0.00667
C 20.88474 6.34429 0.00143
C 20.92901 4.94896 -0.017
C 29.51374 8.55257 0.01908
C 29.5362 7.11578 0.07705
C 30.76728 6.44715 0.0103
C 30.72511 4.94117 0.02108
C 29.50274 4.27162 0.00716
C 29.46777 2.84833 0.00307
C 30.64744 2.16087 0.00346
C 30.78163 0.70163 0.01713
C 29.49932 34.02139 -0.01694
C 30.80318 9.1867 0.01518
C 31.94497 32.67632 0.01428
C 33.21295 30.56217 0.0544
C 31.99848 29.82753 0.00026
C 31.95488 28.39908 0.00682
C 33.17735 27.70881 -0.01779
C 33.18277 26.3176 0.03794
C 32.03937 25.57134 0.01927
C 32.03745 24.05258 0.01574
C 33.25621 23.38552 -0.02383
C 33.24169 22.00335 -0.01429
C 33.18779 32.00512 -0.02142
C 30.73889 10.58822 -0.00971
C 29.46764 11.32047 -0.03735
C 29.56895 12.76735 -0.00944
C 28.26044 0.66149 0.01177
C 26.97019 0.02482 0.04266
C 29.47199 32.61899 0.01324
C 30.6875 31.98182 0.0014
C 30.73516 30.54021 0.00924
C 29.52102 29.76494 0.02326
C 29.557 28.36533 0.00261
C 30.74589 27.69166 0.03265
C 30.84156 26.24615 -0.02049
C 29.54562 25.47479 -0.01854
C 29.54501 24.10249 -0.01415
C 30.77714 23.37904 -0.03039
C 30.69984 21.9972 0.01836
C 29.50041 21.26926 0.03531
C 29.47539 19.88355 -0.00669
C 30.74714 19.2038 0.0101
C 30.77822 17.83523 0.01705
C 29.50336 17.07241 -0.0405
C 29.53325 15.68751 -0.01303
C 30.71696 14.94457 -0.01461
C 30.73715 13.50642 -0.02155
C 31.96976 21.30746 -0.0136
C 32.03706 19.92639 0.00594
C 33.21323 19.13321 -0.02474
C 33.15106 17.70447 0.00369
C 0.0124 24.21056 0.02712
C 1.22371 23.48816 -0.02213
C 1.26028 22.07534 0.01951
C 34.38448 21.20905 -0.01678
C 34.40784 19.83952 0.01223
C 1.20914 19.14757 0.00648
C 1.27262 17.74447 0.02114
C 34.37236 16.99212 -0.02957
C 34.36921 15.60172 0.00343
C 1.19711 14.89715 -0.02656
C 1.20492 13.45513 -0.02442
C 34.40618 12.72992 -0.00027
C 34.42522 11.42209 -0.00583
C 1.25477 10.70884 -0.02302
C 1.2379 9.18837 -0.02849
C 34.40911 8.4719 0.02931
C 34.3281 7.07689 0.00628
C 34.35727 4.24852 -0.0345
C 0.0207 2.87839 -0.00931
C 1.29651 2.07426 -0.00939
C 1.23734 0.71886 -0.00468
C 34.38459 25.6414 0.00723
C 28.26597 2.13064 -0.00416
C 1.20454 26.35097 0.03076
C 34.39156 28.41574 -0.00598
C 31.93775 17.04457 0.00455
C 31.9469 15.65655 -0.00644
C 33.21537 14.89314 -0.01839
C 33.19657 13.49067 0.00137
C 31.94873 12.75207 0.00199
C 31.93239 11.3258 0.04381
C 33.16641 10.71835 0.02806
C 33.18041 9.29302 0.01504
C 32.00109 8.45455 -0.00069
C 31.96075 7.06957 0.04926
C 33.13667 6.40149 -0.03838
C 33.22428 4.97658 0.00349
C 32.01773 4.24391 -0.00323
C 31.89327 2.78214 -0.00841
C 33.15124 2.1137 0.0001
C 33.23017 0.71843 -0.02927
C 31.96498 34.03061 -0.01404
C 34.40458 32.70196 0.01027
C 1.25388 31.9213 0.01831
C 1.25142 30.50392 -0.01037
C 0.04372 29.86081 -0.00439
C 1.21905 27.70258 -0.05239
C 3.72383 31.88174 -0.01977
C 27.06609 2.84101 0.01699
C 28.2923 4.96563 0.01259
C 22.07938 11.38706 -0.01662
C 23.41497 10.60645 -0.01185
C 23.3126 9.24623 0.01126
C 22.04464 8.51656 0.01852
C 22.05839 7.05849 -0.00381
C 23.35469 6.32001 0.03046
C 23.32226 4.9501 0.0296
C 22.186 4.23223 0.03374
C 22.17895 2.82803 -0.02845
C 22.02585 12.81012 -0.00478
C 23.33049 2.07648 -0.03213
C 22.15171 34.05278 0.01153
C 24.65933 32.63437 0.02734
C 25.86957 31.89567 -0.0055
C 25.88699 30.46627 0.01515
C 24.65634 29.81881 -0.00225
C 24.59847 28.39222 0.00071
C 25.84105 27.63235 -0.01107
C 25.77949 26.22743 -0.01586
C 24.55648 25.57354 -0.01971
C 23.43508 0.60264 0.02239
C 23.42203 13.41233 0.01511
C 23.33388 14.84591 0.00199
C 22.17016 15.72659 0.01087
C 19.70821 4.23153 0.00364
C 19.67217 2.82111 -0.00831
C 20.95167 2.14372 -0.02957
C 20.90517 0.71697 -0.04422
C 19.679 0.03498 0.00654
C 22.20575 32.64131 -0.00703
C 23.41334 31.96073 -0.04076
C 23.40786 30.5641 -0.00652
C 22.16514 29.87023 0.0058
C 22.16138 28.33912 -0.00865
C 23.35466 27.69858 0.00675
C 23.38867 26.30678 -0.00311
C 22.11127 25.6229 0.00742
C 22.11464 24.17391 -0.01594
C 23.37156 23.47093 0.0106
C 23.31761 22.03712 -0.01154
C 22.0982 21.27286 -0.01721
C 22.19741 19.91908 -0.02422
C 23.31168 19.24152 0.01277
C 23.33262 17.73159 0.00096
C 22.15209 16.95615 -0.01527
C 24.65745 24.15972 -0.02118
C 25.8877 23.38394 0.00733
C 25.73139 21.99146 -0.00178
C 24.56665 21.32397 0.00768
C 28.26931 27.6623 -0.00218
C 28.4448 26.32205 -0.01654
C 27.05418 25.60551 -0.00037
C 27.05841 24.12561 -0.0032
C 28.31143 23.39926 0.00622
C 28.16277 22.01003 -0.02815
C 26.93259 21.29193 -0.00942
C 26.99291 19.88096 0.00487
C 28.23605 19.15455 0.00826
C 28.2908 17.70012 -0.00294
C 26.92851 17.0238 0.00152
C 27.06012 15.62126 0.01257
C 28.26962 14.92544 0.02316
C 28.25394 13.45618 0.04185
C 26.99461 12.81969 0.00194
C 27.0408 11.36988 -0.00621
C 28.25058 10.64693 0.02611
C 28.27742 9.24669 0.02198
C 27.06732 8.4309 0.01094
C 27.07484 7.0599 0.00235
C 28.30007 6.37306 0.01495
C 27.04307 28.37754 -0.00802
C 27.12246 4.33518 0.01799
C 27.08062 29.82901 0.00195
C 28.2104 31.90153 0.04306
C 24.55944 19.87213 -0.0276
C 25.77996 19.19896 0.03005
C 25.75586 17.79604 -0.04078
C 24.5645 17.00611 0.02117
C 24.66019 15.65528 0.02737
C 25.85114 14.92573 -0.00498
C 25.79789 13.51567 0.00135
C 24.5834 12.7206 0.03102
C 24.59947 11.37089 0.02555
C 25.82767 10.63671 0.01423
C 25.79343 9.18926 -0.00285
C 24.56171 8.46674 -0.009
C 24.553 7.06671 -0.01199
C 25.82925 6.3661 -0.00229
C 25.84801 4.97336 -0.00938
C 24.64581 4.26186 -0.0264
C 24.56956 2.88869 -0.01154
C 25.85756 2.1577 0.00684
C 25.79125 0.72219 -0.01052
C 24.59841 34.01445 -0.01679
C 27.05332 32.65613 0.00367
C 28.31327 30.55749 0.00996
C 2.47647 32.61899 0.02784
