429
Graphene
C 0.0132 0.01486 0.01295
C 13.54886 23.41152 0.03589
C 13.49405 22.0368 -0.02759
C 12.29799 21.33423 0.0402
C 12.29918 19.86153 0.00572
C 13.52994 19.224 0.03592
C 13.53267 17.77438 0.00406
C 12.25533 17.00907 0.00943
C 12.25971 15.62722 0.02841
C 13.49885 14.83958 -0.01111
C 13.52738 13.51205 -0.01275
C 12.3229 24.16746 -0.00033
C 12.32475 12.76384 0.00985
C 13.53059 10.65586 -0.00428
C 13.55313 9.21802 0.03101
C 12.2625 8.55394 -0.01536
C 12.29732 7.07803 -0.02689
C 13.54941 6.37044 -0.01046
C 13.5306 4.94394 -0.00891
C 12.35194 4.21098 0.02819
C 12.27093 2.83996 0.00165
C 13.51501 2.16877 -0.02971
C 13.5268 0.67545 0.02894
C 12.27428 11.40056 -0.02245
C 12.26487 25.63778 -0.01062
C 13.53582 26.31335 0.01364
C 13.57158 27.71144 -0.00719
C 11.07639 17.77816 0.00685
C 9.8539 17.0272 0.02888
C 9.82644 15.63099 -0.00482
C 11.05612 14.87932 -0.01384
C 11.09482 13.49773 0.03693
C 9.83645 12.81161 0.01745
C 9.801 11.37687 0.00488
C 11.01869 10.70252 -0.01004
C 11.06857 9.22607 -0.02896
C 9.85477 8.53693 -0.00131
C 9.87269 7.09599 -0.01118
C 11.10157 6.38179 -0.014
C 11.04869 4.9365 0.02147
C 9.8378 4.29211 0.00373
C 9.85696 2.84236 -0.00191
C 11.06058 2.118 0.00438
C 11.06083 0.71653 0.01291
C 9.90767 0.00746 0.00093
C 12.30073 32.66871 0.00057
C 13.54467 31.98061 -0.01634
C 13.52799 30.59858 -0.00334
C 12.29879 29.85423 0.02339
C 12.29865 28.38051 0.01641
C 12.28952 34.07888 -0.01789
C 14.7556 32.6874 0.00444
C 15.97828 31.93642 -0.00925
C 15.9665 30.53836 0.01877
C 15.97612 0.74431 0.00228
C 14.76529 34.05738 0.00798
C 17.2161 32.73047 0.00422
C 18.455 31.9061 0.0351
C 18.44647 30.50784 -0.03113
C 17.21761 29.80337 0.02098
C 17.24003 28.35211 0.01848
C 18.42269 27.70024 -0.00619
C 18.42666 26.27751 -0.02162
C 17.22185 25.54606 0.00889
C 17.20703 24.13208 -0.00481
C 18.41693 23.44694 0.00979
C 18.43282 22.02573 0.01443
C 17.18155 21.28751 0.03505
C 17.16962 19.90087 -0.02815
C 18.45443 19.21615 -0.04147
C 18.4296 17.78715 -0.05302
C 17.22994 17.00733 0.00213
C 17.21515 15.60623 -0.00066
C 18.45315 14.92489 -0.00289
C 18.49445 13.51964 0.00028
C 17.2729 12.78269 -0.02213
C 17.20553 11.37861 0.03698
C 15.99015 2.09829 -0.00114
C 11.05667 19.16455 0.00895
C 14.75634 2.80916 -0.02696
C 16.01496 4.99237 -0.0108
C 14.75561 29.81979 0.01363
C 14.74246 28.3896 -0.02162
C 15.93568 27.70663 0.00415
C 15.99495 26.27016 -0.0014
C 14.73207 25.56893 0.02162
C 14.7588 24.13196 0.0076
C 16.00819 23.41408 0.01241
C 15.97927 21.97588 -0.01454
C 14.74195 21.27527 0.01945
C 14.7204 19.89871 0.01416
C 15.98089 19.15569 0.03542
C 16.00139 17.73434 0.02299
C 14.78508 17.0206 0.00244
C 14.79739 15.62973 -0.01717
C 15.98314 14.92516 0.05265
C 15.98511 13.44006 -0.01952
C 14.72754 12.77456 -0.02813
C 14.74981 11.35472 0.00374
C 15.97556 10.67078 0.00052
C 16.02713 9.20591 -0.03682
C 14.75403 8.53406 0.01965
C 14.74348 7.09053 0.02058
C 15.95248 6.39056 -0.01957
C 14.77035 4.26428 -0.00368
C 9.8466 19.93366 0.00393
C 9.86548 21.26936 0.0288
C 11.06391 22.06078 -0.0008
C 3.70856 2.14287 0.02728
C 3.66614 0.72222 -0.00039
C 2.39904 0.02732 0.0064
C 4.94016 32.65937 0.00211
C 6.1606 31.9142 -0.00449
C 6.14895 30.49732 -0.01979
C 4.87567 29.84102 0.02784
C 4.91515 28.36473 -0.01977
C 6.17912 27.69239 -0.00561
C 6.14905 26.26935 0.00208
C 4.97594 25.55778 0.01707
C 4.94579 24.17185 0.02769
C 6.14829 23.39718 -0.03291
C 6.1483 22.05997 -0.04999
C 4.93902 21.2898 0.04505
C 4.92869 19.84259 0.03284
C 6.12146 19.16513 -0.04307
C 6.1594 17.72083 0.03189
C 4.89865 17.01466 0.00031
C 4.94296 15.63112 -0.003
C 6.07468 14.89314 0.01402
C 6.13368 13.55318 0.02379
C 4.90071 12.8328 0.00907
C 2.45346 2.83981 0.00245
C 4.93945 11.39498 0.00643
C 2.4649 4.21078 0.00081
C 3.74414 6.37867 -0.01386
C 3.70868 30.55704 0.00267
C 2.45932 29.877 0.00787
C 2.43197 28.39495 0.02426
C 3.67972 27.67144 0.01218
C 3.67901 26.24315 -0.01471
C 2.47105 25.56344 -0.02827
C 2.47362 24.11938 0.01078
C 3.70009 23.43699 -0.00112
C 3.71669 22.0245 0.03345
C 2.44722 21.26962 0.00748
C 2.49726 19.84713 0.00662
C 3.70574 19.16311 -0.0154
C 3.69514 17.7611 -0.01299
C 2.46129 16.96572 -0.00407
C 2.48112 15.5944 0.01138
C 3.70506 14.90462 0.03278
C 3.64735 13.43252 -0.00177
C 2.4551 12.79103 0.04421
C 2.44478 11.37628 0.00088
C 3.68041 10.68088 0.00828
C 3.69814 9.23016 -0.02375
C 2.46784 8.53003 0.00558
C 2.44145 7.12568 -0.0059
C 3.69618 4.97064 -0.02805
C 17.1994 8.46116 -0.00109
C 6.13462 10.65694 -0.01509
C 4.95787 8.5609 0.02374
C 7.40049 12.76562 -0.02929
C 7.36048 11.39417 -0.00966
C 8.61532 10.63982 -0.03337
C 8.61901 9.26444 0.01227
C 7.41111 8.56436 0.00873
C 7.40885 7.12173 -0.00049
C 8.57775 6.43375 0.00848
C 8.62113 5.00004 -0.01303
C 7.39387 4.30357 -0.01378
C 7.35194 2.83471 0.02635
C 8.62188 2.1679 0.0127
C 8.62282 0.69369 0.01396
C 7.39984 0.01228 0.01849
C 9.85138 32.69465 -0.01142
C 11.03944 31.96025 -0.00562
C 11.08105 30.50261 -0.00494
C 9.81707 29.80937 0.00054
C 9.81107 28.40651 0.03007
C 11.07196 27.65782 -0.00095
C 11.05218 26.27068 0.01572
C 9.77659 25.58208 -0.04848
C 9.82648 24.14097 -0.00892
C 11.07575 23.47382 -0.01362
C 8.6229 13.47745 0.03368
C 6.15875 9.22709 0.03267
C 8.56629 14.92591 -0.00077
C 7.35873 17.0636 0.0276
C 4.94532 7.1255 0.00402
C 6.10798 6.39261 0.0073
C 6.1131 4.97726 0.0174
C 4.88405 4.21404 0.03828
C 4.9352 2.85797 0.01226
C 6.07458 2.16052 -0.00279
C 6.16704 0.74552 0.01996
C 4.91849 34.06217 -0.03996
C 7.38592 32.65954 0.01465
C 8.60322 31.96869 -0.00074
C 8.65186 30.53529 -0.00518
C 7.42738 29.85605 0.0086
C 7.36275 28.38768 -0.00643
C 8.59287 27.71744 0.017
C 8.6096 26.26514 -0.03113
C 7.3509 25.59731 -0.02566
C 7.39962 24.14373 -0.00094
C 8.5983 23.37948 0.02322
C 8.6602 21.96128 -0.00725
C 7.369 21.32809 -0.05697
C 7.37143 19.91488 0.01087
C 8.62248 19.16805 -0.01343
C 8.58721 17.75191 0.00988
C 7.36639 15.627 0.01305
C 3.67337 31.98023 0.01913
C 17.23927 7.10326 -0.00491
C 18.4604 4.9226 -0.0258
C 29.52611 17.02905 -0.01461
C 29.54279 15.63137 -0.02155
C 30.75233 14.91098 -0.00944
C 30.74661 13.495 -0.03735
C 29.4704 12.78706 -0.00971
C 29.55265 11.3278 0.01518
C 30.72726 10.63863 0.01908
C 30.72909 9.25386 0.07705
C 29.47279 8.49336 0.0103
C 29.49796 7.13366 0.02108
C 30.74015 17.7584 -0.01303
C 30.74946 6.3381 0.00716
C 29.53515 4.23306 0.00346
C 29.49072 2.85279 0.01713
C 30.79038 2.12085 -0.01694
C 30.75283 0.65834 0.01428
C 29.53105 34.0659 -0.02142
C 32.02424 28.378 0.0544
C 33.18542 27.70044 0.00026
C 33.19687 26.25744 0.00682
C 31.96624 25.55792 -0.01779
C 31.97012 24.15629 0.03794
C 30.76398 4.99346 0.00307
C 30.76872 19.18217 -0.0405
C 29.54088 19.90063 0.01705
C 29.47417 21.31445 0.0101
C 28.28351 13.49138 0.02198
C 27.07221 12.76361 0.01094
C 27.09365 11.38921 0.00235
C 28.29421 10.63831 0.01495
C 28.26921 9.21488 0.01259
C 27.05813 8.52669 0.01799
C 27.04851 7.09824 0.01699
C 28.30688 6.41785 -0.00416
C 28.22897 4.9185 0.01177
C 27.05359 4.22382 0.04266
C 27.04483 2.83772 0.01324
C 28.3247 2.11821 0.0014
C 28.24813 0.66954 0.00924
C 27.04274 34.0651 0.02326
C 29.47906 32.63177 0.00261
C 29.48397 29.79319 0.03265
C 29.50618 28.31263 -0.02049
C 30.75595 27.74474 -0.01854
C 30.74442 26.32073 -0.01415
C 29.55027 25.57546 -0.03039
C 29.52301 24.11237 0.01836
C 30.70939 23.39828 0.03531
C 30.72183 21.99902 -0.00669
C 33.22436 23.43025 0.01927
C 33.23894 21.967 0.01574
C 32.00857 21.30194 -0.02383
C 31.95799 19.91337 -0.01429
C 34.42634 24.16692 0.03076
C 1.22125 23.48564 0.00723
C 1.19449 22.03383 0.02712
C 34.4078 21.29401 -0.02213
C 34.43035 19.90953 0.01951
C 1.2548 19.18435 -0.01678
C 1.23495 17.73988 0.01223
C 34.42217 16.99264 0.00648
C 34.40915 15.604 0.02114
C 1.21799 14.91668 -0.02957
C 1.22163 13.548 0.00343
C 0.00697 12.71747 -0.02656
C 34.41279 11.3528 -0.02442
C 1.18375 10.67428 -0.00027
C 1.23407 9.23741 -0.00583
C 0.01585 8.52486 -0.02302
C 34.38588 7.06486 -0.02849
C 1.19264 6.3651 0.02931
C 1.23167 4.95208 0.00628
C 34.42847 4.19747 -0.0345
C 34.42444 2.84102 -0.00931
C 1.27483 2.11858 -0.00939
C 1.26135 0.70436 -0.00468
C 0.01911 25.59837 -0.05239
C 28.28474 14.9165 0.02611
C 1.25446 26.23522 -0.00598
C 34.42893 28.41288 -0.01037
C 33.18533 19.17045 -0.0136
C 33.18807 17.75978 0.00594
C 32.00483 17.03422 -0.02474
C 31.98945 15.61659 0.00369
C 33.17013 14.88541 0.00455
C 33.18737 13.46089 -0.00644
C 31.95719 12.7477 -0.01839
C 31.94032 11.34443 0.00137
C 33.20824 10.63197 0.00199
C 33.19795 9.23442 0.04381
C 31.9245 8.51634 0.02806
C 31.91429 7.081 0.01504
C 33.20473 6.38984 -0.00069
C 33.20469 4.95957 0.04926
C 32.00237 4.23568 -0.03838
C 32.00651 2.84119 0.00349
C 33.21872 2.10956 -0.00323
C 33.18843 0.68896 -0.00841
C 31.99313 34.0459 0.0001
C 34.40436 32.63921 -0.02927
C 1.2109 31.98312 -0.01404
C 1.25838 30.49127 0.01027
C 0.04019 29.78855 0.01831
C 1.2154 27.63564 -0.00439
C 27.05048 15.62577 -0.00621
C 27.06845 17.0441 0.00194
C 28.29215 17.7218 0.04185
C 19.71724 2.85287 0.00675
C 20.87297 2.12327 -0.00311
C 20.91697 0.71671 0.00742
C 19.72861 34.03398 -0.01594
C 22.1794 32.65239 0.0106
C 23.37653 31.98953 -0.01154
C 23.35444 30.55658 -0.01721
C 22.13061 29.77037 -0.02422
C 22.12848 28.38993 0.01277
C 23.34947 27.6739 0.00096
C 23.33483 26.31479 -0.01527
C 22.12866 25.53036 0.01087
C 22.14437 24.13607 0.00199
C 23.33219 23.43868 0.01511
C 23.36271 22.00123 -0.00478
C 22.14486 21.3131 -0.01662
C 22.11958 19.91365 -0.01185
C 23.39568 19.12046 0.01126
C 23.37006 17.75926 0.01852
C 22.16459 17.02364 -0.00381
C 22.16407 15.58415 0.03046
C 23.33385 14.88011 0.0296
C 23.37499 13.49252 0.03374
C 19.65886 4.23508 -0.00865
C 22.23326 7.11057 -0.02845
C 20.89537 4.98086 0.0058
C 19.69428 7.08019 -0.04076
C 17.21649 4.2355 -0.0331
C 17.13412 2.86953 -0.00316
C 18.40061 2.14182 0.02188
C 18.44981 0.69923 -0.01979
C 17.20486 0.0344 0.02691
C 19.70371 32.63634 -0.01581
C 20.85717 31.92333 0.01452
C 20.90758 30.51461 0.04892
C 19.67511 29.83788 -0.00111
C 19.64507 28.36438 -0.03557
C 20.90378 27.71058 0.03754
C 20.91439 26.25679 0.01739
C 19.65811 25.54262 0.00755
C 19.68135 24.13866 -0.0054
C 20.9069 23.38354 0.00667
C 20.93321 21.9954 0.00143
C 19.67506 21.28419 -0.017
C 19.68828 19.91512 0.00364
C 20.97501 19.22585 -0.00831
C 20.91503 17.76958 -0.02957
C 19.64724 17.02447 -0.04422
C 19.67069 15.62985 0.00654
C 20.88386 14.90364 -0.00703
C 20.91646 6.42815 -0.00652
C 18.43076 6.36944 0.03338
C 23.39573 6.40224 -0.03213
C 22.17988 4.26547 0.01153
C 24.57432 8.53822 -0.0264
C 24.60917 7.08733 -0.01154
C 25.81129 6.41413 0.00684
C 25.82245 4.93743 -0.01052
C 24.60768 4.23665 -0.01679
C 24.56285 2.83954 0.00367
C 25.84538 2.13092 0.04306
C 25.79733 0.7048 0.00996
C 24.6026 0.00278 0.00195
C 27.07198 32.65597 -0.00802
C 28.28748 32.01007 -0.00218
C 28.3117 30.55557 -0.01654
C 27.02926 29.80251 -0.00037
C 27.08431 28.39615 -0.0032
C 28.27505 27.69365 0.00622
C 28.29389 26.27861 -0.02815
C 27.06824 25.53085 -0.00942
C 27.03474 24.09934 0.00487
C 28.3192 23.42836 0.00826
C 28.24785 22.05612 -0.00294
C 27.06134 21.29599 0.00152
C 27.07531 19.91282 0.01257
C 28.27099 19.13879 0.02316
C 25.85877 9.21099 -0.00938
C 23.34165 4.99562 0.02239
C 25.83144 10.66848 -0.00229
C 24.57869 12.76037 -0.009
C 22.06605 2.83011 0.02734
C 23.34843 2.11645 -0.0055
C 23.33358 0.72673 0.01515
C 22.13927 34.07797 -0.00225
C 24.54149 32.64631 0.00071
C 25.80355 31.93175 -0.01107
C 25.82914 30.54152 -0.01586
C 24.60154 29.87001 -0.01971
C 24.56335 28.33601 -0.02118
C 25.8229 27.69779 0.00733
C 25.81908 26.27329 -0.00178
C 24.55614 25.5641 0.00768
C 24.5887 24.19829 -0.0276
C 25.82452 23.42364 0.03005
C 25.80299 21.97321 -0.04078
C 24.58314 21.30324 0.02117
C 24.61155 19.89068 0.02737
C 25.86233 19.1846 -0.00498
C 25.84934 17.78604 0.00135
C 24.59775 17.02201 0.03102
C 24.58561 15.6164 0.02555
C 25.80875 14.90672 0.01423
C 25.81319 13.50176 -0.00285
C 24.60644 11.31246 -0.01199
C 2.40634 32.63438 -0.03672
