409
Graphene
C 34.40883 34.06958 0.01295
C 12.35837 0.08667 -0.01536
C 14.75366 32.75988 -0.02689
C 15.9347 31.97714 -0.01046
C 16.03029 30.61763 -0.00891
C 14.781 29.92337 0.02819
C 14.73721 28.46444 0.00165
C 15.90838 27.62268 -0.02971
C 15.89002 26.15958 0.02894
C 14.67377 25.37436 -0.01789
C 14.81626 24.008 0.00444
C 16.00315 23.56004 -0.00925
C 15.98979 13.38447 0.01877
C 14.90141 12.73926 0.01363
C 14.67566 11.39989 -0.02162
C 16.03699 10.64123 0.00415
C 15.94212 9.22977 -0.0014
C 14.78652 8.44691 0.02162
C 14.81881 7.05413 0.0076
C 15.97295 6.33965 0.01241
C 15.96529 4.94509 -0.01454
C 14.67006 4.27999 0.01945
C 13.56599 0.82621 0.03101
C 13.4663 2.17919 -0.00428
C 12.26191 2.94421 -0.02245
C 12.27449 4.35728 0.00985
C 11.05913 4.98849 0.00438
C 9.8901 4.30463 0.01291
C 9.82942 2.91382 0.00093
C 11.03801 2.17757 0.00057
C 11.13832 0.74434 -0.01634
C 9.83175 0.06847 -0.00334
C 12.26772 32.68981 0.02339
C 13.49123 32.05687 0.01641
C 13.54417 30.59299 -0.00719
C 12.35078 29.89824 0.01364
C 14.70919 2.84272 0.01416
C 12.27292 28.36747 -0.01062
C 13.49057 26.19069 0.03589
C 12.28022 25.53478 -0.02759
C 12.24794 12.77284 0.0402
C 12.26493 11.47652 0.00572
C 13.57796 10.5917 0.03592
C 13.60346 9.18427 0.00406
C 12.29096 8.56515 0.00943
C 12.27848 7.13838 0.02841
C 13.47353 6.48498 -0.01111
C 13.50207 5.02147 -0.01275
C 13.57694 27.6944 -0.00033
C 11.06951 6.39612 -0.00191
C 16.01422 2.15842 0.03542
C 14.7702 0.09102 0.00244
C 18.42732 2.1657 0.01443
C 18.50301 0.72596 0.03505
C 17.27528 34.04193 -0.02815
C 19.6653 32.654 -0.04147
C 20.88429 31.88053 -0.05302
C 20.9391 30.53902 0.00213
C 19.72156 29.78583 -0.00066
C 19.73512 28.3562 -0.00289
C 20.95532 27.69057 0.00028
C 20.86729 26.23944 -0.02213
C 19.61098 25.507 0.03698
C 19.64495 24.13416 -0.00109
C 20.83912 23.41425 -0.00491
C 20.84517 21.96545 0.03338
C 19.53386 21.33663 -0.0258
C 19.5224 19.94077 -0.0331
C 20.85925 19.22064 -0.00316
C 20.85247 17.82814 0.02188
C 19.62206 17.02285 -0.01979
C 19.69084 15.56967 0.02691
C 20.95452 14.87199 -0.01581
C 17.23992 2.87668 0.00979
C 17.25751 4.27203 -0.00481
C 18.46501 5.02083 0.00889
C 18.46092 6.42176 -0.02162
C 17.21931 32.65532 -0.01717
C 18.46413 31.93569 0.05265
C 18.52884 30.51489 -0.01952
C 17.24639 29.79966 -0.02813
C 17.14357 28.39238 0.00374
C 18.4397 27.70142 0.00052
C 18.36452 26.23271 -0.03682
C 17.11408 25.54431 0.01965
C 17.22263 24.13398 0.02058
C 18.39989 23.36702 -0.01957
C 15.98745 0.73607 0.02299
C 18.3647 22.02374 -0.0108
C 18.42312 17.81646 -0.02696
C 17.19247 15.5279 -0.00114
C 18.36672 14.92238 0.00228
C 18.42012 13.51778 0.00798
C 17.23781 12.76395 0.00422
C 17.19374 11.39422 0.0351
C 18.46492 10.62835 -0.03113
C 18.39774 9.24954 0.02098
C 17.19127 8.52519 0.01848
C 17.19334 7.06346 -0.00619
C 18.42747 18.96701 -0.00368
C 9.82908 7.07313 0.00373
C 9.83554 8.48594 0.02147
C 11.07271 9.26531 -0.014
C 2.38979 2.84906 -0.003
C 3.61382 2.18444 0.01402
C 3.62605 0.71876 0.02379
C 2.44017 34.01321 0.00907
C 4.87069 32.69651 0.00643
C 6.14966 32.01247 -0.01509
C 6.07091 30.62205 0.03267
C 4.83995 29.86894 0.02374
C 4.8583 28.48519 0.00402
C 6.13306 27.72238 0.0073
C 6.11388 26.27638 0.0174
C 4.9207 25.56146 0.03828
C 4.96971 24.17971 0.01226
C 6.32321 23.34235 -0.00279
C 6.13907 22.06856 0.01996
C 4.97272 21.30883 -0.03996
C 4.89071 19.91983 0.01465
C 5.99341 19.17305 -0.00074
C 6.02768 17.82334 -0.00518
C 4.99704 17.01947 0.0086
C 4.94915 15.64373 -0.00643
C 2.43258 4.28473 0.00031
C 3.68392 4.96484 0.03189
C 3.71271 6.37385 -0.04307
C 2.4088 7.05125 0.03284
C 3.59897 30.56261 -0.02375
C 2.24965 29.86683 0.00558
C 2.39187 28.4644 -0.0059
C 3.63264 27.81251 -0.01386
C 3.65882 26.32638 -0.02805
C 2.48059 25.5689 0.00081
C 2.46993 24.09732 0.00245
C 3.74396 23.40918 0.02728
C 3.72692 22.01426 -0.00039
C 2.45548 21.34774 0.0064
C 6.18711 14.78786 0.017
C 2.42326 19.92765 0.00211
C 3.71824 17.75984 -0.01979
C 2.50143 17.07329 0.02784
C 2.42681 15.63321 -0.01977
C 3.68216 14.98894 -0.00561
C 3.70312 13.5713 0.00208
C 2.48938 12.80481 0.01707
C 2.48229 11.35944 0.02769
C 3.66417 10.61106 -0.03291
C 3.60483 9.22205 -0.04999
C 2.37509 8.46085 0.04505
C 3.68639 19.17837 -0.00449
C 6.05315 13.415 -0.03113
C 4.8194 12.74631 -0.02566
C 4.93793 11.31189 -0.00094
C 8.60711 9.23102 0.00054
C 7.37833 8.55751 0.03007
C 7.3933 7.10111 -0.00095
C 8.62551 6.36688 0.01572
C 8.6537 4.99555 -0.04848
C 7.39618 4.2759 -0.00892
C 7.40887 2.85022 -0.01362
C 8.64036 2.15519 -0.0008
C 8.60793 0.79747 0.0288
C 7.33787 0.06304 0.00393
C 8.57684 10.71246 -0.00494
C 9.78825 32.72359 0.00895
C 11.12039 30.65269 0.02888
C 9.84242 29.9464 -0.00482
C 9.83832 28.51041 -0.01384
C 11.03004 27.77912 0.03693
C 11.08307 26.31217 0.01745
C 9.88945 25.60664 0.00488
C 9.79299 24.26497 -0.01004
C 9.68383 12.85092 -0.02896
C 9.80092 11.42083 -0.00131
C 11.02034 10.68637 -0.01118
C 11.06416 32.04133 0.00685
C 20.93084 13.43207 0.01452
C 7.37262 11.35039 -0.00562
C 8.57571 13.50694 0.01849
C 6.14354 10.60751 0.02322
C 6.1261 9.19544 -0.00725
C 4.90107 8.47007 -0.05697
C 4.89183 7.08468 0.01087
C 6.09478 6.41356 -0.01343
C 6.16038 4.99951 0.00988
C 4.9598 4.22752 0.0276
C 4.888 2.86694 0.01305
C 6.10391 2.18164 -0.00077
C 6.07842 0.76256 0.03368
C 7.28495 12.7289 -0.01142
C 4.85246 0.0975 -0.02929
C 8.6022 32.06114 -0.03337
C 8.58532 30.55559 0.01227
C 7.3235 29.84361 0.00873
C 7.36087 28.4059 -0.00049
C 8.6088 27.77132 0.00848
C 8.53444 26.29149 -0.01303
C 7.33077 25.533 -0.01378
C 7.44734 24.17065 0.02635
C 8.67258 23.63578 0.0127
C 7.32187 15.45026 0.01396
C 7.35881 32.73891 -0.00966
C 3.65261 31.93179 0.00828
C 19.64301 12.80918 0.04892
C 20.91101 10.70374 -0.03557
C 29.50383 8.42314 -0.00971
C 29.4627 7.02553 0.01518
C 30.7905 6.3471 0.01908
C 30.75686 4.94406 0.07705
C 29.49975 4.28582 0.0103
C 29.46748 2.80864 0.02108
C 30.72706 2.14931 0.00716
C 30.7734 0.71239 0.00307
C 29.53498 34.0747 0.00346
C 32.03163 32.59749 0.01713
C 33.25471 31.93284 -0.01694
C 33.16005 30.49375 0.01428
C 31.94501 29.81893 -0.02142
C 31.91838 28.42729 0.0544
C 33.17244 27.56662 0.00026
C 33.18279 26.22468 0.00682
C 31.98702 25.585 -0.01779
C 31.9423 24.11594 0.03794
C 33.14618 23.49162 0.01927
C 33.16486 22.04145 0.01574
C 31.95057 21.33572 -0.02383
C 30.69651 9.13844 -0.03735
C 30.69573 10.60258 -0.00944
C 29.53868 11.33042 -0.02155
C 29.53151 12.76709 -0.01461
C 28.23691 2.10459 0.01799
C 28.32497 0.65968 0.01699
C 27.08182 34.07269 -0.00416
C 29.58478 32.66882 0.01177
C 30.7155 31.93569 0.04266
C 30.73057 30.51803 0.01324
C 29.51841 29.8659 0.0014
C 29.49552 28.44541 0.00924
C 30.71144 27.75924 0.02326
C 30.75209 26.29072 0.00261
C 31.90618 19.93107 -0.01429
C 29.54769 25.59686 0.03265
C 30.76802 23.43619 -0.01854
C 30.75502 22.00175 -0.01415
C 29.51694 21.24124 -0.03039
C 29.47 19.85141 0.01836
C 30.71312 19.18884 0.03531
C 30.75381 17.78342 -0.00669
C 29.50812 17.01328 0.0101
C 29.44831 15.62489 0.01705
C 30.62487 14.85698 -0.0405
C 30.76163 13.45064 -0.01303
C 29.54173 24.20205 -0.02049
C 27.03171 2.74355 0.01259
C 33.14408 19.21249 -0.0136
C 31.97143 17.01008 -0.02474
C 1.18802 22.02526 0.02712
C 34.37576 21.37638 -0.02213
C 34.37332 19.86153 0.01951
C 1.16652 19.1628 -0.01678
C 1.24018 17.76882 0.01223
C 34.42951 17.07584 0.00648
C 34.36321 15.63272 0.02114
C 1.18089 14.91334 -0.02957
C 1.26663 13.47781 0.00343
C 0.03709 12.80366 -0.02656
C 0.00966 11.32093 -0.02442
C 1.31159 10.65226 -0.00027
C 1.2137 9.30009 -0.00583
C 0.00052 8.5717 -0.02302
C 34.41662 7.16409 -0.02849
C 1.19702 6.45685 0.02931
C 1.1975 5.01443 0.00628
C 34.43298 4.26906 -0.0345
C 34.40413 2.81231 -0.00931
C 1.18413 2.0856 -0.00939
C 1.22814 0.66046 -0.00468
C 1.20513 23.44125 0.00723
C 34.40527 24.08905 0.03076
C 0.01776 25.5623 -0.05239
C 1.24105 26.2187 -0.00598
C 31.87101 15.58888 0.00369
C 33.0978 14.85683 0.00455
C 33.18083 13.43161 -0.00644
C 31.99447 12.74533 -0.01839
C 31.96747 11.31969 0.00137
C 33.19266 10.62236 0.00199
C 33.17931 9.24952 0.04381
C 31.96873 8.45541 0.02806
C 32.00683 7.07487 0.01504
C 33.22352 6.36366 -0.00069
C 33.20194 17.75112 0.00594
C 33.23423 4.93775 0.04926
C 31.96632 2.77254 0.00349
C 33.2228 2.08427 -0.00323
C 33.19275 0.68061 -0.00841
C 31.94675 33.98632 0.0001
C 34.42788 32.7123 -0.02927
C 1.15739 31.89241 -0.01404
C 1.06021 30.54913 0.01027
C 34.36615 29.73602 0.01831
C 34.34761 28.32088 -0.01037
C 1.22363 27.67233 -0.00439
C 31.96232 4.20874 -0.03838
C 27.02712 4.14737 0.01495
C 28.25901 4.92115 0.00235
C 28.20912 6.39085 0.01094
C 22.18041 15.66249 0.00096
C 23.39894 14.90407 -0.01527
C 23.34752 13.50978 0.01087
C 22.16159 12.75518 0.00199
C 22.20926 11.32157 0.01511
C 23.44368 10.56422 -0.00478
C 23.37183 9.14948 -0.01662
C 22.10711 8.51446 -0.01185
C 22.09601 7.06806 0.01126
C 23.37272 6.31857 0.01852
C 23.37274 4.89235 -0.00381
C 22.15896 4.23427 0.03046
C 22.10966 2.79942 0.0296
C 23.32828 2.12121 0.03374
C 23.39 0.74127 -0.02845
C 22.14844 0.01916 -0.03213
C 24.61118 32.59798 0.02239
C 25.85061 31.98664 0.01153
C 25.89399 30.62011 0.02734
C 24.67108 29.8759 -0.0055
C 24.69028 28.40823 0.01515
C 22.109 17.06891 0.01277
C 23.37328 17.76496 -0.02422
C 23.37682 19.16102 -0.01721
C 22.09187 19.86348 -0.01154
C 20.8589 9.24238 0.03754
C 19.66161 8.5647 0.01739
C 19.67397 7.13971 0.00755
C 20.88576 6.39865 -0.0054
C 20.95553 4.99294 0.00667
C 19.68329 4.32766 0.00143
C 19.66502 2.86738 -0.017
C 20.87071 2.17108 0.00364
C 20.92857 0.6946 -0.00831
C 19.70935 0.01055 -0.02957
C 25.82584 27.65131 -0.00225
C 22.21335 32.68165 -0.04422
C 23.436 30.54128 -0.00703
C 22.19066 29.86965 -0.04076
C 22.17288 28.40361 -0.00652
C 23.5212 27.68708 0.0058
C 23.32688 26.28803 -0.00865
C 22.05091 25.55859 0.00675
C 22.06447 24.1443 -0.00311
C 23.23334 23.45115 0.00742
C 23.24748 22.09303 -0.01594
C 22.05706 21.31794 0.0106
C 23.35668 31.93692 0.00654
C 25.82223 26.21396 0.00071
C 24.499 25.52756 -0.01107
C 24.49591 24.11031 -0.01586
C 27.0562 29.80239 0.04306
C 27.07459 28.36747 0.00996
C 28.29719 27.72611 0.00195
C 28.24831 26.26363 -0.00802
C 26.99191 25.47481 -0.00218
C 27.08702 24.09969 -0.01654
C 28.36161 23.40296 -0.00037
C 28.34258 21.97135 -0.0032
C 27.10831 21.33674 0.00622
C 27.05058 19.88216 -0.02815
C 28.26059 30.4696 0.00367
C 28.24905 19.13388 -0.00942
C 27.01827 17.02913 0.00826
C 26.99749 15.58061 -0.00294
C 28.2143 14.90182 0.00152
C 28.33185 13.50408 0.01257
C 27.10001 12.78978 0.02316
C 27.09933 11.39852 0.04185
C 28.31855 10.62916 0.00194
C 28.3047 9.19475 -0.00621
C 27.00884 8.50773 0.02611
C 26.99585 7.09763 0.02198
C 28.26367 17.69578 0.00487
C 19.64812 11.39212 -0.00111
C 28.30957 31.916 -0.01679
C 24.5924 34.05248 0.00684
C 25.79155 23.38526 -0.01971
C 25.84135 22.02457 -0.02118
C 24.58422 21.34403 0.00733
C 24.56261 19.96003 -0.00178
C 25.89216 19.20901 0.00768
C 25.81618 17.75937 -0.0276
C 24.61838 17.02018 0.03005
C 24.62807 15.61458 -0.04078
C 25.80913 14.89511 0.02117
C 25.85062 13.48652 0.02737
C 27.09536 32.68673 -0.01052
C 24.61886 12.71472 -0.00498
C 25.86094 10.71385 0.03102
C 25.82107 9.27627 0.02555
C 24.61274 8.42015 0.01423
C 24.5987 7.02287 -0.00285
C 25.86481 6.32269 -0.009
C 25.83699 4.91305 -0.01199
C 24.68844 4.19814 -0.00229
C 24.5564 2.79694 -0.00938
C 25.73817 2.08613 -0.0264
C 25.79492 0.65868 -0.01154
C 24.60547 11.35124 0.00135
C 2.45147 32.62904 0.00088
