391
Graphene
C 0.01549 0.04152 0.01295
C 13.53605 19.16791 0.01363
C 13.49475 17.79415 -0.02162
C 12.3162 17.07388 0.00415
C 12.31052 15.63037 -0.0014
C 13.52618 14.92101 0.02162
C 13.51138 13.52022 0.0076
C 12.21979 12.77631 0.01241
C 12.25048 11.36053 -0.01454
C 13.49627 10.58872 0.01945
C 12.33276 19.85866 0.01877
C 13.545 9.16335 0.01416
C 12.33642 7.09976 0.02299
C 13.6161 6.34844 0.00244
C 13.58692 4.93199 -0.01717
C 12.24032 4.35992 0.05265
C 12.35113 2.83627 -0.01952
C 13.5305 2.04381 -0.02813
C 13.49726 0.63755 0.00374
C 12.32683 33.99658 0.00052
C 14.74922 32.63412 -0.03682
C 12.3026 8.54636 0.03542
C 12.30419 21.27769 -0.00925
C 13.48424 22.07562 0.00444
C 13.45375 23.46653 -0.01789
C 9.81945 12.87476 -0.02759
C 9.866 11.41128 0.0402
C 11.05709 10.67151 0.00572
C 11.07539 9.22117 0.03592
C 9.7808 8.49546 0.00406
C 9.8115 7.18794 0.00943
C 11.02763 6.39898 0.02841
C 11.13084 5.04792 -0.01111
C 9.82715 2.88162 -0.01275
C 10.99357 2.22548 0.00985
C 11.08262 0.63804 -0.02245
C 9.83769 0.01555 -0.00428
C 12.34983 32.58216 0.03101
C 13.58974 31.90616 -0.01536
C 13.51819 30.515 -0.02689
C 12.27102 29.76811 -0.01046
C 12.2611 28.42224 -0.00891
C 13.48565 27.64816 0.02819
C 13.59819 26.23711 0.00165
C 12.372 25.56766 -0.02971
C 12.25307 24.22842 0.02894
C 15.98125 31.94617 0.01965
C 11.02427 13.57479 0.03589
C 15.95438 30.57672 0.02058
C 14.71981 28.3481 -0.0108
C 16.0252 0.6647 0.03698
C 14.74292 0.05636 -0.00109
C 17.22118 32.70267 -0.00491
C 18.45203 31.97823 0.03338
C 18.4215 30.57666 -0.0258
C 17.23824 29.88185 -0.0331
C 17.29744 28.41008 -0.00316
C 18.44827 27.70198 0.02188
C 18.43919 26.28112 -0.01979
C 16.02924 2.10422 -0.02213
C 17.26743 25.50988 0.02691
C 18.38005 23.3976 0.01452
C 18.45751 21.96279 0.04892
C 17.19959 21.21246 -0.00111
C 17.2235 19.84401 -0.03557
C 18.4269 19.14262 0.03754
C 18.39284 17.75062 0.01739
C 17.15375 17.09072 0.00755
C 17.1117 15.68122 -0.0054
C 18.38327 14.91692 0.00667
C 17.15893 24.12619 -0.01581
C 14.77071 2.76312 0.00028
C 14.81893 4.20469 -0.00289
C 16.0296 5.006 -0.00066
C 16.00407 27.73318 -0.00368
C 16.06744 26.32305 -0.02696
C 14.82564 25.56723 -0.00114
C 14.7183 24.09895 0.00228
C 15.94092 23.41653 0.00798
C 16.04018 21.94967 0.00422
C 14.73359 21.3554 0.0351
C 14.76709 19.92504 -0.03113
C 15.94179 19.17417 0.02098
C 15.89641 17.79203 0.01848
C 14.68008 17.05077 -0.00619
C 14.74854 15.64832 -0.02162
C 15.9367 14.92289 0.00889
C 16.0127 13.49102 -0.00481
C 14.75796 12.74525 0.00979
C 14.68593 11.24824 0.01443
C 15.98659 10.63845 0.03505
C 15.97232 9.20074 -0.02815
C 14.72759 8.46785 -0.04147
C 14.82574 7.06538 -0.05302
C 16.06357 6.43539 0.00213
C 14.73204 29.8195 -0.01957
C 18.4613 13.52258 0.00143
C 11.0911 14.98042 -0.00033
C 9.85105 17.08558 0.01364
C 3.73141 2.16878 -0.00074
C 3.70006 0.6781 -0.00518
C 2.44008 34.07246 0.0086
C 4.86305 32.68753 -0.00643
C 6.07549 31.94046 0.017
C 6.17107 30.44968 -0.03113
C 4.91922 29.97302 -0.02566
C 6.19349 23.35345 -0.00094
C 6.18861 22.06187 0.02322
C 2.44188 2.86925 0.01465
C 4.88152 21.34247 -0.00725
C 6.10642 19.20121 0.01087
C 6.11475 17.83567 -0.01343
C 4.92899 17.02872 0.00988
C 4.87997 15.60657 0.0276
C 6.08617 14.93977 0.01305
C 6.19693 13.48397 -0.00077
C 4.96747 12.76853 0.03368
C 4.95131 11.38009 -0.02929
C 6.17679 10.59838 -0.00966
C 4.87987 19.93486 -0.05697
C 2.42154 4.28663 -0.03996
C 3.62919 5.07272 0.01996
C 3.76497 6.46335 -0.00279
C 3.69937 30.48282 0.02769
C 2.45475 29.82091 -0.03291
C 2.53061 28.38808 -0.04999
C 2.38333 25.48738 0.04505
C 2.558 24.1753 0.03284
C 3.56052 23.32623 -0.04307
C 3.66906 22.02742 0.03189
C 2.3489 21.37673 0.00031
C 2.44981 19.92459 -0.003
C 3.69756 19.1954 0.01402
C 3.71943 17.73898 0.02379
C 2.45216 17.06483 0.00907
C 2.43701 15.68472 0.00643
C 3.65149 14.92336 -0.01509
C 3.67594 13.50884 0.03267
C 2.45132 12.68889 0.02374
C 2.4422 11.29839 0.00402
C 3.74251 10.61356 0.0073
C 3.71601 9.20425 0.0174
C 2.46222 8.5875 0.03828
C 2.4109 7.206 0.01226
C 6.17915 9.23811 -0.03337
C 9.81792 15.63982 -0.01062
C 4.94626 8.53667 0.01227
C 6.22801 6.3678 -0.00049
C 7.44066 7.07122 0.03693
C 7.27998 2.85793 0.01745
C 8.55058 2.26426 0.00488
C 8.57762 0.67792 -0.01004
C 7.29278 34.07608 -0.02896
C 9.80561 32.66291 -0.00131
C 11.04592 31.99373 -0.01118
C 11.08603 30.49522 -0.014
C 9.81642 29.83956 0.02147
C 7.37121 8.48322 -0.01384
C 9.87042 28.49948 0.00373
C 11.03733 26.31871 0.00438
C 9.92052 25.61315 0.01291
C 9.76 24.24471 0.00093
C 11.05732 23.48676 0.00057
C 11.06785 22.03513 -0.01634
C 9.84697 21.34178 -0.00334
C 9.83347 19.92789 0.02339
C 11.06316 19.22876 0.01641
C 11.03893 17.83606 -0.00719
C 11.03404 27.74613 -0.00191
C 8.54626 9.2897 -0.00482
C 8.61409 10.71727 0.02888
C 7.37563 11.32908 0.00685
C 6.13821 4.96037 0.00848
C 4.95166 4.32099 -0.01303
C 4.89387 2.83541 -0.01378
C 6.10368 2.21642 0.02635
C 6.10772 0.77426 0.0127
C 4.9433 0.03367 0.01396
C 7.27215 32.65327 0.01849
C 8.49589 32.00575 -0.01142
C 8.56893 30.54189 -0.00562
C 7.43003 29.80248 -0.00494
C 8.5168 23.47667 0.00054
C 8.62486 22.12919 0.03007
C 7.42235 21.33428 -0.00095
C 7.39019 19.88911 0.01572
C 8.62909 19.19792 -0.04848
C 8.5525 17.79033 -0.00892
C 7.36314 17.09179 -0.01362
C 7.29491 15.65504 -0.0008
C 8.49866 14.95061 0.0288
C 8.52002 13.4902 0.00393
C 7.34684 12.72678 0.00895
C 4.92662 7.13828 0.00873
C 3.64226 31.96111 0.01707
C 17.24644 12.82484 -0.017
C 18.36981 10.60862 -0.00831
C 29.48621 24.11643 0.07705
C 30.7869 23.50457 0.0103
C 30.76422 21.95582 0.02108
C 29.53479 21.45683 0.00716
C 30.77507 9.14783 0.00307
C 29.52224 8.58315 0.00346
C 29.48213 7.08393 0.01713
C 30.66404 6.43911 -0.01694
C 30.76333 5.02238 0.01428
C 29.51182 25.50555 0.01908
C 29.602 4.25215 -0.02142
C 30.75642 2.1492 0.00026
C 30.74875 0.7659 0.00682
C 29.53389 0.06393 -0.01779
C 31.95678 32.65388 0.03794
C 33.18333 31.99125 0.01927
C 33.23478 30.57619 0.01574
C 31.99149 29.83428 -0.02383
C 31.99861 28.32581 -0.01429
C 33.21868 27.65361 -0.0136
C 29.51234 2.84697 0.0544
C 30.73676 26.2698 0.01518
C 30.74113 27.69471 -0.00971
C 29.47987 28.37806 -0.03735
C 28.27434 27.63622 0.04266
C 28.29623 26.17631 0.01324
C 27.0673 25.5172 0.0014
C 27.0003 24.11353 0.00924
C 28.20733 23.48712 0.02326
C 28.26533 21.92421 0.00261
C 27.00233 21.23552 0.03265
C 28.31431 9.14993 -0.02049
C 27.04985 8.656 -0.01854
C 27.09328 7.03799 -0.01415
C 28.23963 6.29904 -0.03039
C 28.34251 4.90637 0.01836
C 27.10735 4.22616 0.03531
C 27.01957 2.82276 -0.00669
C 28.31621 2.11945 0.0101
C 28.29518 0.72998 0.01705
C 27.01612 0.01873 -0.0405
C 29.52335 32.71067 -0.01303
C 30.75708 31.99402 -0.01461
C 30.78554 30.58378 -0.02155
C 29.5056 29.90899 -0.00944
C 33.26027 26.28262 0.00594
C 27.0876 28.35865 0.01177
C 32.00907 25.5833 -0.02474
C 33.22735 23.4772 0.00455
C 34.35854 21.29933 -0.02213
C 34.33322 19.84862 0.01951
C 1.20081 19.19775 -0.01678
C 1.22044 17.82809 0.01223
C 0.00332 16.85117 0.00648
C 34.38254 15.62428 0.02114
C 1.19462 14.9085 -0.02957
C 1.2331 13.44722 0.00343
C 34.41407 12.7614 -0.02656
C 1.12922 22.03181 0.02712
C 34.367 11.32693 -0.02442
C 1.1786 9.22652 -0.00583
C 34.41419 8.53077 -0.02302
C 34.40733 7.11007 -0.02849
C 1.23623 6.47108 0.02931
C 1.19079 4.98585 0.00628
C 34.39407 4.25419 -0.0345
C 34.36014 2.79678 -0.00931
C 1.17571 2.15107 -0.00939
C 1.21787 0.76596 -0.00468
C 1.2793 10.55517 -0.00027
C 1.17283 23.4471 0.00723
C 0.00116 24.22613 0.03076
C 0.00442 25.58126 -0.05239
C 33.13678 22.04574 -0.00644
C 32.03816 21.32505 -0.01839
C 33.1537 19.20093 0.00137
C 33.17733 10.63463 0.00199
C 33.21924 9.25704 0.04381
C 31.9561 8.54613 0.02806
C 31.93311 7.0607 0.01504
C 33.16817 6.39623 -0.00069
C 33.21305 4.99706 0.04926
C 31.99477 4.32587 -0.03838
C 31.97954 2.801 0.00349
C 33.1644 2.07589 -0.00323
C 33.16979 0.7014 -0.00841
C 31.91463 0.0059 0.0001
C 0.02645 32.68567 -0.02927
C 1.18099 31.87665 -0.01404
C 1.19992 30.48211 0.01027
C 0.01559 29.79536 0.01831
C 0.00947 28.34467 -0.01037
C 1.28609 27.72585 -0.00439
C 1.28095 26.22122 -0.00598
C 31.98563 24.17948 0.00369
C 17.21264 11.34658 0.00364
C 26.99289 29.81148 -0.00416
C 28.31063 31.9913 0.01799
C 19.63702 17.01653 0.01126
C 19.67227 15.60441 0.01852
C 20.96692 14.91157 -0.00381
C 20.97612 13.47976 0.03046
C 19.67114 12.7721 0.0296
C 19.61113 11.37538 0.03374
C 20.77771 10.58759 -0.02845
C 20.85697 9.18754 -0.03213
C 19.60991 8.45273 0.02239
C 21.00117 17.73784 -0.01185
C 19.62455 7.11347 0.01153
C 20.79012 4.92119 -0.0055
C 19.6074 4.17769 0.01515
C 19.70653 2.78649 -0.00225
C 20.94112 2.05567 0.00071
C 20.96794 0.68345 -0.01107
C 19.76077 34.03095 -0.01586
C 22.17189 32.61153 -0.01971
C 23.38756 31.91086 -0.02118
C 23.32511 30.43718 0.00733
C 20.88098 6.36171 0.02734
C 20.92635 19.13297 -0.01662
C 19.69699 19.83552 -0.00478
C 19.76876 21.26564 0.01511
C 18.39075 9.19267 -0.02957
C 17.20214 8.48771 -0.04422
C 17.2628 7.08002 0.00654
C 18.49137 6.41766 -0.00703
C 18.42389 4.96757 -0.04076
C 17.18163 4.25509 -0.00652
C 17.25552 2.85244 0.0058
C 18.51165 2.12434 -0.00865
C 18.53526 0.6966 0.00675
C 17.2947 0.02261 -0.00311
C 19.70405 32.60595 0.00742
C 20.94253 31.91677 -0.01594
C 20.9215 30.47823 0.0106
C 19.66419 29.86546 -0.01154
C 19.63185 28.46577 -0.01721
C 20.85501 27.71276 -0.02422
C 20.89361 26.31492 0.01277
C 19.70459 25.57928 0.00096
C 19.65227 24.10781 -0.01527
C 20.90049 23.53103 0.01087
C 20.91977 22.09238 0.00199
C 22.1257 29.77656 -0.00178
C 28.28778 30.55408 0.01699
C 22.13466 28.34481 0.00768
C 23.44482 26.30148 0.03005
C 24.54245 29.80318 -0.00037
C 24.55661 28.36632 -0.0032
C 25.84572 27.68666 0.00622
C 25.9005 26.32466 -0.02815
C 24.65093 25.58094 -0.00942
C 24.57789 24.14578 0.00487
C 25.78939 23.39931 0.00826
C 25.70402 21.87694 -0.00294
C 24.44964 21.28969 0.00152
C 25.76269 30.51671 -0.01654
C 25.71918 9.16897 0.01257
C 24.56182 7.00432 0.04185
C 25.81073 6.33094 0.00194
C 25.82487 4.91337 -0.00621
C 24.55085 4.24566 0.02611
C 24.56779 2.87604 0.02198
C 25.74956 2.14405 0.01094
C 25.80233 0.71663 0.00235
C 24.61065 34.07641 0.01495
C 27.07609 32.66131 0.01259
C 24.63145 8.44294 0.02316
C 25.82928 31.92953 -0.00218
C 24.57543 32.61555 -0.00802
C 22.19792 34.07598 0.00195
C 22.23484 25.66357 -0.04078
C 22.17918 24.1868 0.02117
C 23.31044 23.396 0.02737
C 23.28772 21.96239 -0.00498
C 22.09429 21.34733 0.00135
C 22.13461 19.91548 0.03102
C 23.29139 19.15446 0.02555
C 22.21698 16.98363 0.01423
C 22.17059 15.79749 -0.00285
C 22.11063 12.72458 -0.009
C 22.08842 11.34941 -0.01199
C 23.37623 10.60821 -0.00229
C 23.35591 9.22778 -0.00938
C 22.13112 8.47414 -0.0264
C 22.06047 7.02347 -0.01154
C 23.34569 6.33903 0.00684
C 23.33106 4.98496 -0.01052
C 22.03289 4.25311 -0.01679
C 22.1312 2.82113 0.00367
C 23.33586 2.15669 0.04306
C 23.42142 0.76514 0.00996
C 23.36727 27.67341 -0.0276
C 2.39017 32.62892 0.00208
