325
Graphene
C 0.03886 0.02043 0.01295
C 12.33094 7.072 -0.00066
C 13.49812 6.46053 -0.00289
C 13.52544 5.03467 0.00028
C 12.33408 4.26309 -0.02213
C 12.36746 2.87577 0.03698
C 13.55645 2.13847 -0.00109
C 13.46253 0.64149 -0.00491
C 12.25355 8.50115 0.00213
C 12.24851 33.95084 0.03338
C 15.99989 31.93595 -0.0331
C 16.06191 30.53549 -0.00316
C 14.79581 29.76609 0.02188
C 14.83188 28.41151 -0.01979
C 16.0312 27.65946 0.02691
C 15.98806 26.38284 -0.01581
C 16.02304 19.11487 0.01452
C 14.77185 32.59628 -0.0258
C 15.90881 17.73667 0.04892
C 13.57208 9.16913 -0.05302
C 12.25255 11.33618 -0.02815
C 9.80809 7.13352 -0.02696
C 11.07146 6.35106 -0.00114
C 11.03724 4.99754 0.00228
C 9.77342 4.32192 0.00798
C 9.85123 2.87099 0.00422
C 11.09349 2.16588 0.0351
C 11.08345 0.71495 -0.03113
C 13.54956 10.64508 -0.04147
C 9.82716 0.02186 0.02098
C 13.55818 31.95091 -0.00619
C 13.56283 30.54445 -0.02162
C 12.34839 29.97775 0.00889
C 12.265 15.62903 -0.00481
C 13.46463 14.99109 0.00979
C 13.52661 13.41076 0.01443
C 12.31205 12.7632 0.03505
C 12.33467 32.64819 0.01848
C 14.86502 16.94622 -0.00111
C 14.7236 15.56712 -0.03557
C 15.96561 14.9274 0.03754
C 17.17975 25.49103 -0.01154
C 17.13964 24.11432 -0.01721
C 18.42516 23.39987 -0.02422
C 18.51625 22.0055 0.01277
C 17.2335 21.33401 0.00096
C 17.19155 19.90856 -0.01527
C 18.39859 19.24737 0.01087
C 18.42759 26.30464 0.0106
C 18.39445 17.6915 0.00199
C 17.21126 15.58586 -0.00478
C 18.46944 14.9521 -0.01662
C 18.4552 13.44358 -0.01185
C 17.16538 12.76262 0.01126
C 17.17924 11.41004 0.01852
C 17.2214 4.21872 -0.00381
C 17.28299 2.9148 0.03046
C 17.2264 16.96291 0.01511
C 18.46265 27.68748 -0.01594
C 17.26978 28.39319 0.00742
C 17.26489 29.76776 -0.00311
C 15.91998 13.48829 0.01739
C 14.74756 12.74183 0.00755
C 14.76989 11.31062 -0.0054
C 16.05932 10.57479 0.00667
C 15.93744 9.25514 0.00143
C 14.73282 8.53494 -0.017
C 14.71693 7.11872 0.00364
C 15.86981 6.471 -0.00831
C 16.02779 5.0566 -0.02957
C 14.74851 4.28589 -0.04422
C 14.79714 2.79056 0.00654
C 16.01087 2.13785 -0.00703
C 16.00711 0.73336 -0.04076
C 14.75987 0.02168 -0.00652
C 17.25968 32.67337 0.0058
C 18.45008 31.94073 -0.00865
C 18.44784 30.47843 0.00675
C 9.8162 8.48309 -0.00368
C 11.05433 9.21872 -0.0108
C 11.09646 10.6626 -0.01957
C 9.79456 11.35024 0.02058
C 3.642 6.40466 0.00093
C 3.65128 4.99956 0.00057
C 2.45294 4.24192 -0.01634
C 2.41006 2.85996 -0.00334
C 3.66856 2.1405 0.02339
C 3.74204 0.69412 0.01641
C 2.45544 34.05788 -0.00719
C 2.45662 7.04217 0.01291
C 4.87639 32.63698 0.01364
C 6.15889 30.50212 -0.00033
C 4.85701 29.79574 0.03589
C 4.94489 28.39763 -0.02759
C 4.97901 17.0638 0.0402
C 4.885 15.70682 0.00572
C 6.16178 14.88457 0.03592
C 6.13146 13.49564 0.00406
C 6.1248 31.96784 -0.01062
C 2.46458 8.56466 0.00438
C 3.72042 9.18655 -0.00191
C 3.68269 10.67826 0.00373
C 3.63543 30.56018 -0.0008
C 2.4184 29.83291 0.0288
C 2.43968 28.42074 0.00393
C 3.7236 27.73514 0.00895
C 3.68984 26.23471 0.00685
C 2.52225 25.56687 0.02888
C 2.44813 24.16073 -0.00482
C 2.39101 21.33328 -0.01384
C 2.43809 19.97901 0.03693
C 3.67603 19.17391 0.01745
C 3.69815 17.74261 0.00488
C 2.40046 17.03165 -0.01004
C 2.40499 15.648 -0.02896
C 3.71478 14.86492 -0.00131
C 3.73765 13.51712 -0.01118
C 2.46928 12.76255 -0.014
C 2.52703 11.34501 0.02147
C 4.93754 12.80009 0.00943
C 18.40445 2.1112 0.0296
C 4.88502 11.44446 0.02841
C 6.15369 9.25201 -0.01275
C 7.40645 7.09614 0.0076
C 8.60031 6.3926 0.01241
C 8.61832 4.97673 -0.01454
C 7.36546 4.22231 0.01945
C 7.40494 2.82542 0.01416
C 8.51696 2.1062 0.03542
C 8.5786 0.7777 0.02299
C 7.3514 8.57148 0.02162
C 7.37504 0.03321 0.00244
C 11.11165 31.98602 0.05265
C 11.06029 30.36727 -0.01952
C 9.84941 29.85282 -0.02813
C 9.85963 15.65642 0.00374
C 11.05051 14.98864 0.00052
C 11.05164 13.4622 -0.03682
C 9.80326 12.71864 0.01965
C 9.83504 32.63144 -0.01717
C 8.64032 9.22686 -0.0014
C 8.61739 10.60632 0.00415
C 7.36951 11.38579 -0.02162
C 4.93726 8.59882 0.00985
C 4.88015 7.12629 -0.02245
C 6.20677 6.38096 -0.00428
C 6.19928 4.9723 0.03101
C 4.94166 4.30296 -0.01536
C 4.8915 2.73448 -0.02689
C 6.13269 2.10017 -0.01046
C 6.10907 0.72345 -0.00891
C 4.86719 34.02723 0.02819
C 7.38513 32.67164 0.00165
C 8.59092 31.98934 -0.02971
C 8.58934 30.52599 0.02894
C 7.38786 29.77322 -0.01789
C 7.32277 15.63525 0.00444
C 8.5915 15.00838 -0.00925
C 8.63539 13.50827 0.01877
C 7.36089 12.78051 0.01363
C 6.14407 10.69456 -0.01111
C 3.70744 31.99953 -0.01362
C 18.44166 0.70742 0.03374
C 19.62734 32.68684 -0.03213
C 32.0205 32.65623 0.00682
C 33.22188 32.0162 -0.01779
C 33.21225 30.55567 0.03794
C 31.95344 29.94674 0.01927
C 33.09012 22.07886 0.01574
C 32.03957 21.389 -0.02383
C 31.9827 19.92632 -0.01429
C 29.43049 34.0719 0.00026
C 33.20305 19.21286 -0.0136
C 31.98695 17.00979 -0.02474
C 31.98324 15.59505 0.00369
C 33.1929 14.94293 0.00455
C 33.16813 13.53517 -0.00644
C 31.9767 12.79195 -0.01839
C 31.89085 11.3712 0.00137
C 33.13018 10.69577 0.00199
C 33.18719 17.73057 0.00594
C 33.20349 9.22286 0.04381
C 30.6793 0.76727 0.0544
C 29.46327 2.84916 0.01428
C 29.58929 19.9444 -0.01303
C 30.76211 19.13409 -0.01461
C 30.73194 17.75158 -0.02155
C 29.46222 17.05671 -0.00944
C 29.51503 15.60714 -0.03735
C 30.72181 14.95227 -0.00971
C 30.64186 13.50234 0.01518
C 30.68897 2.15766 -0.02142
C 29.47326 12.71963 0.01908
C 30.72335 10.70373 0.0103
C 30.68018 9.23509 0.02108
C 29.50695 8.54265 0.00716
C 29.49252 7.04582 0.00307
C 30.72246 6.381 0.00346
C 30.73404 4.99936 0.01713
C 29.55811 4.24561 -0.01694
C 29.53097 11.40606 0.07705
C 31.93403 8.51734 0.02806
C 31.95091 7.09569 0.01504
C 33.17169 6.38803 -0.00069
C 34.35388 17.0951 0.00648
C 0.0488 15.61151 0.02114
C 1.24438 14.86695 -0.02957
C 1.28355 13.44435 0.00343
C 34.42424 12.82591 -0.02656
C 34.40487 11.38579 -0.02442
C 1.24183 10.65415 -0.00027
C 1.18523 17.75097 0.01223
C 1.22155 9.22837 -0.00583
C 34.39681 7.13414 -0.02849
C 1.25243 6.42315 0.02931
C 1.23082 4.88066 0.00628
C 0.02041 4.2071 -0.0345
C 0.01798 2.81958 -0.00931
C 1.23375 2.16162 -0.00939
C 1.25631 0.67191 -0.00468
C 34.37404 8.54512 -0.02302
C 1.26515 19.11327 -0.01678
C 34.40612 19.83901 0.01951
C 34.38361 21.3564 -0.02213
C 33.17137 4.93793 0.04926
C 31.92013 4.30786 -0.03838
C 31.95677 2.84381 0.00349
C 33.2172 2.06729 -0.00323
C 33.24517 0.6896 -0.00841
C 31.96343 0.0369 0.0001
C 0.07868 32.64864 -0.02927
C 1.22969 31.86313 -0.01404
C 1.24041 30.52204 0.01027
C 0.04511 29.78792 0.01831
C 34.41946 28.38703 -0.01037
C 1.23061 27.69495 -0.00439
C 1.18972 26.28363 -0.00598
C 0.00127 25.53706 -0.05239
C 0.0375 24.31775 0.03076
C 1.20929 23.46935 0.00723
C 1.28756 22.06554 0.02712
C 30.80424 30.53278 -0.0405
C 30.73721 31.94957 0.01705
C 29.51522 32.6699 0.0101
C 27.08312 0.01794 -0.00669
C 20.9539 0.71438 0.03102
C 19.63787 34.04084 0.02555
C 22.1404 32.72856 0.01423
C 23.34261 31.96746 -0.00285
C 23.40186 30.56966 -0.009
C 22.11208 29.7356 -0.01199
C 22.11247 28.32591 -0.00229
C 20.83146 2.14779 0.00135
C 23.51466 27.77738 -0.00938
C 22.0497 19.86265 -0.01154
C 23.31924 19.18005 0.00684
C 23.3445 17.70221 -0.01052
C 22.06672 17.00415 -0.01679
C 22.11247 15.56338 0.00367
C 23.34328 14.96383 0.04306
C 23.45599 13.52384 0.00996
C 22.11453 21.2697 -0.0264
C 19.75303 2.7911 -0.00498
C 19.67527 12.79404 0.02737
C 20.73193 13.48042 0.02117
C 20.91604 31.9789 0.02239
C 20.94536 30.47876 0.01153
C 19.69857 29.81233 0.02734
C 19.62249 28.43509 -0.0055
C 20.88819 27.71025 0.01515
C 20.84426 26.37404 -0.00225
C 19.662 25.57665 0.00071
C 19.65074 24.1531 -0.01107
C 20.87359 23.48747 -0.01586
C 20.96656 22.0529 -0.01971
C 19.69438 21.28623 -0.02118
C 19.64237 19.83528 0.00733
C 20.85888 19.16317 -0.00178
C 20.89295 17.76925 0.00768
C 19.64993 17.11202 -0.0276
C 19.66949 15.57566 0.03005
C 20.90228 14.86206 -0.04078
C 23.36971 2.16337 0.00195
C 17.2205 0.01368 -0.02845
C 23.42562 0.74889 -0.00802
C 24.51209 32.60108 -0.01654
C 28.25285 19.21307 0.01699
C 28.2856 17.73122 -0.00416
C 27.04572 16.97531 0.01177
C 27.01865 15.61913 0.04266
C 28.32787 14.86748 0.01324
C 28.30144 13.47468 0.0014
C 27.09072 12.76297 0.00924
C 27.02562 19.81342 0.01799
C 27.0943 11.31332 0.02326
C 28.2861 9.16383 0.03265
C 28.27598 6.37428 -0.02049
C 28.26525 4.96991 -0.01854
C 27.12416 4.21874 -0.01415
C 27.0343 2.90146 -0.03039
C 28.1985 2.13247 0.01836
C 28.21762 0.69973 0.03531
C 28.25697 10.52223 0.00261
C 27.0966 29.92215 0.01259
C 28.24657 30.47001 0.01495
C 28.33271 31.91149 0.00235
C 25.71801 31.95956 -0.00037
C 25.74705 30.44428 -0.0032
C 24.62148 29.7863 0.00622
C 24.52608 28.34503 -0.02815
C 24.61027 19.76953 -0.00942
C 25.87125 19.14428 0.00487
C 25.84223 17.70427 0.00826
C 24.58117 17.02936 -0.00294
C 24.63314 15.56169 0.00152
C 25.78287 14.86192 0.01257
C 25.80612 13.49004 0.02316
C 24.56992 12.74696 0.04185
C 24.6105 2.73254 0.00194
C 25.82065 2.107 -0.00621
C 25.819 0.68431 0.02611
C 24.6258 0.01023 0.02198
C 27.04389 32.61894 0.01094
C 22.19947 0.02503 -0.00218
C 2.41963 32.65428 -0.00892
