408
Graphene
C 34.39678 0.0514 0.01295
C 16.02074 26.37874 -0.01536
C 14.71637 25.67553 -0.02689
C 14.71277 24.20204 -0.01046
C 15.97299 23.48142 -0.00891
C 15.96025 22.10339 0.02819
C 14.61896 21.46028 0.00165
C 15.90154 18.81403 -0.02971
C 16.01646 14.86772 0.02894
C 15.83241 13.45177 -0.01789
C 14.72586 12.66009 0.00444
C 14.76453 11.31523 -0.00925
C 16.00015 10.55291 0.01877
C 15.97793 9.1164 0.01363
C 14.75594 8.47443 -0.02162
C 14.70177 7.10838 0.00415
C 16.03928 6.4073 -0.0014
C 15.9728 4.95634 0.02162
C 14.72024 4.31995 0.0076
C 14.75657 2.79944 0.01241
C 15.93772 2.12872 -0.01454
C 15.98856 0.74333 0.01945
C 16.08594 27.80213 0.03101
C 14.7422 28.49108 -0.00428
C 14.71372 29.87529 -0.02245
C 16.02009 30.53949 0.00985
C 12.24391 29.91336 0.00438
C 12.263 28.45766 0.01291
C 13.50495 27.76444 0.00093
C 13.52758 26.37572 0.00057
C 12.301 25.69537 -0.01634
C 12.26264 24.32957 -0.00334
C 13.4763 23.62073 0.02339
C 13.56238 22.12239 0.01641
C 12.35689 11.38959 -0.00719
C 13.612 10.57147 0.01364
C 14.76887 34.04153 0.01416
C 13.51934 9.22854 -0.01062
C 12.31919 7.15518 0.03589
C 13.41829 6.41187 -0.02759
C 13.47502 5.03287 0.0402
C 12.27066 4.32126 0.00572
C 12.21023 2.88643 0.03592
C 13.49116 2.12656 0.00406
C 13.47528 0.73333 0.00943
C 12.16994 34.07827 0.02841
C 14.83129 32.7134 -0.01111
C 16.01539 31.94513 -0.01275
C 12.29702 8.65861 -0.00033
C 13.5485 30.53237 -0.00191
C 17.24749 32.64229 0.03542
C 18.47327 30.62101 0.00244
C 18.4645 2.11843 0.01443
C 18.5454 0.75393 0.03505
C 17.27533 0.03855 -0.02815
C 19.6652 32.61185 -0.04147
C 20.8785 31.94391 -0.05302
C 20.97014 30.48697 0.00213
C 19.67965 29.82011 -0.00066
C 19.65349 28.3911 -0.00289
C 20.88458 27.71011 0.00028
C 20.89608 26.30062 -0.02213
C 19.63717 25.59462 0.03698
C 19.58876 24.16706 -0.00109
C 20.78651 23.40693 -0.00491
C 20.8198 22.02773 0.03338
C 19.5554 21.24 -0.0258
C 19.57402 19.8016 -0.0331
C 20.7909 19.09116 -0.00316
C 20.83636 17.64256 0.02188
C 19.57535 16.95031 -0.01979
C 19.61265 15.54001 0.02691
C 20.86033 14.95878 -0.01581
C 17.20622 2.85669 0.00979
C 17.21645 4.26897 -0.00481
C 18.45077 4.94696 0.00889
C 18.46134 6.34506 -0.02162
C 17.28979 29.84945 -0.01717
C 17.27667 28.47178 0.05265
C 18.4636 27.74212 -0.01952
C 18.42229 26.3415 -0.02813
C 17.13386 25.62335 0.00374
C 17.16513 24.24381 0.00052
C 18.3018 23.43302 -0.03682
C 18.31676 21.94209 0.01965
C 17.04741 21.24508 0.02058
C 17.04269 19.75903 -0.01957
C 18.4404 31.89852 0.02299
C 18.37854 19.09932 -0.0108
C 16.99425 17.19813 -0.02696
C 17.08267 15.7429 -0.00114
C 18.34887 14.94174 0.00228
C 18.3291 13.50306 0.00798
C 17.15911 12.76387 0.00422
C 17.2052 11.38726 0.0351
C 18.50327 10.66717 -0.03113
C 18.44046 9.13562 0.02098
C 17.1974 8.48358 0.01848
C 17.20148 7.10409 -0.00619
C 18.32248 17.6944 -0.00368
C 20.88875 13.54455 0.01452
C 13.56339 31.98265 0.00373
C 9.78682 0.07408 -0.014
C 2.39136 2.83024 0.01402
C 3.63301 2.13988 0.02379
C 3.66166 0.73511 0.00907
C 2.38837 0.03563 0.00643
C 4.88417 32.73152 -0.01509
C 6.05964 32.00308 0.03267
C 6.09362 30.56801 0.02374
C 4.85125 29.88854 0.00402
C 4.77628 28.43595 0.0073
C 6.04748 27.73345 0.0174
C 6.10018 26.36634 0.03828
C 4.84008 25.66687 0.01226
C 4.83268 24.11596 -0.00279
C 6.13524 23.4475 0.01996
C 6.31491 22.01163 -0.03996
C 5.05332 21.19652 0.01465
C 4.81341 19.83856 -0.00074
C 4.84549 12.72586 -0.00518
C 4.76132 11.41516 0.0086
C 6.03192 10.68656 -0.00643
C 6.14573 9.30995 0.017
C 2.39276 4.22558 -0.003
C 3.61741 5.02302 0.00031
C 3.62033 6.43624 0.03189
C 2.44083 7.12869 -0.04307
C 3.65046 30.58073 0.00558
C 2.49437 29.82957 -0.0059
C 2.34866 28.38252 -0.01386
C 3.58297 27.61789 -0.02805
C 3.64463 26.25856 0.00081
C 2.39565 25.51187 0.00245
C 2.45436 24.13892 0.02728
C 3.64731 23.3574 -0.00039
C 3.78416 21.91595 0.0064
C 2.50661 21.22623 0.00211
C 4.91112 8.5885 -0.03113
C 2.44205 19.81067 -0.00449
C 3.60786 17.63138 0.02784
C 2.32593 17.09095 -0.01977
C 2.3355 15.71004 -0.00561
C 3.55596 15.15239 0.00208
C 3.76455 13.64165 0.01707
C 2.55667 12.87556 0.02769
C 2.4139 11.42783 -0.03291
C 3.59692 10.7116 -0.04999
C 3.68184 9.21068 0.04505
C 2.50811 8.58304 0.03284
C 3.69178 19.05839 -0.01979
C 12.24059 32.67344 0.02147
C 4.85881 7.20038 -0.02566
C 6.13187 5.02396 0.02322
C 7.37131 0.06396 0.03007
C 9.77112 32.7225 -0.00095
C 10.99336 32.0083 0.01572
C 10.96622 30.60637 -0.04848
C 9.71374 29.85322 -0.00892
C 9.76157 28.4075 -0.01362
C 10.95316 27.69532 -0.0008
C 11.01841 26.30992 0.0288
C 9.78749 25.50504 0.00393
C 9.84664 24.06032 0.00895
C 11.20018 23.52052 0.00685
C 11.32204 10.89672 0.02888
C 11.06669 9.37425 -0.00482
C 9.89566 8.6134 -0.01384
C 9.80756 7.21502 0.03693
C 11.05682 6.49446 0.01745
C 11.05713 5.01461 0.00488
C 9.79493 4.36467 -0.01004
C 9.80464 2.93675 -0.02896
C 11.03023 2.15957 -0.00131
C 10.9802 0.78158 -0.01118
C 8.56599 0.77885 0.00054
C 8.53477 2.24422 -0.00494
C 7.35218 2.94804 -0.00562
C 7.37222 4.35495 -0.01142
C 4.80996 4.36496 -0.00725
C 4.81055 2.88982 -0.05697
C 6.07305 2.20808 0.01087
C 6.14662 0.81585 -0.01343
C 4.93877 0.08656 0.00988
C 7.29221 32.71133 0.0276
C 8.53475 32.00109 0.01305
C 8.47568 30.63914 -0.00077
C 7.27625 29.87752 0.03368
C 7.31654 28.47297 -0.02929
C 6.12237 6.47609 -0.00094
C 8.54284 27.72637 -0.00966
C 7.34928 25.73072 0.01227
C 7.38773 24.20381 0.00873
C 8.57898 23.57627 -0.00049
C 7.37334 11.29422 0.00848
C 8.46751 10.83834 -0.01303
C 8.63556 9.24809 -0.01378
C 7.32288 8.67326 0.02635
C 7.35429 7.22009 0.0127
C 8.65615 6.52469 0.01396
C 8.65976 5.12386 0.01849
C 8.62709 26.32666 -0.03337
C 19.72371 12.75157 0.04892
C 19.72826 11.28333 -0.00111
C 20.98278 10.63329 -0.03557
C 29.50862 8.5674 -0.00971
C 29.50518 7.03149 0.01518
C 30.7499 6.31366 0.01908
C 30.74439 4.92317 0.07705
C 29.56933 4.20095 0.0103
C 29.50292 2.74492 0.02108
C 30.76699 2.10442 0.00716
C 30.79612 0.67693 0.00307
C 29.53067 0.00969 0.00346
C 32.0209 32.7096 0.01713
C 33.16363 31.90229 -0.01694
C 33.16359 30.49899 0.01428
C 31.94004 29.80265 -0.02142
C 31.92659 28.36362 0.0544
C 33.17661 27.61368 0.00026
C 33.17353 26.23411 0.00682
C 31.89411 25.6099 -0.01779
C 31.88543 24.18696 0.03794
C 33.08608 23.42754 0.01927
C 33.14965 22.0127 0.01574
C 31.90746 21.29473 -0.02383
C 30.70918 9.22386 -0.03735
C 30.74327 10.60689 -0.00944
C 29.50066 11.26302 -0.02155
C 29.52274 12.72502 -0.01461
C 28.29919 2.12824 0.01799
C 28.32768 0.72058 0.01699
C 27.13524 0.00878 -0.00416
C 29.55535 32.62651 0.01177
C 30.69402 31.98069 0.04266
C 30.71299 30.49511 0.01324
C 29.46026 29.84143 0.0014
C 29.50343 28.42173 0.00924
C 30.68069 27.70942 0.02326
C 30.628 26.25987 0.00261
C 31.96598 19.90749 -0.01429
C 29.40291 25.56275 0.03265
C 30.66995 23.44398 -0.01854
C 30.69177 21.97775 -0.01415
C 29.42633 21.31824 -0.03039
C 29.4334 19.85124 0.01836
C 30.69042 19.09782 0.03531
C 30.66638 17.73053 -0.00669
C 29.50402 17.03806 0.0101
C 29.45935 15.65674 0.01705
C 30.66592 14.89545 -0.0405
C 30.68968 13.53438 -0.01303
C 29.4707 24.1725 -0.02049
C 27.07133 2.80427 0.01259
C 33.17079 19.15581 -0.0136
C 31.93572 17.06339 -0.02474
C 1.28487 21.99752 0.02712
C 0.00428 21.32797 -0.02213
C 34.42813 19.89384 0.01951
C 1.19004 19.21892 -0.01678
C 1.0798 17.79946 0.01223
C 34.31229 17.00637 0.00648
C 34.36181 15.57381 0.02114
C 1.10865 14.94012 -0.02957
C 1.16232 13.54884 0.00343
C 34.42757 12.82621 -0.02656
C 0.00961 11.35228 -0.02442
C 1.17686 10.62501 -0.00027
C 1.19412 9.26183 -0.00583
C 0.01305 8.50246 -0.02302
C 34.3928 7.05561 -0.02849
C 1.19601 6.37979 0.02931
C 1.15435 4.93471 0.00628
C 34.39563 4.26474 -0.0345
C 34.4139 2.85753 -0.00931
C 1.15914 2.13052 -0.00939
C 1.14709 0.73597 -0.00468
C 1.25899 23.37648 0.00723
C 34.42886 24.05581 0.03076
C 34.36805 25.5045 -0.05239
C 1.12199 26.20858 -0.00598
C 31.97309 15.60326 0.00369
C 33.15306 14.86572 0.00455
C 33.15646 13.47636 -0.00644
C 31.96981 12.7769 -0.01839
C 31.95035 11.32076 0.00137
C 33.20289 10.64575 0.00199
C 33.2502 9.19189 0.04381
C 31.89907 8.53612 0.02806
C 31.91001 7.08109 0.01504
C 33.15389 6.33504 -0.00069
C 33.15787 17.74116 0.00594
C 33.2509 4.96163 0.04926
C 31.94906 2.81312 0.00349
C 33.21942 2.07792 -0.00323
C 33.20608 0.71548 -0.00841
C 32.01961 34.0501 0.0001
C 34.41092 32.66077 -0.02927
C 1.20211 31.88332 -0.01404
C 1.20145 30.5132 0.01027
C 34.33617 29.83145 0.01831
C 34.30107 28.38567 -0.01037
C 1.15319 27.69967 -0.00439
C 31.96941 4.28325 -0.03838
C 27.08835 4.19932 0.01495
C 28.30491 4.85827 0.00235
C 28.22691 6.33564 0.01094
C 22.1092 15.57701 0.00096
C 23.32842 14.87204 -0.01527
C 23.3266 13.52806 0.01087
C 22.08728 12.77229 0.00199
C 22.21252 11.3266 0.01511
C 23.42619 10.6199 -0.00478
C 23.38487 9.21416 -0.01662
C 22.16906 8.48013 -0.01185
C 22.16395 7.12423 0.01126
C 23.34974 6.40252 0.01852
C 23.35564 4.93366 -0.00381
C 22.15846 4.24346 0.03046
C 22.14441 2.83865 0.0296
C 23.45694 2.12279 0.03374
C 23.33415 0.69779 -0.02845
C 22.12531 34.03792 -0.03213
C 24.65829 32.64175 0.02239
C 25.88216 31.98178 0.01153
C 25.91377 30.53303 0.02734
C 24.66424 29.70161 -0.0055
C 24.53467 28.31877 0.01515
C 22.07835 17.02038 0.01277
C 23.29989 17.77657 -0.02422
C 23.29465 19.14566 -0.01721
C 22.02165 19.85432 -0.01154
C 20.9208 9.19226 0.03754
C 19.68387 8.48048 0.01739
C 19.69854 7.03447 0.00755
C 20.96852 6.42076 -0.0054
C 20.87502 5.00994 0.00667
C 19.63809 4.2533 0.00143
C 19.7569 2.86493 -0.017
C 20.93321 2.17945 0.00364
C 20.93292 0.66855 -0.00831
C 19.7406 34.06133 -0.02957
C 25.79966 27.70848 -0.00225
C 22.11751 32.63346 -0.04422
C 23.44667 30.50344 -0.00703
C 22.187 29.80832 -0.04076
C 22.09804 28.38093 -0.00652
C 23.31904 27.62633 0.0058
C 23.37543 26.20442 -0.00865
C 22.13243 25.52779 0.00675
C 22.06082 24.10312 -0.00311
C 23.25466 23.41953 0.00742
C 23.27939 22.00464 -0.01594
C 22.05295 21.33297 0.0106
C 23.32789 31.92113 0.00654
C 25.86502 26.28157 0.00071
C 24.58186 25.50379 -0.01107
C 24.58566 24.13886 -0.01586
C 27.04135 29.77367 0.04306
C 27.04347 28.33784 0.00996
C 28.30328 27.63836 0.00195
C 28.25684 26.24283 -0.00802
C 27.01585 25.52812 -0.00218
C 26.9618 24.1266 -0.01654
C 28.2415 23.46545 -0.00037
C 28.2161 22.06515 -0.0032
C 26.95629 21.30589 0.00622
C 26.96408 19.8708 -0.02815
C 28.32596 30.5704 0.00367
C 28.22131 19.16879 -0.00942
C 27.06548 17.07513 0.00826
C 27.03009 15.64543 -0.00294
C 28.22667 14.92004 0.00152
C 28.26609 13.4657 0.01257
C 27.08528 12.77418 0.02316
C 27.07644 11.41619 0.04185
C 28.24728 10.6265 0.00194
C 28.20853 9.21002 -0.00621
C 27.04853 8.43871 0.02611
C 27.10423 7.12347 0.02198
C 28.32382 17.77791 0.00487
C 3.60336 32.02424 -0.02375
C 28.26853 31.93712 -0.01679
C 24.61688 34.0669 0.00684
C 25.76651 23.39238 -0.01971
C 25.72981 21.9716 -0.02118
C 24.56506 21.19982 0.00733
C 24.51265 19.88772 -0.00178
C 25.78718 19.21001 0.00768
C 25.78105 17.72869 -0.0276
C 24.57481 17.03029 0.03005
C 24.63563 15.64739 -0.04078
C 25.83763 14.94102 0.02117
C 25.8206 13.45408 0.02737
C 27.15807 32.67897 -0.01052
C 24.5843 12.72618 -0.00498
C 25.8294 10.63664 0.03102
C 25.87252 9.17457 0.02555
C 24.6014 8.49319 0.01423
C 24.61026 7.04057 -0.00285
C 25.88283 6.32645 -0.009
C 25.77262 4.95781 -0.01199
C 24.65794 4.22243 -0.00229
C 24.65887 2.80769 -0.00938
C 25.83205 2.02472 -0.0264
C 25.80834 0.61626 -0.01154
C 24.62868 11.31712 0.00135
C 2.38444 32.70832 0.00828
