437
Graphene
C 0.01319 0.01277 0.01295
C 12.33351 21.30689 0.02339
C 12.28891 19.92895 0.01641
C 13.55944 19.19795 -0.00719
C 13.52951 17.75997 0.01364
C 12.33797 17.10706 -0.01062
C 12.29811 15.63619 -0.00033
C 13.48996 14.89372 0.03589
C 13.50609 13.46988 -0.02759
C 12.28832 12.74342 0.0402
C 12.28249 11.34447 0.00572
C 13.52362 10.68905 0.03592
C 13.53069 9.22985 0.00406
C 12.30541 8.49547 0.00943
C 12.3017 7.10862 0.02841
C 12.27175 4.28446 -0.01111
C 12.3062 2.87424 -0.01275
C 13.5356 2.10398 0.00985
C 13.49899 0.70647 -0.02245
C 12.30575 34.06706 -0.00428
C 14.73185 32.65419 0.03101
C 15.95874 31.94864 -0.01536
C 15.98269 30.50487 -0.02689
C 14.76887 29.86893 -0.01046
C 13.51647 22.04801 -0.00334
C 14.81064 28.41012 -0.00891
C 13.54154 23.4596 -0.01634
C 12.32737 25.57062 0.00093
C 9.85745 15.61152 -0.00892
C 11.03567 14.92034 -0.01362
C 11.0611 13.5183 -0.0008
C 9.86328 12.78921 0.0288
C 9.85556 11.42008 0.00393
C 11.0645 10.66473 0.00895
C 11.05669 9.28062 0.00685
C 9.85318 8.47065 0.02888
C 9.84349 7.09744 -0.00482
C 11.06176 6.37617 -0.01384
C 11.11601 4.96126 0.03693
C 9.81623 4.21221 0.01745
C 9.81254 2.86684 0.00488
C 11.03521 2.12305 -0.01004
C 11.02739 0.73824 -0.02896
C 9.85329 0.02268 -0.00131
C 12.35273 32.63647 -0.01118
C 13.50977 31.96132 -0.014
C 13.53059 30.54073 0.02147
C 12.28608 29.87162 0.00373
C 12.29652 28.44155 -0.00191
C 13.55936 27.65864 0.00438
C 13.50528 26.26897 0.01291
C 12.30772 24.1561 0.00057
C 16.00799 27.66807 0.02819
C 15.97641 26.29083 0.00165
C 14.75289 25.59163 -0.02971
C 18.45189 23.42392 -0.0108
C 18.48403 22.04222 -0.00368
C 17.22352 21.2529 -0.02696
C 17.22767 19.87412 -0.00114
C 18.44934 19.18505 0.00228
C 18.45992 17.72083 0.00798
C 17.15682 17.07072 0.00422
C 17.21776 15.58919 0.0351
C 18.44289 14.86389 -0.03113
C 18.4526 13.46424 0.02098
C 17.21503 12.77363 0.01848
C 17.20805 11.36935 -0.00619
C 18.4237 10.67426 -0.02162
C 18.40998 9.26772 0.00889
C 18.41828 4.99854 -0.00481
C 17.19197 2.83612 0.00979
C 18.47516 2.13795 0.01443
C 18.43809 0.68905 0.03505
C 17.21516 0.00172 -0.02815
C 19.69621 32.69877 -0.04147
C 20.92028 31.98531 -0.05302
C 20.89523 30.52208 0.00213
C 19.66835 29.79116 -0.00066
C 17.18925 24.13089 -0.01957
C 17.21963 25.52774 0.02058
C 18.47546 26.28669 0.01965
C 18.46296 27.70853 -0.03682
C 14.73913 24.1395 0.02894
C 15.95786 23.46047 -0.01789
C 15.97689 21.99797 0.00444
C 14.72228 21.30273 -0.00925
C 14.75901 19.89065 0.01877
C 16.02466 19.15998 0.01363
C 15.9767 17.72284 -0.02162
C 14.72295 17.02061 0.00415
C 14.75306 15.62002 -0.0014
C 16.00353 14.90829 0.02162
C 15.97011 13.45657 0.0076
C 9.81531 17.02235 -0.04848
C 14.77567 12.78298 0.01241
C 15.96301 10.68427 0.01945
C 15.98536 9.24803 0.01416
C 14.73018 2.8407 0.03542
C 16.0241 2.13615 0.02299
C 16.00408 0.71928 0.00244
C 14.77172 34.05615 -0.01717
C 17.22474 32.64961 0.05265
C 18.41522 31.93602 -0.01952
C 18.41707 30.51689 -0.02813
C 17.22231 29.80857 0.00374
C 17.19292 28.41341 0.00052
C 14.77491 11.31082 -0.01454
C 11.04305 17.77772 0.01572
C 11.08285 19.16112 -0.00095
C 9.8411 19.86285 0.03007
C 3.64714 0.77892 -0.02375
C 2.49136 0.00054 0.00558
C 4.90275 32.66495 -0.0059
C 6.16935 31.92485 -0.01386
C 6.11814 30.53213 -0.02805
C 4.94405 29.79537 0.00081
C 4.94722 28.40285 0.00245
C 6.14815 27.6882 0.02728
C 6.15311 26.26679 -0.00039
C 4.89888 25.54503 0.0064
C 4.90079 24.11171 0.00211
C 6.15457 23.45165 -0.00449
C 6.16707 21.98353 -0.01979
C 4.91495 21.29207 0.02784
C 4.87949 19.88879 -0.01977
C 6.17001 19.15168 -0.00561
C 6.14956 17.73855 0.00208
C 4.95122 17.04399 0.01707
C 4.89941 15.64115 0.02769
C 6.1813 14.91924 -0.03291
C 6.14841 13.50275 -0.04999
C 4.93016 12.77087 0.04505
C 4.92186 11.35336 0.03284
C 3.69331 2.10843 0.00828
C 2.47494 2.8448 0.00088
C 2.468 4.29602 0.04421
C 3.67806 4.96149 -0.00177
C 3.68004 30.51492 0.01073
C 2.4471 29.78241 0.01984
C 2.4692 28.38383 0.00535
C 3.72267 27.6955 -0.00198
C 3.69906 26.29846 -0.00012
C 2.47002 25.55268 -0.04306
C 2.44965 24.14339 -0.03672
C 3.66796 23.44342 0.01913
C 3.71659 22.00172 0.00267
C 2.48617 21.34079 0.00787
C 2.45165 19.89781 0.02426
C 6.11466 10.58398 -0.04307
C 3.70252 19.1797 0.01218
C 2.42361 17.05 -0.02827
C 2.44462 15.5941 0.01078
C 3.69924 14.89429 -0.00112
C 3.70607 13.47728 0.03345
C 2.4664 12.75543 0.00748
C 2.47607 11.30485 0.00662
C 3.65876 10.66168 -0.0154
C 3.67428 9.2232 -0.01299
C 2.50163 8.52104 -0.00407
C 2.48521 7.08206 0.01138
C 3.74014 6.37555 0.03278
C 3.70265 17.7499 -0.01471
C 19.67522 28.40396 -0.00289
C 6.11053 9.22268 0.03189
C 4.93294 7.11873 -0.003
C 8.61819 10.66361 -0.01343
C 8.59395 9.2496 0.00988
C 7.36456 8.56761 0.0276
C 7.35461 7.15291 0.01305
C 8.5881 6.42818 -0.00077
C 8.61985 4.99557 0.03368
C 7.37798 4.23925 -0.02929
C 7.38929 2.86703 -0.00966
C 8.59542 2.12035 -0.03337
C 8.61795 0.70566 0.01227
C 7.40608 0.04773 0.00873
C 9.83497 32.67211 -0.00049
C 11.06825 31.94849 0.00848
C 11.07112 30.53312 -0.01303
C 9.82314 29.87568 -0.01378
C 9.85401 28.37988 0.02635
C 11.08574 27.69848 0.0127
C 11.04858 26.28272 0.01396
C 9.83607 25.59472 0.01849
C 9.8927 24.17913 -0.01142
C 11.06415 23.38879 -0.00562
C 11.06859 21.98085 -0.00494
C 9.83143 21.29094 0.00054
C 7.38139 11.38049 0.01087
C 7.36225 12.81034 -0.05697
C 8.59082 13.45775 -0.00725
C 8.56727 14.88738 0.02322
C 6.1142 6.37724 0.01402
C 6.14904 5.01074 0.02379
C 4.9026 4.28847 0.00907
C 4.92259 2.86631 0.00643
C 6.12782 2.12139 -0.01509
C 6.15831 0.68953 0.03267
C 4.93335 0.0331 0.02374
C 7.44014 32.65967 0.00402
C 8.62842 31.97508 0.0073
C 8.59556 30.52797 0.0174
C 7.35347 29.81144 0.03828
C 4.91196 8.5168 0.00031
C 7.36898 28.40879 0.01226
C 8.64281 26.27786 0.01996
C 7.38228 25.54295 -0.03996
C 7.41611 24.12795 0.01465
C 8.60295 23.44104 -0.00074
C 8.62565 22.02662 -0.00518
C 7.42412 21.30839 0.0086
C 7.36478 19.87133 -0.00643
C 8.59712 19.18938 0.017
C 8.61525 17.75538 -0.03113
C 7.40823 17.06223 -0.02566
C 7.37269 15.59342 -0.00094
C 8.57345 27.71139 -0.00279
C 3.68006 31.95726 -0.00018
C 20.95038 27.70874 0.00028
C 19.67534 25.54986 0.03698
C 30.76085 14.92879 -0.0405
C 30.76921 13.47148 -0.01303
C 29.48374 12.77281 -0.01461
C 29.51877 11.37306 -0.02155
C 30.74225 10.61174 -0.00944
C 30.72695 9.28352 -0.03735
C 29.49378 8.52091 -0.00971
C 29.53081 7.07 0.01518
C 30.76881 6.40596 0.01908
C 30.75225 4.99641 0.07705
C 29.51667 4.23786 0.0103
C 29.52191 2.82511 0.02108
C 30.75028 2.11408 0.00716
C 30.76904 0.6824 0.00307
C 29.50119 34.05259 0.00346
C 31.95282 32.64259 0.01713
C 33.20948 31.95426 -0.01694
C 33.20438 30.53063 0.01428
C 31.99475 29.83499 -0.02142
C 31.9933 28.39602 0.0544
C 33.22693 27.72906 0.00026
C 33.17015 26.28207 0.00682
C 31.96957 25.54928 -0.01779
C 29.51542 15.60306 0.01705
C 32.00266 24.17471 0.03794
C 29.51466 17.03456 0.0101
C 30.72231 19.13798 0.03531
C 28.28282 9.25675 -0.00621
C 27.0703 8.54072 0.02611
C 27.0662 7.1244 0.02198
C 28.28833 6.34385 0.01094
C 28.27823 4.95853 0.00235
C 27.03529 4.24859 0.01495
C 27.08933 2.85455 0.01259
C 28.26326 2.10194 0.01799
C 28.25211 0.70434 0.01699
C 27.05317 34.0495 -0.00416
C 29.46711 32.65665 0.01177
C 30.76612 31.90245 0.04266
C 30.73694 30.55788 0.01324
C 29.52007 29.82818 0.0014
C 29.51668 28.38125 0.00924
C 30.7714 27.65732 0.02326
C 30.69689 26.24681 0.00261
C 29.48199 25.54221 0.03265
C 29.51467 24.09061 -0.02049
C 30.76994 23.42386 -0.01854
C 30.74129 22.0302 -0.01415
C 29.53644 21.33754 -0.03039
C 29.52456 19.86923 0.01836
C 30.75399 17.7543 -0.00669
C 33.21305 23.42241 0.01927
C 33.20268 21.99086 0.01574
C 32.00739 21.32627 -0.02383
C 34.42882 24.14965 0.03076
C 1.2339 23.45073 0.00723
C 1.19729 22.01318 0.02712
C 34.41569 21.2925 -0.02213
C 34.42055 19.89326 0.01951
C 1.23965 19.22077 -0.01678
C 1.22391 17.71444 0.01223
C 0.00437 16.99532 0.00648
C 34.39461 15.60578 0.02114
C 1.22635 14.91552 -0.02957
C 1.25266 13.50325 0.00343
C 34.40687 12.71943 -0.02656
C 34.39836 11.37201 -0.02442
C 1.22536 10.68519 -0.00027
C 1.23083 9.19812 -0.00583
C 34.4089 8.53257 -0.02302
C 0.00827 7.08406 -0.02849
C 1.21965 6.36134 0.02931
C 1.23371 4.95891 0.00628
C 34.42621 4.21802 -0.0345
C 0.01885 2.8048 -0.00931
C 1.25265 2.13411 -0.00939
C 1.24301 0.7009 -0.00468
C 0.00164 25.58986 -0.05239
C 1.26549 26.25832 -0.00598
C 1.22727 27.67245 -0.00439
C 34.4061 28.42568 -0.01037
C 31.9484 19.87806 -0.01429
C 33.20793 19.14865 -0.0136
C 33.1624 17.76576 0.00594
C 31.99658 17.04667 -0.02474
C 32.01176 15.58869 0.00369
C 33.17709 14.89148 0.00455
C 33.20288 13.44882 -0.00644
C 31.96117 12.78318 -0.01839
C 31.96467 11.32403 0.00137
C 33.20008 10.62071 0.00199
C 33.19548 9.22052 0.04381
C 28.30763 10.64398 0.00194
C 31.97942 8.51008 0.02806
C 33.20891 6.36696 -0.00069
C 33.18588 4.95808 0.04926
C 31.96853 4.27468 -0.03838
C 32.0018 2.84954 0.00349
C 33.23231 2.09921 -0.00323
C 33.18736 0.66683 -0.00841
C 31.97493 34.07816 0.0001
C 0.00067 32.65738 -0.02927
C 1.23171 31.95768 -0.01404
C 1.25456 30.5275 0.01027
C 34.40463 29.80788 0.01831
C 31.95486 7.1302 0.01504
C 27.08433 11.34006 0.04185
C 27.06238 12.76481 0.02316
C 28.31021 13.51766 0.01257
C 22.1766 28.43217 -0.00652
C 23.38888 27.64895 0.0058
C 23.35253 26.26369 -0.00865
C 22.16754 25.5715 0.00675
C 22.11396 24.16866 -0.00311
C 23.36181 23.42422 0.00742
C 23.39197 21.97618 -0.01594
C 22.13563 21.29308 0.0106
C 22.12433 19.8919 -0.01154
C 23.36739 19.18014 -0.01721
C 23.32621 17.77824 -0.02422
C 22.13634 17.00371 0.01277
C 22.11489 15.61591 0.00096
C 23.3673 14.91899 -0.01527
C 23.40227 13.44881 0.01087
C 22.1128 12.74516 0.00199
C 22.13137 11.36024 0.01511
C 23.36006 10.63717 -0.00478
C 23.41141 9.2505 -0.01662
C 22.11121 8.52462 -0.01185
C 22.1716 7.06921 0.01126
C 23.35673 6.35521 0.01852
C 23.33417 4.95551 -0.00381
C 22.12484 29.8196 -0.04076
C 23.32823 30.49589 -0.00703
C 23.35201 31.98026 0.00654
C 22.14587 32.66046 -0.04422
C 19.63174 24.07224 -0.00109
C 20.89839 23.40391 -0.00491
C 20.86637 22.01109 0.03338
C 19.67449 21.28814 -0.0258
C 19.65081 19.87545 -0.0331
C 20.87171 19.20029 -0.00316
C 20.9031 17.74449 0.02188
C 19.69805 17.03699 -0.01979
C 19.69049 15.61507 0.02691
C 20.92332 14.91284 -0.01581
C 20.90458 13.48212 0.01452
C 22.13573 4.24274 0.03046
C 19.71912 12.79475 0.04892
C 20.89481 10.63201 -0.03557
C 20.91179 9.21081 0.03754
C 19.67996 8.48873 0.01739
C 19.65812 7.1055 0.00755
C 20.90297 6.39258 -0.0054
C 20.89937 4.9683 0.00667
C 19.71067 4.26206 0.00143
C 19.69593 2.83855 -0.017
C 20.91099 2.17717 0.00364
C 20.91642 0.69395 -0.00831
C 19.67809 0.03281 -0.02957
C 19.70669 11.37452 -0.00111
C 20.91236 26.25815 -0.02213
C 22.1385 2.83064 0.0296
C 23.3688 0.6859 -0.02845
C 24.55345 4.27986 -0.00229
C 24.63129 2.86181 -0.00938
C 25.82041 2.12981 -0.0264
C 25.85385 0.75245 -0.01154
C 24.60373 0.02 0.00684
C 27.02653 32.61956 -0.01052
C 28.32781 31.9219 -0.01679
C 28.27507 30.55393 0.00367
C 27.08172 29.86217 0.04306
C 27.04819 28.38893 0.00996
C 28.28042 27.67203 0.00195
C 28.32759 26.28391 -0.00802
C 27.04669 25.61175 -0.00218
C 27.05575 24.15343 -0.01654
C 28.28609 23.42746 -0.00037
C 28.31117 22.01708 -0.0032
C 27.0467 21.26645 0.00622
C 27.03498 19.83746 -0.02815
C 28.31272 19.15613 -0.00942
C 28.26745 17.72436 0.00487
C 27.01513 17.04624 0.00826
C 27.03783 15.63432 -0.00294
C 28.2639 14.89989 0.00152
C 25.85564 4.93766 -0.01199
C 25.80021 6.35645 -0.009
C 24.5925 7.07738 -0.00285
C 24.5937 8.54238 0.01423
C 22.14069 0.00835 -0.03213
C 24.59176 32.67594 0.02239
C 25.86647 31.94319 0.01153
C 25.78107 30.52953 0.02734
C 24.57611 29.80976 -0.0055
C 24.58767 28.43331 0.01515
C 25.81639 27.68419 -0.00225
C 25.80812 26.29291 0.00071
C 24.59716 25.53633 -0.01107
C 24.60245 24.13083 -0.01586
C 25.82598 23.43375 -0.01971
C 23.37048 2.12115 0.03374
C 25.80454 21.99687 -0.02118
C 24.59723 19.85904 -0.00178
C 25.78162 19.162 0.00768
C 25.80598 17.79972 -0.0276
C 24.57842 17.03958 0.03005
C 24.53348 15.5948 -0.04078
C 25.78131 14.92558 0.02117
C 25.83887 13.50511 0.02737
C 24.64826 12.84585 -0.00498
C 24.58856 11.37559 0.00135
C 25.83692 10.65208 0.03102
C 25.79706 9.19002 0.02555
C 24.58308 21.28236 0.00733
C 2.47376 32.67849 -0.0005
