301
Graphene
C 34.39143 0.10127 0.01295
C 9.75195 2.8835 -0.00111
C 10.97549 2.13596 -0.03557
C 11.03694 0.68516 0.03754
C 9.81471 34.0749 0.01739
C 12.26891 32.69868 0.00755
C 13.50798 31.95497 -0.0054
C 9.77801 4.36746 0.04892
C 13.48965 30.47692 0.00667
C 12.28288 28.40759 -0.017
C 13.68169 27.51693 0.00364
C 13.53013 26.15384 -0.00831
C 12.41952 25.21408 -0.02957
C 12.32552 23.87208 -0.04422
C 13.08238 22.81157 0.00654
C 12.2966 29.75959 0.00143
C 10.99792 4.93572 0.01452
C 11.56418 19.46019 -0.01581
C 10.09481 19.73913 0.02691
C 8.5208 2.13824 -0.05302
C 8.57747 0.74955 0.00213
C 7.4132 0.06562 -0.00066
C 9.78184 32.65378 -0.00289
C 11.06161 31.94265 0.00028
C 11.05872 30.45992 -0.02213
C 9.83789 29.82468 0.03698
C 9.86302 28.31215 -0.00109
C 11.11838 27.58933 -0.00491
C 11.11977 26.13235 0.03338
C 9.89895 25.51511 -0.0258
C 9.83155 24.11667 -0.0331
C 10.92681 23.37415 -0.00316
C 10.94078 22.04493 0.02188
C 9.91385 21.07652 -0.01979
C 12.30347 21.559 -0.00703
C 12.55388 20.24819 -0.04076
C 13.08571 19.01387 -0.00652
C 13.56607 5.01409 0.0058
C 18.19166 30.51283 0.01852
C 17.22062 29.9028 -0.00381
C 19.33506 13.90645 0.03046
C 18.27488 10.38774 0.0296
C 18.35025 9.10976 0.03374
C 17.23494 7.31381 -0.02845
C 18.43273 6.33854 -0.03213
C 18.40477 5.00419 0.02239
C 17.296 4.19064 0.01153
C 17.15608 2.80699 0.02734
C 18.45004 2.07829 -0.0055
C 18.4689 0.66975 0.01515
C 17.18422 34.07361 -0.00225
C 19.62052 32.58281 0.00071
C 20.87606 31.84425 -0.01107
C 18.37547 31.84592 0.01126
C 7.28667 2.84237 -0.04147
C 17.16643 32.65301 -0.01185
C 15.9544 0.76561 -0.00478
C 12.22683 4.47081 -0.00865
C 12.35881 2.92312 0.00675
C 13.49384 2.16263 -0.00311
C 13.457 0.73986 0.00742
C 12.20734 0.02478 -0.01594
C 14.70339 32.73073 0.0106
C 15.94563 32.09984 -0.01154
C 15.93353 30.58623 -0.01721
C 14.75521 29.79292 -0.02422
C 14.83094 28.3895 0.01277
C 16.21693 6.46299 0.00096
C 16.0566 5.02797 -0.01527
C 14.79557 4.33429 0.01087
C 14.74312 2.89042 0.00199
C 15.95147 2.14218 0.01511
C 14.67695 0.10679 -0.01662
C 7.25325 4.22194 -0.02815
C 8.4535 4.93894 0.03505
C 7.32802 17.07792 0.01443
C 3.59639 10.86858 -0.00428
C 3.88793 9.55156 0.03101
C 2.51835 8.79307 -0.01536
C 2.59847 7.34695 -0.02689
C 3.73052 6.52374 -0.01046
C 3.7051 5.07433 -0.00891
C 2.46139 4.41592 0.02819
C 2.4134 2.98696 0.00165
C 3.61886 2.17014 -0.02971
C 3.5865 0.76683 0.02894
C 2.45038 0.07835 -0.01789
C 4.85353 32.68278 0.00444
C 6.05613 32.03896 -0.00925
C 6.06944 30.59188 0.01877
C 4.78255 29.81883 0.01363
C 2.26703 11.51164 -0.02245
C 4.86721 28.38467 -0.02162
C 2.28905 12.8774 0.00985
C 3.69787 14.74137 -0.01111
C 3.60346 30.59233 -0.00334
C 2.33848 29.8916 0.02339
C 2.27809 28.45462 0.01641
C 3.62881 27.7229 -0.00719
C 3.70603 26.34386 0.01364
C 2.47113 25.67557 -0.01062
C 2.46304 24.21703 -0.00033
C 3.65208 23.46719 0.03589
C 3.68705 22.00839 -0.02759
C 2.43989 21.32944 0.0402
C 2.41059 19.91025 0.00572
C 3.62425 19.10172 0.03592
C 3.57549 17.72949 0.00406
C 2.37442 17.03247 0.00943
C 2.34338 15.59636 0.02841
C 3.63933 13.34327 -0.01275
C 19.84495 12.72334 -0.01586
C 6.16061 27.68901 0.00415
C 4.9555 25.5164 0.02162
C 7.35645 32.71899 -0.00368
C 8.57856 31.95444 -0.02696
C 8.60357 30.57451 -0.00114
C 7.3476 29.86455 0.00228
C 7.44317 28.45053 0.00798
C 8.58186 27.68804 0.00422
C 8.6636 26.20055 0.0351
C 7.44584 25.44615 -0.03113
C 7.39653 24.05061 0.02098
C 8.71029 23.34657 0.01848
C 8.68838 21.93838 -0.00619
C 7.4799 21.21095 -0.02162
C 7.45497 19.78729 0.00889
C 8.78691 19.14334 -0.00481
C 8.55829 17.75342 0.00979
C 4.78335 0.07919 -0.0108
C 6.18245 26.20825 -0.0014
C 6.07878 0.77622 -0.01957
C 4.83228 2.89971 0.01965
C 4.92829 24.10346 0.0076
C 6.18918 23.41804 0.01241
C 6.20543 21.91324 -0.01454
C 4.94562 21.23287 0.01945
C 4.89256 19.86161 0.01416
C 6.18313 19.05645 0.03542
C 6.12962 17.61538 0.02299
C 4.85426 17.01291 0.00244
C 4.72086 15.59138 -0.01717
C 4.40147 12.06104 0.05265
C 4.96517 8.69898 -0.01952
C 5.10764 7.30748 -0.02813
C 6.15819 6.49338 0.00374
C 6.0072 5.04353 0.00052
C 4.83104 4.29114 -0.03682
C 6.04117 2.12293 0.02058
C 3.63526 31.96166 -0.01634
C 19.44867 11.20538 -0.01971
C 20.83885 9.20293 0.00733
C 31.87589 21.12795 -0.02383
C 31.89772 19.8934 -0.01429
C 33.12432 19.31848 -0.0136
C 33.12825 17.82625 0.00594
C 31.89711 17.19358 -0.02474
C 31.90312 15.77451 0.00369
C 33.12861 21.99431 0.01574
C 33.05491 14.97173 0.00455
C 31.90134 12.86479 -0.01839
C 31.85848 11.39551 0.00137
C 33.06202 10.71768 0.00199
C 33.16168 9.31984 0.04381
C 31.96561 8.57313 0.02806
C 31.91139 7.18955 0.01504
C 33.09363 13.60251 -0.00644
C 33.1119 23.41307 0.01927
C 31.8374 24.05309 0.03794
C 31.78706 25.45509 -0.01779
C 29.45215 7.18784 0.01518
C 30.65193 6.47563 0.01908
C 30.68572 5.05871 0.07705
C 29.39762 4.2964 0.0103
C 29.42847 2.84278 0.02108
C 30.62647 2.1717 0.00716
C 30.61683 0.78167 0.00307
C 29.38959 0.05162 0.00346
C 31.83575 32.77479 0.01713
C 33.12425 32.10545 -0.01694
C 33.17124 30.60734 0.01428
C 31.90865 29.89646 -0.02142
C 31.88976 28.47849 0.0544
C 33.1014 27.75497 0.00026
C 33.0555 26.2439 0.00682
C 33.21589 6.45839 -0.00069
C 33.20038 5.07524 0.04926
C 31.89814 4.33554 -0.03838
C 31.88553 2.87796 0.00349
C 34.32024 15.67932 0.02114
C 1.12348 14.93727 -0.02957
C 1.07618 13.54772 0.00343
C 34.30112 12.81782 -0.02656
C 34.34084 11.47756 -0.02442
C 1.13782 10.79419 -0.00027
C 1.24439 9.37655 -0.00583
C 0.02881 8.63904 -0.02302
C 0.05431 7.27655 -0.02849
C 1.31965 6.59418 0.02931
C 1.25822 5.10482 0.00628
C 34.4253 4.42401 -0.0345
C 34.36372 2.96609 -0.00931
C 1.21141 2.31186 -0.00939
C 1.20677 0.81256 -0.00468
C 34.29686 17.17559 0.00648
C 29.39625 8.62493 -0.00971
C 1.21867 17.79379 0.01223
C 0.00864 19.9554 0.01951
C 33.1004 2.20545 -0.00323
C 33.12532 0.77106 -0.00841
C 31.89607 0.10617 0.0001
C 34.35701 32.79451 -0.02927
C 1.15452 32.00857 -0.01404
C 1.09888 30.586 0.01027
C 34.39148 29.89658 0.01831
C 34.32224 28.48182 -0.01037
C 1.09267 27.70201 -0.00439
C 1.22048 26.33367 -0.00598
C 34.36218 25.57997 -0.05239
C 34.38477 24.12759 0.03076
C 1.19876 23.52442 0.00723
C 1.25544 22.0732 0.02712
C 34.34919 21.32826 -0.02213
C 1.16842 19.24338 -0.01678
C 30.62653 9.32495 -0.03735
C 30.66016 10.699 -0.00944
C 29.45649 11.44852 -0.02155
C 22.12366 4.12979 0.00684
C 22.12815 2.78855 -0.01052
C 23.3402 2.11321 -0.01679
C 23.27965 0.65822 0.00367
C 22.06278 34.00352 0.04306
C 24.57301 32.54396 0.00996
C 25.7876 31.88475 0.00195
C 25.91779 30.48388 -0.00802
C 25.58566 13.55542 -0.00218
C 24.59479 12.7709 -0.01654
C 24.37689 11.40953 -0.00037
C 25.64001 10.76278 -0.0032
C 25.64007 9.31035 0.00622
C 24.44615 8.57917 -0.02815
C 24.46204 7.09852 -0.00942
C 23.25639 4.93551 -0.01154
C 25.72279 6.481 0.00487
C 23.33056 6.3287 -0.0264
C 22.06885 8.50122 -0.00229
C 19.69537 8.39099 -0.00178
C 19.63877 6.96731 0.00768
C 20.85732 6.2864 -0.0276
C 21.01928 4.90134 0.03005
C 19.72692 4.18828 -0.04078
C 19.6718 2.80903 0.02117
C 20.90033 2.04094 0.02737
C 20.96436 0.63406 -0.00498
C 19.62157 34.0237 0.00135
C 22.12556 32.44598 0.03102
C 23.34842 31.87776 0.02555
C 21.26347 12.87714 0.01423
C 21.85562 11.57978 -0.00285
C 23.11788 10.83702 -0.009
C 23.18666 9.29909 -0.01199
C 22.07859 7.03351 -0.00938
C 20.73115 10.58279 -0.02118
C 25.73789 5.02403 0.00826
C 24.49558 2.80856 0.00152
C 28.15364 2.14351 0.02326
C 28.14693 0.70783 0.00261
C 26.88039 0.04623 0.03265
C 29.47642 32.75396 -0.02049
C 30.70541 31.96844 -0.01854
C 30.61545 30.5836 -0.01415
C 29.47406 29.85024 -0.03039
C 29.42854 28.4832 0.01836
C 30.5509 27.7496 0.03531
C 30.79391 26.39588 -0.00669
C 30.78139 18.08451 0.0101
C 29.41519 15.74477 0.01705
C 30.72902 15.10403 -0.0405
C 30.69425 13.66859 -0.01303
C 29.43104 12.97722 -0.01461
C 26.97225 2.84098 0.00924
C 24.49907 4.28183 -0.00294
C 26.99288 4.33386 0.0014
C 28.21398 6.47285 0.04266
C 25.76238 2.20683 0.01257
C 25.65159 0.74269 0.02316
C 24.49343 33.99977 0.04185
C 27.00296 32.72819 0.00194
C 28.23053 31.99071 -0.00621
C 28.3068 30.58755 0.02611
C 26.95848 29.96976 0.02198
C 28.42551 15.03449 0.01094
C 28.13341 13.66735 0.00235
C 26.87075 12.95494 0.01495
C 26.85986 11.49323 0.01259
C 28.15589 10.77021 0.01799
C 28.12625 9.28044 0.01699
C 26.91876 8.61745 -0.00416
C 26.98583 7.19163 0.01177
C 28.24017 5.06708 0.01324
C 2.39667 32.69538 0.00057
