401
Graphene
C 0.0776 34.0427 0.01295
C 14.66923 17.11747 0.00165
C 14.68135 15.74565 -0.02971
C 15.94325 14.93539 0.02894
C 15.87785 13.47593 -0.01789
C 14.6903 12.80183 0.00444
C 14.75455 11.32968 -0.00925
C 15.96256 10.63209 0.01877
C 15.97502 9.24424 0.01363
C 14.69481 8.50589 -0.02162
C 14.73595 7.12988 0.00415
C 16.03537 6.37939 -0.0014
C 16.08788 4.88258 0.02162
C 14.79211 4.26104 0.0076
C 14.8414 2.8117 0.01241
C 16.02403 2.17834 -0.01454
C 16.04848 0.70566 0.01945
C 14.7858 34.07855 0.01416
C 17.14348 32.70067 0.03542
C 18.43548 31.90307 0.02299
C 18.39951 30.51806 0.00244
C 17.1835 29.74451 -0.01717
C 15.82563 17.83493 0.02819
C 17.14575 28.32088 0.05265
C 15.83199 19.33751 -0.00891
C 14.69213 21.56429 -0.02689
C 13.44147 9.21183 0.02339
C 12.21403 8.5099 0.01641
C 12.30093 7.07272 -0.00719
C 13.49928 6.44059 0.01364
C 13.48102 4.97688 -0.01062
C 12.27119 4.25722 -0.00033
C 12.33387 2.84066 0.03589
C 13.57873 2.094 -0.02759
C 13.5338 0.75144 0.0402
C 12.30798 34.06113 0.00572
C 14.72163 32.68476 0.03592
C 15.98102 32.01343 0.00406
C 16.00321 30.47758 0.00943
C 14.68133 29.75266 0.02841
C 14.70456 28.45143 -0.01111
C 15.93322 27.58942 -0.01275
C 15.91924 26.1908 0.00985
C 14.66374 25.29916 -0.02245
C 14.6054 23.79838 -0.00428
C 16.01244 23.49903 0.03101
C 16.0641 22.05625 -0.01536
C 14.6454 20.15384 -0.01046
C 13.50699 10.62317 -0.00334
C 18.40859 27.6454 -0.01952
C 17.26165 25.57406 0.00374
C 20.85925 31.95518 -0.05302
C 20.95268 30.4984 0.00213
C 19.67823 29.82997 -0.00066
C 19.62406 28.42549 -0.00289
C 20.87573 27.66347 0.00028
C 20.8942 26.28757 -0.02213
C 19.62105 25.52925 0.03698
C 19.73505 24.1571 -0.00109
C 20.8784 23.39559 -0.00491
C 20.93456 21.96406 0.03338
C 19.68435 21.27113 -0.0258
C 19.62076 19.84635 -0.0331
C 20.84174 19.11535 -0.00316
C 20.82109 17.72011 0.02188
C 19.64404 17.04265 -0.01979
C 19.62424 15.5934 0.02691
C 20.87908 14.90509 -0.01581
C 20.82818 13.54403 0.01452
C 19.66093 12.78888 0.04892
C 19.63663 11.37352 -0.00111
C 20.89816 10.67111 -0.03557
C 19.65028 32.62855 -0.04147
C 18.46029 26.32168 -0.02813
C 17.24348 0.07861 -0.02815
C 18.5157 2.12524 0.01443
C 17.34678 24.20732 0.00052
C 18.55905 23.41328 -0.03682
C 18.52248 21.99744 0.01965
C 17.20728 21.32799 0.02058
C 17.2031 19.91865 -0.01957
C 18.36851 19.20083 -0.0108
C 18.39079 17.79189 -0.00368
C 17.05248 17.18479 -0.02696
C 17.10546 15.69224 -0.00114
C 18.32653 14.94891 0.00228
C 18.36551 13.46177 0.00798
C 17.13169 12.7775 0.00422
C 17.15354 11.37249 0.0351
C 18.39699 10.65677 -0.03113
C 18.36538 9.21826 0.02098
C 17.20094 8.50385 0.01848
C 17.16587 7.06094 -0.00619
C 18.44959 6.33994 -0.02162
C 18.57173 4.97012 0.00889
C 17.29007 4.28183 -0.00481
C 17.30707 2.78418 0.00979
C 18.46891 0.70638 0.03505
C 12.29572 11.38276 -0.01634
C 12.28933 12.87067 0.00057
C 13.47762 13.52516 0.00093
C 4.81614 17.22567 0.02374
C 4.8447 15.77958 0.00402
C 6.0765 14.99885 0.0073
C 6.08242 13.51373 0.0174
C 4.83499 12.88421 0.03828
C 4.81871 11.38309 0.01226
C 6.03334 10.65808 -0.00279
C 6.04707 9.23749 0.01996
C 4.81779 8.5632 -0.03996
C 4.83207 7.18976 0.01465
C 6.14792 6.45616 -0.00074
C 6.14582 4.98377 -0.00518
C 4.88618 4.28966 0.0086
C 4.87135 2.87422 -0.00643
C 6.16165 2.06068 0.017
C 6.26561 0.67862 -0.03113
C 4.89867 34.07368 -0.02566
C 7.49277 32.48865 -0.00094
C 8.73503 31.99442 0.02322
C 8.50233 17.74251 -0.00725
C 7.20523 17.1887 -0.05697
C 6.00822 17.83249 0.03267
C 7.28423 15.82972 0.01087
C 6.16479 32.00933 -0.01509
C 2.4743 34.05561 0.00907
C 3.56796 30.4517 -0.00039
C 2.5376 29.83637 0.0064
C 2.20132 19.76934 0.00211
C 3.32513 19.34475 -0.00449
C 3.55514 17.91862 -0.01979
C 2.37888 17.14737 0.02784
C 2.39346 15.75322 -0.01977
C 3.62545 14.96239 -0.00561
C 3.60762 13.5384 0.00208
C 2.39121 12.76804 0.01707
C 2.39993 11.35966 0.02769
C 3.6535 10.72421 -0.03291
C 3.58707 9.32077 -0.04999
C 2.43186 8.59244 0.04505
C 2.40995 7.18839 0.03284
C 3.62404 6.43233 -0.04307
C 3.62784 5.02705 0.03189
C 2.43876 4.29688 0.00031
C 2.47088 2.84929 -0.003
C 3.714 2.12869 0.01402
C 3.6832 0.71757 0.02379
C 4.9842 32.67997 0.00643
C 8.47761 15.01335 -0.01343
C 8.60405 13.62983 0.00988
C 7.37542 12.80423 0.0276
C 9.74623 7.15248 -0.0008
C 11.05663 6.4288 0.0288
C 11.02535 5.03166 0.00393
C 9.83586 4.35013 0.00895
C 9.87754 2.86739 0.00685
C 11.04859 2.19199 0.02888
C 11.06355 0.78726 -0.00482
C 9.92736 0.07563 -0.01384
C 12.27355 32.65507 0.03693
C 13.48744 31.92725 0.01745
C 13.55985 30.53271 0.00488
C 12.19097 30.01929 -0.01004
C 13.49636 27.61195 -0.02896
C 13.68203 26.4565 -0.00131
C 13.78263 22.84796 -0.01118
C 12.09283 19.87647 -0.014
C 13.50574 19.35538 0.02147
C 13.33366 17.91148 0.00373
C 12.17464 17.16943 -0.00191
C 12.22729 15.7239 0.00438
C 13.41898 15.02883 0.01291
C 9.81025 8.64699 -0.01362
C 11.01785 9.25391 -0.00892
C 11.07639 10.66408 -0.04848
C 9.80209 11.40845 0.01572
C 7.29259 11.34529 0.01305
C 8.63304 10.63856 -0.00077
C 8.57534 9.2467 0.03368
C 7.32793 8.60878 -0.02929
C 7.33145 7.11667 -0.00966
C 8.57869 6.44852 -0.03337
C 8.57195 5.03777 0.01227
C 7.35525 4.2927 0.00873
C 7.36537 2.91684 -0.00049
C 8.61916 2.16394 0.00848
C 20.89142 9.24592 0.03754
C 8.62126 0.73143 -0.01303
C 9.89363 32.70894 0.02635
C 11.06551 32.01385 0.0127
C 11.09263 30.51661 0.01396
C 11.04188 19.26414 0.01849
C 10.92617 17.7463 -0.01142
C 9.74979 17.09749 -0.00562
C 9.75997 15.648 -0.00494
C 11.03415 14.96903 0.00054
C 11.02875 13.48302 0.03007
C 9.81996 12.81413 -0.00095
C 7.47867 34.03558 -0.01378
C 3.7655 31.93182 0.02728
C 19.65947 8.50065 0.01739
C 20.97357 6.3845 -0.0054
C 29.46549 7.07453 0.01518
C 30.65817 6.33026 0.01908
C 30.63946 4.9642 0.07705
C 29.47603 4.30491 0.0103
C 29.47238 2.8485 0.02108
C 30.73141 2.17344 0.00716
C 30.79493 0.75675 0.00307
C 29.54297 0.01131 0.00346
C 32.06579 32.66536 0.01713
C 33.27986 31.90027 -0.01694
C 33.27518 30.45783 0.01428
C 32.03784 29.7579 -0.02142
C 32.00461 28.35126 0.0544
C 33.21506 27.6271 0.00026
C 33.24688 26.24412 0.00682
C 32.01686 25.51504 -0.01779
C 32.00245 24.08413 0.03794
C 33.2862 23.3409 0.01927
C 33.12407 22.02185 0.01574
C 31.97134 21.30652 -0.02383
C 31.85718 19.90813 -0.01429
C 29.4544 8.55467 -0.00971
C 33.05527 19.16582 -0.0136
C 30.73019 9.23407 -0.03735
C 29.47541 11.34609 -0.02155
C 27.0213 34.06733 -0.00416
C 29.55526 32.64115 0.01177
C 30.7841 31.99934 0.04266
C 30.9019 30.51381 0.01324
C 29.54131 29.78703 0.0014
C 29.53374 28.42932 0.00924
C 30.74592 27.64917 0.02326
C 30.74464 26.2466 0.00261
C 29.58496 25.53529 0.03265
C 29.50603 24.151 -0.02049
C 30.6734 23.37287 -0.01854
C 30.67087 22.02451 -0.01415
C 29.4326 21.25959 -0.03039
C 29.44878 19.89074 0.01836
C 30.60991 19.18005 0.03531
C 30.64221 17.73963 -0.00669
C 29.42384 17.00003 0.0101
C 29.41118 15.64897 0.01705
C 30.66321 14.90386 -0.0405
C 30.72117 13.47896 -0.01303
C 29.48758 12.83855 -0.01461
C 30.74909 10.64549 -0.00944
C 28.3416 0.71589 0.01699
C 33.07405 17.70202 0.00594
C 31.86429 15.59824 0.00369
C 1.13882 21.91163 0.02712
C 34.31456 21.18196 -0.02213
C 34.22367 19.78842 0.01951
C 0.95976 19.08156 -0.01678
C 1.13861 17.66914 0.01223
C 34.32082 17.0206 0.00648
C 34.4186 15.56384 0.02114
C 1.19869 14.92704 -0.02957
C 1.21077 13.46817 0.00343
C 34.43187 12.80146 -0.02656
C 34.42009 11.4201 -0.02442
C 1.11882 10.61316 -0.00027
C 1.13282 9.21865 -0.00583
C 34.38472 8.56283 -0.02302
C 34.38812 7.09829 -0.02849
C 1.14498 6.39197 0.02931
C 1.17372 4.96736 0.00628
C 34.40642 4.26339 -0.0345
C 0.05645 2.84489 -0.00931
C 1.31238 2.13367 -0.00939
C 1.25234 0.68385 -0.00468
C 1.27158 23.11741 0.00723
C 31.87338 17.03389 -0.02474
C 0.0564 24.09408 0.03076
C 1.21696 26.36556 -0.00598
C 33.16311 14.90378 0.00455
C 33.19875 13.50882 -0.00644
C 31.97129 12.83293 -0.01839
C 31.97038 11.29461 0.00137
C 33.17934 10.6973 0.00199
C 33.15464 9.26602 0.04381
C 31.97262 8.55053 0.02806
C 31.90789 7.10007 0.01504
C 33.05262 6.42115 -0.00069
C 33.14274 5.02959 0.04926
C 31.96084 4.30347 -0.03838
C 31.9245 2.81735 0.00349
C 33.17577 2.18527 -0.00323
C 33.30192 0.68236 -0.00841
C 32.06338 0.00231 0.0001
C 0.15622 32.60164 -0.02927
C 1.33205 31.86842 -0.01404
C 1.27863 30.43165 0.01027
C 0.03587 29.81574 0.01831
C 34.40454 28.4048 -0.01037
C 1.21825 27.55161 -0.00439
C 0.0329 25.50658 -0.05239
C 28.33604 2.12181 0.01799
C 27.099 2.82432 0.01259
C 27.04659 4.24252 0.01495
C 22.08197 12.76529 0.00199
C 22.04329 11.41232 0.01511
C 23.32001 10.61365 -0.00478
C 23.3849 9.22552 -0.01662
C 22.09291 8.58706 -0.01185
C 22.14768 7.10622 0.01126
C 23.39143 6.36246 0.01852
C 23.36028 4.93936 -0.00381
C 22.16241 4.28848 0.03046
C 22.15618 2.86774 0.0296
C 23.41018 2.08668 0.03374
C 23.4138 0.62658 -0.02845
C 22.19895 34.00322 -0.03213
C 24.67181 32.54073 0.02239
C 25.93683 32.00419 0.01153
C 25.86384 30.54273 0.02734
C 24.63497 29.85653 -0.0055
C 24.59808 28.44993 0.01515
C 25.84024 27.70737 -0.00225
C 25.85917 26.25193 0.00071
C 24.58352 25.53054 -0.01107
C 23.36522 13.49825 0.01087
C 24.52784 24.13211 -0.01586
C 23.37077 14.87191 -0.01527
C 21.99497 16.97905 0.01277
C 20.94742 4.98884 0.00667
C 19.72477 4.20324 0.00143
C 19.70712 2.81558 -0.017
C 20.9451 2.08647 0.00364
C 20.90686 0.73077 -0.00831
C 19.69504 34.05648 -0.02957
C 22.12767 32.6626 -0.04422
C 23.41288 31.8887 0.00654
C 23.38166 30.53269 -0.00703
C 22.12954 29.83514 -0.04076
C 22.09288 28.40303 -0.00652
C 23.37698 27.75507 0.0058
C 23.33355 26.30818 -0.00865
C 22.08534 25.522 0.00675
C 22.09799 24.18123 -0.00311
C 23.35788 23.43642 0.00742
C 23.33447 21.98622 -0.01594
C 22.0452 21.23771 0.0106
C 22.12373 19.88332 -0.01154
C 23.35985 19.11209 -0.01721
C 23.35523 17.70096 -0.02422
C 22.10425 15.61758 0.00096
C 25.76998 23.40654 -0.01971
C 25.76514 22.0315 -0.02118
C 24.49858 21.29383 0.00733
C 28.28565 26.22754 -0.00802
C 27.03221 25.51147 -0.00218
C 26.96695 24.10798 -0.01654
C 28.28468 23.44961 -0.00037
C 28.22994 22.0444 -0.0032
C 27.03396 21.33505 0.00622
C 26.9971 19.89222 -0.02815
C 28.18385 19.12772 -0.00942
C 28.24292 17.77524 0.00487
C 27.10274 17.01644 0.00826
C 27.04438 15.5896 -0.00294
C 28.19825 14.92434 0.00152
C 28.24705 13.48871 0.01257
C 27.04307 12.84296 0.02316
C 27.03557 11.37402 0.04185
C 28.27528 10.60201 0.00194
C 28.26345 9.23282 -0.00621
C 26.97046 8.52364 0.02611
C 27.01256 7.08845 0.02198
C 28.25815 6.37063 0.01094
C 28.25616 5.04265 0.00235
C 28.30183 27.6662 0.00195
C 27.1407 28.34744 0.00996
C 27.06377 29.85157 0.04306
C 28.33171 30.53276 0.00367
C 24.57881 19.8845 -0.00178
C 25.81912 19.0952 0.00768
C 25.82204 17.71213 -0.0276
C 24.55653 17.00632 0.03005
C 24.60514 15.52285 -0.04078
C 25.83529 14.84915 0.02117
C 25.75333 13.46227 0.02737
C 24.49425 12.72909 -0.00498
C 24.55662 11.29586 0.00135
C 25.82971 10.5953 0.03102
C 19.68685 7.06857 0.00755
C 25.79773 9.2216 0.02555
C 24.51451 7.12668 -0.00285
C 25.82858 6.38164 -0.009
C 25.81814 4.96999 -0.01199
C 24.63083 4.2599 -0.00229
C 24.60852 2.76411 -0.00938
C 25.89989 2.11241 -0.0264
C 25.84628 0.71049 -0.01154
C 24.60798 34.02809 0.00684
C 27.15229 32.6903 -0.01052
C 28.31959 31.96279 -0.01679
C 24.55475 8.50483 0.01423
C 2.53406 32.59508 0.00245
