433
Graphene
C 0.01446 0.0198 0.01295
C 13.55686 6.39246 0.01364
C 13.51452 5.05115 -0.01062
C 12.28406 4.29319 -0.00033
C 12.29661 2.82327 0.03589
C 13.55367 2.14657 -0.02759
C 13.54475 0.73627 0.0402
C 12.25663 34.05368 0.00572
C 14.70762 32.68055 0.03592
C 15.95392 31.88737 0.00406
C 15.97467 30.50268 0.00943
C 14.78038 29.85525 0.02841
C 14.7702 28.36865 -0.01111
C 16.01602 27.71602 -0.01275
C 16.02401 26.25984 0.00985
C 14.73683 25.62478 -0.02245
C 14.74687 24.13952 -0.00428
C 15.97998 23.38421 0.03101
C 15.93364 21.96914 -0.01536
C 14.78723 21.2527 -0.02689
C 14.74472 19.88545 -0.01046
C 16.00645 19.18832 -0.00891
C 16.01056 17.7106 0.02819
C 14.74503 17.08722 0.00165
C 12.27462 7.15089 -0.00719
C 14.77336 15.66433 -0.02971
C 12.32757 8.55174 0.01641
C 13.56051 10.67439 -0.00334
C 11.08918 0.7215 0.0288
C 9.83401 0.03718 0.00393
C 12.30989 32.6621 0.00895
C 13.54125 31.98263 0.00685
C 13.53961 30.56764 0.02888
C 12.28069 29.82846 -0.00482
C 12.2735 28.42306 -0.01384
C 13.54841 27.64289 0.03693
C 13.52651 26.24285 0.01745
C 12.29281 25.58993 0.00488
C 12.31284 24.14268 -0.01004
C 13.49839 23.42503 -0.02896
C 13.52631 22.05667 -0.00131
C 12.33006 21.25262 -0.01118
C 12.24035 19.86843 -0.014
C 13.53395 19.16754 0.02147
C 13.5847 17.7688 0.00373
C 12.30394 17.08352 -0.00191
C 12.34271 15.63287 0.00438
C 13.48841 14.98157 0.01291
C 13.53359 13.51342 0.00093
C 12.29165 12.73336 0.00057
C 12.30204 11.35252 -0.01634
C 13.54412 9.28454 0.02339
C 11.05999 2.14012 -0.0008
C 15.95903 14.91753 0.02894
C 14.73862 12.79575 0.00444
C 17.23506 16.99702 -0.02696
C 17.255 15.65458 -0.00114
C 18.45033 14.90197 0.00228
C 18.454 13.48448 0.00798
C 17.19025 12.80203 0.00422
C 17.24591 11.3108 0.0351
C 18.40266 10.62894 -0.03113
C 18.43106 9.20456 0.02098
C 17.2348 8.47143 0.01848
C 17.23867 7.08623 -0.00619
C 18.42988 6.4325 -0.02162
C 18.41017 4.9768 0.00889
C 17.17091 4.27844 -0.00481
C 17.15584 2.86362 0.00979
C 18.44541 2.1722 0.01443
C 18.42111 0.70565 0.03505
C 17.22923 34.04999 -0.02815
C 19.70428 32.68101 -0.04147
C 20.91121 31.98838 -0.05302
C 20.89858 30.54539 0.00213
C 19.69768 29.82108 -0.00066
C 19.67857 28.40525 -0.00289
C 20.95479 27.66307 0.00028
C 18.44033 17.73421 -0.00368
C 15.96803 13.50791 -0.01789
C 18.4737 19.19101 -0.0108
C 17.20152 21.27676 0.02058
C 14.72977 11.37129 -0.00925
C 15.95894 10.66119 0.01877
C 16.0002 9.21712 0.01363
C 14.7232 8.50397 -0.02162
C 14.73339 7.12106 0.00415
C 16.02615 6.38668 -0.0014
C 15.97545 4.97155 0.02162
C 14.75404 4.2029 0.0076
C 14.72764 2.8218 0.01241
C 16.00122 2.08982 -0.01454
C 15.94926 0.70239 0.01945
C 14.76127 0.01846 0.01416
C 17.24133 32.66594 0.03542
C 18.46699 31.98585 0.02299
C 18.47393 30.49482 0.00244
C 17.2077 29.82664 -0.01717
C 17.22226 28.39519 0.05265
C 18.43946 27.69716 -0.01952
C 18.44497 26.21597 -0.02813
C 17.20748 25.55721 0.00374
C 17.17388 24.1453 0.00052
C 18.44437 23.44134 -0.03682
C 18.45078 22.01784 0.01965
C 17.2049 19.9183 -0.01957
C 11.06234 4.93585 -0.01362
C 11.07961 6.39738 -0.00892
C 9.81898 7.11052 -0.04848
C 3.71728 0.70387 -0.01386
C 2.4122 0.03001 -0.02805
C 4.94143 32.67755 0.00081
C 6.14365 31.92659 0.00245
C 6.13932 30.52386 0.02728
C 4.86672 29.84937 -0.00039
C 4.92298 28.35457 0.0064
C 6.19367 27.68879 0.00211
C 6.15153 26.24524 -0.00449
C 4.9859 25.5203 -0.01979
C 4.90867 24.13613 0.02784
C 6.07717 23.41417 -0.01977
C 6.13084 22.06119 -0.00561
C 4.93034 21.30807 0.00208
C 4.95197 19.87566 0.01707
C 6.1531 19.22098 0.02769
C 6.22007 17.72458 -0.03291
C 4.92036 17.005 -0.04999
C 4.9627 15.59434 0.04505
C 6.08128 14.85483 0.03284
C 6.11873 13.51916 -0.04307
C 4.87243 12.78399 0.03189
C 4.90955 11.36299 0.00031
C 3.70231 2.1629 -0.0059
C 6.14027 10.62099 -0.003
C 2.51828 2.84677 0.00558
C 3.70891 6.43586 0.00828
C 3.68949 30.58889 -0.00012
C 2.45684 29.80051 -0.04306
C 2.41901 28.33984 -0.03672
C 3.67489 27.68314 0.01913
C 3.72281 26.26843 0.00267
C 2.46879 25.57264 0.00787
C 2.44488 24.15889 0.02426
C 3.70763 23.48634 0.01218
C 3.66101 22.00169 -0.01471
C 2.47895 21.29701 -0.02827
C 2.50926 19.87784 0.01078
C 3.71602 19.18613 -0.00112
C 3.6832 17.65572 0.03345
C 2.46179 16.99136 0.00748
C 2.43151 15.60258 0.00662
C 3.63399 14.86676 -0.0154
C 3.68143 13.46916 -0.01299
C 2.47299 12.78811 -0.00407
C 2.47568 11.36764 0.01138
C 3.75139 10.59482 0.03278
C 3.67353 9.22456 -0.00177
C 2.44396 8.55217 0.04421
C 2.4796 7.1098 0.00088
C 2.4317 4.29193 -0.02375
C 6.13497 9.23196 0.01402
C 4.92891 8.5633 0.02379
C 6.14495 0.73631 0.00907
C 11.03738 31.99682 0.01305
C 11.089 30.54307 -0.00077
C 9.85172 29.86868 0.03368
C 9.85765 28.40363 -0.02929
C 11.09576 27.728 -0.00966
C 11.02203 26.32306 -0.03337
C 9.82179 25.59111 0.01227
C 9.88358 24.17796 0.00873
C 11.03284 23.42006 -0.00049
C 11.07239 22.02816 0.00848
C 9.87528 21.29812 -0.01303
C 9.85459 19.90056 -0.01378
C 11.06118 19.1906 0.02635
C 11.05541 17.79614 0.0127
C 9.85408 17.04045 0.01396
C 9.81039 15.63733 0.01849
C 11.06815 14.94717 -0.01142
C 11.05596 13.45451 -0.00562
C 9.85475 12.73613 -0.00494
C 9.81863 11.38405 0.00054
C 11.04928 10.64496 0.03007
C 11.10686 9.25403 -0.00095
C 9.82292 8.49322 0.01572
C 9.80634 32.69776 0.0276
C 7.33154 0.01223 0.00988
C 8.62296 0.69532 -0.01343
C 7.36374 8.5747 0.01087
C 4.86962 0.00558 0.00643
C 7.32722 32.66413 -0.01509
C 8.59554 31.90239 0.03267
C 8.63435 30.57847 0.02374
C 7.38177 29.82036 0.00402
C 7.39585 28.43158 0.0073
C 8.60776 27.67028 0.0174
C 8.58694 26.25922 0.03828
C 7.38787 25.56342 0.01226
C 7.35592 24.16786 -0.00279
C 8.63621 23.47457 0.01996
C 20.91461 26.25603 -0.02213
C 8.60349 22.02033 -0.03996
C 7.36784 19.88378 -0.00074
C 8.58764 19.21444 -0.00518
C 8.6728 17.75791 0.0086
C 7.38863 17.00608 -0.00643
C 7.40748 15.61781 0.017
C 8.61753 14.92145 -0.03113
C 8.61138 13.50622 -0.02566
C 7.38001 12.78807 -0.00094
C 7.35131 11.33371 0.02322
C 8.61876 10.61631 -0.00725
C 8.58305 9.25786 -0.05697
C 7.42051 21.3339 0.01465
C 3.70665 31.90994 -0.00198
C 19.69614 25.5429 0.03698
C 20.9118 23.4142 -0.00491
C 30.74136 13.51856 -0.01303
C 29.51008 12.75896 -0.01461
C 29.49875 11.37192 -0.02155
C 30.78408 10.59675 -0.00944
C 30.71688 9.22787 -0.03735
C 29.47892 8.53561 -0.00971
C 29.50331 7.08131 0.01518
C 30.72571 6.43016 0.01908
C 30.74117 4.98604 0.07705
C 29.50139 4.2114 0.0103
C 29.54423 2.84327 0.02108
C 30.74606 2.13691 0.00716
C 30.7906 0.68358 0.00307
C 29.51265 34.01041 0.00346
C 31.95932 32.6571 0.01713
C 33.23705 31.93185 -0.01694
C 33.18663 30.51941 0.01428
C 31.99188 29.79291 -0.02142
C 31.9958 28.40399 0.0544
C 33.20067 27.71169 0.00026
C 33.20435 26.31774 0.00682
C 31.95715 25.55246 -0.01779
C 32.00906 24.18674 0.03794
C 30.75086 14.93695 -0.0405
C 33.22358 23.42194 0.01927
C 29.51257 15.60315 0.01705
C 30.78365 17.76063 -0.00669
C 27.08769 8.5283 0.02611
C 27.03468 7.06919 0.02198
C 28.30103 6.40036 0.01094
C 28.29515 4.97822 0.00235
C 27.06451 4.29224 0.01495
C 27.02993 2.79895 0.01259
C 28.26473 2.10427 0.01799
C 28.27183 0.69635 0.01699
C 27.10078 34.06687 -0.00416
C 29.44792 32.63133 0.01177
C 30.72853 31.93824 0.04266
C 30.73034 30.50089 0.01324
C 29.4946 29.8074 0.0014
C 29.50961 28.3451 0.00924
C 30.7659 27.70803 0.02326
C 30.72466 26.2891 0.00261
C 29.50948 25.53435 0.03265
C 29.51399 24.07894 -0.02049
C 30.72302 23.42385 -0.01854
C 30.70349 22.04423 -0.01415
C 29.55054 21.32909 -0.03039
C 29.54764 19.82979 0.01836
C 30.74409 19.15067 0.03531
C 29.47644 17.06404 0.0101
C 28.28919 9.25934 -0.00621
C 33.208 22.03482 0.01574
C 31.95943 19.8981 -0.01429
C 34.40233 24.14757 0.03076
C 1.22632 23.47443 0.00723
C 1.22094 22.02678 0.02712
C 0.00387 21.30069 -0.02213
C 34.41482 19.86608 0.01951
C 1.23354 19.1782 -0.01678
C 1.21461 17.74833 0.01223
C 34.42228 17.06271 0.00648
C 34.42583 15.57559 0.02114
C 1.22422 14.88447 -0.02957
C 1.19656 13.49135 0.00343
C 0.00418 12.76687 -0.02656
C 0.00685 11.37131 -0.02442
C 1.17543 10.64155 -0.00027
C 1.21161 9.22207 -0.00583
C 0.00091 8.52601 -0.02302
C 34.42117 7.06756 -0.02849
C 1.19066 6.38318 0.02931
C 1.24207 4.92478 0.00628
C 0.00995 4.22279 -0.0345
C 0.03279 2.83969 -0.00931
C 1.24075 2.13066 -0.00939
C 1.26479 0.6732 -0.00468
C 34.41966 25.57258 -0.05239
C 31.97771 21.3023 -0.02383
C 1.24647 26.27086 -0.00598
C 0.03691 28.40267 -0.01037
C 33.19669 19.2024 -0.0136
C 33.13116 17.75933 0.00594
C 31.93447 17.03503 -0.02474
C 31.99887 15.55266 0.00369
C 33.19265 14.89399 0.00455
C 33.25419 13.46406 -0.00644
C 31.97677 12.78209 -0.01839
C 31.9025 11.34512 0.00137
C 33.14056 10.60562 0.00199
C 33.19112 9.23058 0.04381
C 31.98288 8.49737 0.02806
C 31.98239 7.08856 0.01504
C 33.22397 6.36458 -0.00069
C 33.22835 4.96177 0.04926
C 31.96735 4.26934 -0.03838
C 31.99475 2.82404 0.00349
C 33.17189 2.09764 -0.00323
C 33.18793 0.70764 -0.00841
C 32.00796 34.04482 0.0001
C 0.04763 32.63287 -0.02927
C 1.21654 31.93663 -0.01404
C 1.23057 30.51339 0.01027
C 34.43203 29.81879 0.01831
C 1.22837 27.64454 -0.00439
C 28.32093 10.66136 0.00194
C 27.04053 11.33815 0.04185
C 27.04335 12.77356 0.02316
C 23.40418 27.67858 0.0058
C 23.39974 26.27291 -0.00865
C 22.17425 25.58821 0.00675
C 22.13092 24.1652 -0.00311
C 23.39644 23.37274 0.00742
C 23.3752 21.97648 -0.01594
C 22.16391 21.29519 0.0106
C 22.10827 19.93695 -0.01154
C 23.33046 19.17038 -0.01721
C 23.34066 17.76518 -0.02422
C 22.11306 17.04344 0.01277
C 22.10312 15.58556 0.00096
C 23.37167 14.92801 -0.01527
C 23.3662 13.50992 0.01087
C 22.14032 12.73579 0.00199
C 22.1377 11.38351 0.01511
C 23.39385 10.65263 -0.00478
C 23.38319 9.21353 -0.01662
C 22.08191 8.48632 -0.01185
C 22.18447 7.09521 0.01126
C 23.34344 6.34553 0.01852
C 23.45928 4.98246 -0.00381
C 22.11867 4.26919 0.03046
C 22.17522 28.40423 -0.00652
C 22.1586 2.83012 0.0296
C 22.09507 29.82143 -0.04076
C 23.32062 31.98808 0.00654
C 20.86039 21.99895 0.03338
C 19.66476 21.29836 -0.0258
C 19.68557 19.84452 -0.0331
C 20.82097 19.16441 -0.00316
C 20.90234 17.75644 0.02188
C 19.67541 17.04812 -0.01979
C 19.6602 15.63041 0.02691
C 20.88324 14.92974 -0.01581
C 20.90421 13.49483 0.01452
C 19.68007 12.75165 0.04892
C 19.68819 11.37232 -0.00111
C 20.90346 10.5761 -0.03557
C 20.94081 9.22881 0.03754
C 19.68186 8.49037 0.01739
C 19.66406 7.09047 0.00755
C 20.97822 6.4343 -0.0054
C 20.90367 4.98381 0.00667
C 19.65711 4.21041 0.00143
C 19.67394 2.81693 -0.017
C 20.9147 2.18978 0.00364
C 20.89399 0.73746 -0.00831
C 19.68106 0.00294 -0.02957
C 22.16438 32.69805 -0.04422
C 23.36772 30.51478 -0.00703
C 23.34974 2.12006 0.03374
C 23.34996 0.66156 -0.02845
C 22.12874 0.01464 -0.03213
C 24.62215 2.86401 -0.00938
C 25.79141 2.12749 -0.0264
C 25.83293 0.71064 -0.01154
C 24.5881 34.07286 0.00684
C 27.03111 32.61557 -0.01052
C 28.3192 31.9331 -0.01679
C 28.29143 30.52656 0.00367
C 27.06405 29.87259 0.04306
C 27.07346 28.42491 0.00996
C 28.25704 27.68911 0.00195
C 28.30051 26.26088 -0.00802
C 27.06525 25.60125 -0.00218
C 27.05586 24.1868 -0.01654
C 28.29234 23.39376 -0.00037
C 28.29757 21.99215 -0.0032
C 27.09745 21.29682 0.00622
C 27.03179 19.89043 -0.02815
C 28.29724 19.16881 -0.00942
C 28.27663 17.76076 0.00487
C 27.04041 17.02484 0.00826
C 27.04837 15.59262 -0.00294
C 28.24989 14.87306 0.00152
C 28.32942 13.49106 0.01257
C 24.56735 4.26398 -0.00229
C 25.80661 4.96223 -0.01199
C 25.82087 6.38228 -0.009
C 24.57244 7.08891 -0.00285
C 24.61602 32.70155 0.02239
C 25.80702 31.89323 0.01153
C 25.77016 30.5027 0.02734
C 24.57788 29.83191 -0.0055
C 24.60221 28.44531 0.01515
C 25.79755 27.64016 -0.00225
C 25.82595 26.29778 0.00071
C 24.58991 25.58423 -0.01107
C 24.59169 24.13335 -0.01586
C 25.82103 23.47942 -0.01971
C 25.81845 21.98588 -0.02118
C 19.68419 24.07981 -0.00109
C 24.58545 21.29623 0.00733
C 25.79704 19.17079 0.00768
C 25.8254 17.755 -0.0276
C 24.61071 17.06916 0.03005
C 24.56199 15.60005 -0.04078
C 25.81502 14.94606 0.02117
C 25.82444 13.49417 0.02737
C 24.6015 12.84051 -0.00498
C 24.58483 11.3603 0.00135
C 25.78448 10.62807 0.03102
C 25.77144 9.20907 0.02555
C 24.58362 8.5248 0.01423
C 24.61054 19.89871 -0.00178
C 2.45783 32.64446 0.00535
