369
Graphene
C 34.38488 0.04513 0.01295
C 11.0351 9.14927 -0.01952
C 9.73722 8.77717 -0.02813
C 9.80463 2.84349 0.00374
C 10.9715 2.17773 0.00052
C 11.21776 0.82487 -0.03682
C 9.87356 0.09159 0.01965
C 12.36438 32.69418 0.02058
C 13.53605 31.97949 -0.01957
C 13.51453 30.544 -0.0108
C 12.34677 29.82059 -0.00368
C 12.33577 28.38639 -0.02696
C 13.53536 27.67698 -0.00114
C 13.57158 26.29062 0.00228
C 12.3122 25.53933 0.00798
C 12.26046 24.13865 0.00422
C 13.49959 23.36793 0.0351
C 13.48629 21.99209 -0.03113
C 12.2652 21.32043 0.02098
C 12.26166 19.83252 0.01848
C 11.15227 10.53817 0.05265
C 13.44881 19.1521 -0.00619
C 9.86834 11.27461 -0.01717
C 11.06183 13.45007 0.02299
C 7.39448 0.05661 0.02819
C 9.8093 32.73179 0.00165
C 11.07033 32.02018 -0.02971
C 11.08206 30.51552 0.02894
C 9.8294 29.86562 -0.01789
C 9.89298 28.43845 0.00444
C 11.08489 27.71508 -0.00925
C 11.0977 26.32916 0.01877
C 9.8927 25.63047 0.01363
C 9.87519 24.15594 -0.02162
C 11.04685 23.43215 0.00415
C 11.04554 22.04451 -0.0014
C 9.84366 21.30913 0.02162
C 9.87107 19.8705 0.0076
C 11.01429 19.13534 0.01241
C 11.04756 17.64585 -0.01454
C 9.75219 17.00125 0.01945
C 9.7975 15.59035 0.01416
C 11.03373 14.86404 0.03542
C 9.81078 12.66568 0.00244
C 8.61803 0.7934 -0.00891
C 13.44342 17.74376 -0.02162
C 12.25781 15.59726 -0.00481
C 14.70922 15.59364 0.04892
C 15.89506 14.91581 -0.00111
C 15.90638 13.49395 -0.03557
C 14.71037 12.8083 0.03754
C 14.76983 11.30114 0.01739
C 15.97614 10.56514 0.00755
C 15.94081 9.14987 -0.0054
C 16.00556 2.03152 0.00667
C 16.09799 0.58322 0.00143
C 14.86869 33.9497 -0.017
C 17.22119 32.62733 0.00364
C 18.52325 31.87889 -0.00831
C 18.4996 30.45223 -0.02957
C 17.19638 29.76969 -0.04422
C 17.19388 28.39323 0.00654
C 18.37024 27.63981 -0.00703
C 18.45381 26.27761 -0.04076
C 17.2263 25.60269 -0.00652
C 17.18496 24.12578 0.0058
C 14.67094 17.00282 0.01452
C 12.24137 17.0044 0.00889
C 15.91529 17.7004 -0.01581
C 14.71993 19.86665 -0.01979
C 13.47457 14.89524 0.00979
C 13.45566 13.54549 0.01443
C 12.18448 12.74584 0.03505
C 12.28257 11.31362 -0.02815
C 13.53255 10.70238 -0.04147
C 13.71495 0.72658 -0.05302
C 12.45552 0.09563 0.00213
C 14.73666 32.6105 -0.00066
C 15.93088 31.88955 -0.00289
C 15.97685 30.44708 0.00028
C 14.72973 29.76578 -0.02213
C 14.74036 28.37163 0.03698
C 16.00948 27.63841 -0.00109
C 15.96018 26.26298 -0.00491
C 14.7749 25.48479 0.03338
C 14.73038 24.06536 -0.0258
C 15.92906 23.32952 -0.0331
C 15.95669 21.98041 -0.00316
C 14.7272 21.31246 0.02188
C 15.90689 19.12866 0.02691
C 8.57799 2.27173 -0.01046
C 7.38071 2.93929 -0.02689
C 7.35754 4.2512 -0.01536
C 3.70737 6.47578 -0.03337
C 3.64556 5.0237 0.01227
C 2.46902 4.30296 0.00873
C 2.41194 2.81737 -0.00049
C 3.66551 2.21171 0.00848
C 3.66726 0.77205 -0.01303
C 2.41708 0.09163 -0.01378
C 4.94558 32.72374 0.02635
C 6.13836 32.02744 0.0127
C 6.12773 30.53532 0.01396
C 4.89558 29.83467 0.01849
C 4.98149 28.42536 -0.01142
C 6.18826 27.73187 -0.00562
C 6.16365 26.31291 -0.00494
C 4.93074 25.67704 0.00054
C 4.8788 24.21579 0.03007
C 6.15352 23.47202 -0.00095
C 6.16259 22.0988 0.01572
C 4.94216 21.34632 -0.04848
C 2.52021 7.1816 -0.00966
C 4.96536 19.92564 -0.00892
C 2.42858 8.52246 -0.02929
C 3.65911 10.71834 -0.00077
C 3.69986 30.54418 0.01996
C 2.42912 29.83904 -0.03996
C 2.46337 28.45256 0.01465
C 3.65603 27.75539 -0.00074
C 3.6455 26.29833 -0.00518
C 2.34896 25.61008 0.0086
C 2.3673 24.16917 -0.00643
C 3.63982 23.54864 0.017
C 3.69259 22.05107 -0.03113
C 2.4911 21.28192 -0.02566
C 2.40804 19.88243 -0.00094
C 3.69649 19.20964 0.02322
C 3.65585 17.75938 -0.00725
C 2.401 17.06626 -0.05697
C 2.38416 15.64149 0.01087
C 3.62454 14.94133 -0.01343
C 3.65566 13.58433 0.00988
C 2.4778 12.81707 0.0276
C 2.48555 11.42448 0.01305
C 3.63401 9.28711 0.03368
C 6.14397 19.16842 -0.01362
C 6.11114 17.79278 -0.0008
C 4.90728 17.08315 0.0288
C 7.38318 24.17785 0.01641
C 8.67437 23.47666 -0.00719
C 8.59225 22.03597 0.01364
C 7.40727 21.34531 -0.01062
C 7.38754 19.89522 -0.00033
C 8.63359 19.2494 0.03589
C 8.57192 17.80255 -0.02759
C 7.33287 17.08319 0.0402
C 7.38136 15.59202 0.00572
C 8.54975 14.85194 0.03592
C 8.60482 13.43661 0.00406
C 7.37073 12.80034 0.00943
C 7.35269 11.37674 0.02841
C 8.58851 10.59781 -0.01111
C 8.47669 9.25295 -0.01275
C 7.29089 8.57775 0.00985
C 7.39732 7.19831 -0.02245
C 8.58027 6.4315 -0.00428
C 8.4219 5.13161 0.03101
C 7.38519 25.6292 0.02339
C 8.62889 26.31803 -0.00334
C 8.65219 27.78284 -0.01634
C 7.42579 28.47852 0.00057
C 4.8577 15.68804 0.00393
C 6.12954 14.94019 0.00895
C 6.14751 13.54268 0.00685
C 4.89892 12.89565 0.02888
C 4.89173 11.4952 -0.00482
C 6.11906 10.71683 -0.01384
C 6.09755 9.31205 0.03693
C 4.87008 8.5704 0.01745
C 4.98676 7.16963 0.00488
C 18.3921 23.32665 -0.00865
C 6.18644 6.4125 -0.01004
C 4.89764 4.37987 -0.00131
C 4.9431 2.90943 -0.01118
C 6.13259 2.2009 -0.014
C 6.13489 0.7465 0.02147
C 4.89923 0.09433 0.00373
C 7.35602 32.74908 -0.00191
C 8.60128 32.04259 0.00438
C 8.58797 30.66243 0.01291
C 7.42431 29.90473 0.00093
C 6.17996 5.00966 -0.02896
C 3.65892 31.99669 -0.00279
C 18.36893 21.9409 0.00675
C 17.14447 19.85409 0.00742
C 30.72473 9.18498 0.00307
C 29.44911 8.53206 0.00346
C 29.42261 7.092 0.01713
C 30.70534 6.37885 -0.01694
C 30.70747 4.92156 0.01428
C 29.46302 4.27108 -0.02142
C 29.47663 2.78888 0.0544
C 30.70275 2.11018 0.00026
C 30.6853 0.63504 0.00682
C 29.3597 34.03331 -0.01779
C 31.95029 32.63883 0.03794
C 33.23135 32.01384 0.01927
C 33.19493 30.64033 0.01574
C 33.32015 22.09314 -0.02383
C 32.00104 19.90795 -0.01429
C 33.17668 19.22593 -0.0136
C 33.06269 17.82455 0.00594
C 31.9041 17.09143 -0.02474
C 31.89091 15.63088 0.00369
C 30.75287 10.63293 0.00716
C 33.10221 14.94777 0.00455
C 29.51526 11.37109 0.02108
C 30.78813 13.45908 0.07705
C 27.08783 11.37533 0.03265
C 28.27873 10.61162 -0.02049
C 28.23931 9.29534 -0.01854
C 27.02287 8.4944 -0.01415
C 27.01448 7.0691 -0.03039
C 28.22387 6.39702 0.01836
C 28.21797 5.01645 0.03531
C 27.01173 4.31885 -0.00669
C 27.00593 2.83917 0.0101
C 28.23934 2.04072 0.01705
C 28.21694 0.66443 -0.0405
C 26.93626 0.06997 -0.01303
C 29.74208 32.66598 -0.01461
C 30.71195 31.89312 -0.02155
C 30.8158 19.18558 -0.00944
C 30.69858 17.88278 -0.03735
C 29.45958 17.09773 -0.00971
C 29.49857 15.66725 0.01518
C 30.70461 14.90006 0.01908
C 29.55663 12.74416 0.0103
C 27.1283 12.78902 0.00261
C 33.20766 13.56818 -0.00644
C 32.03388 11.28467 0.00137
C 34.39592 19.93019 0.01951
C 1.19614 19.20182 -0.01678
C 1.11742 17.74544 0.01223
C 34.3139 17.0515 0.00648
C 34.3426 15.65695 0.02114
C 1.17162 14.89249 -0.02957
C 1.29926 13.51624 0.00343
C 34.40573 12.78613 -0.02656
C 0.04548 11.38407 -0.02442
C 1.25184 10.69777 -0.00027
C 1.21734 9.25279 -0.00583
C 34.39772 8.55383 -0.02302
C 0.01175 7.12359 -0.02849
C 1.2517 6.43666 0.02931
C 1.21638 5.01901 0.00628
C 34.40024 4.31168 -0.0345
C 34.38334 2.90369 -0.00931
C 1.15878 2.21523 -0.00939
C 1.18816 0.77278 -0.00468
C 0.03578 21.35388 -0.02213
C 31.99858 12.7662 -0.01839
C 1.23378 22.01496 0.02712
C 0.02929 23.99386 0.03076
C 33.25239 10.63161 0.00199
C 33.17192 9.22362 0.04381
C 31.94516 8.49822 0.02806
C 31.9493 7.10464 0.01504
C 33.21578 6.41515 -0.00069
C 33.14129 4.99804 0.04926
C 31.91751 4.29662 -0.03838
C 31.91461 2.91561 0.00349
C 33.16041 2.16749 -0.00323
C 33.13399 0.64815 -0.00841
C 31.90846 34.02107 0.0001
C 34.42455 32.71242 -0.02927
C 1.22775 31.99974 -0.01404
C 1.25503 30.56718 0.01027
C 34.32676 29.83903 0.01831
C 0.06976 28.53832 -0.01037
C 1.22884 27.75551 -0.00439
C 1.04562 26.33813 -0.00598
C 0.01591 25.45936 -0.05239
C 1.22813 23.41146 0.00723
C 28.39552 13.48797 0.02326
C 28.29278 14.92297 0.00924
C 27.08176 15.72185 0.0014
C 19.51702 28.40148 0.01153
C 19.59444 25.56396 0.02734
C 19.50293 24.18634 -0.0055
C 19.54306 21.25023 0.01515
C 19.59458 19.86387 -0.00225
C 20.75092 19.18646 0.00071
C 20.76989 17.72913 -0.01107
C 19.57085 17.01652 -0.01586
C 19.60368 15.57737 -0.01971
C 20.8518 14.82551 -0.02118
C 20.80938 13.43513 0.00733
C 19.63284 12.71419 -0.00178
C 19.61954 11.34887 0.00768
C 20.86495 10.65715 -0.0276
C 20.90867 9.17069 0.03005
C 19.61972 8.41451 -0.04078
C 19.72679 7.01542 0.02117
C 20.91976 6.27654 0.02737
C 20.91361 4.87694 -0.00498
C 19.8807 29.71176 0.02239
C 19.6659 4.12942 0.00135
C 20.81338 30.63268 -0.03213
C 19.78942 32.63884 0.03374
C 18.36798 19.11795 -0.01594
C 18.32095 17.70808 0.0106
C 17.08371 16.96428 -0.01154
C 17.06764 15.54037 -0.01721
C 18.30101 14.86278 -0.02422
C 18.41853 13.41516 0.01277
C 17.15358 12.72358 0.00096
C 17.20231 11.31184 -0.01527
C 18.46678 10.52118 0.01087
C 18.41126 9.10135 0.00199
C 17.05475 8.36806 0.01511
C 17.34128 6.9224 -0.00478
C 18.54244 6.29099 -0.01662
C 18.49253 4.85087 -0.01185
C 17.24988 4.27352 0.01126
C 17.14033 2.86729 0.01852
C 18.40192 2.10847 -0.00381
C 18.4562 0.69258 0.03046
C 17.34306 34.02883 0.0296
C 21.0555 32.00683 -0.02845
C 19.68373 2.7335 0.03102
C 20.96678 2.09035 0.02555
C 20.93315 0.70872 0.01423
C 24.55965 17.03017 -0.00294
C 24.56781 15.61191 0.00152
C 25.83711 15.01616 0.01257
C 25.86567 13.50454 0.02316
C 24.62727 12.80101 0.04185
C 24.62498 11.37435 0.00194
C 25.85981 10.70855 -0.00621
C 25.79749 9.26335 0.02611
C 24.53724 8.51882 0.02198
C 24.52714 7.09907 0.01094
C 25.75719 6.39817 0.00235
C 25.74002 4.99815 0.01495
C 24.59931 4.28229 0.01259
C 24.60971 2.87074 0.01799
C 25.76252 2.12173 0.01699
C 25.70582 0.61948 -0.00416
C 24.512 33.93708 0.01177
C 28.34882 17.90801 0.04266
C 27.06669 17.20961 0.01324
C 25.79311 17.53123 0.00826
C 23.94925 32.55659 0.00487
C 22.22157 0.04763 -0.00942
C 23.46186 0.69629 -0.02815
C 19.71998 0.00411 -0.00285
C 22.3908 32.68559 -0.009
C 22.06944 19.69811 -0.01199
C 23.17181 19.11378 -0.00229
C 23.40315 17.70523 -0.00938
C 22.02856 17.02692 -0.0264
C 22.11616 15.61315 -0.01154
C 23.3289 14.96868 0.00684
C 23.34193 13.50476 -0.01052
C 17.19346 21.25354 -0.00311
C 22.13549 12.78726 -0.01679
C 23.42269 10.70357 0.04306
C 23.32588 9.27685 0.00996
C 22.13716 8.49927 0.00195
C 22.09087 7.07166 -0.00802
C 23.31435 6.39233 -0.00218
C 23.36958 4.98672 -0.01654
C 22.17999 4.20923 -0.00037
C 22.24313 2.85967 -0.0032
C 23.42919 2.13063 0.00622
C 22.1253 11.35169 0.00367
C 2.50024 32.63702 0.01226
