350
Graphene
C 34.36951 0.05335 0.01295
C 9.84503 15.59901 0.00798
C 11.07594 14.93609 0.00422
C 11.14046 13.49974 0.0351
C 9.89823 12.82538 -0.03113
C 9.85056 11.37744 0.02098
C 11.01483 10.57972 0.01848
C 11.01413 9.18513 -0.00619
C 9.80617 8.38019 -0.02162
C 9.86131 6.99176 0.00889
C 11.13512 6.34954 -0.00481
C 11.11265 4.91855 0.00979
C 9.92038 4.30996 0.01443
C 9.8685 2.86321 0.03505
C 11.10617 2.13858 -0.02815
C 11.13285 0.69918 -0.04147
C 9.8214 0.08069 -0.05302
C 12.31061 32.70007 0.00213
C 9.84417 17.08393 0.00228
C 11.03943 17.76904 -0.00114
C 11.03903 19.11402 -0.02696
C 9.83902 19.84549 -0.00368
C 8.61288 4.94271 0.01241
C 7.37876 4.27931 -0.01454
C 7.37585 2.8898 0.01945
C 8.59787 2.20052 0.01416
C 8.56111 0.78087 0.03542
C 7.38724 0.07694 0.02299
C 9.83852 32.6992 0.00244
C 11.07857 32.02531 -0.01717
C 13.50084 31.91659 -0.00066
C 11.05955 30.58003 0.05265
C 9.79315 28.50449 -0.02813
C 10.97039 27.73373 0.00374
C 10.98848 26.29382 0.00052
C 9.83636 25.537 -0.03682
C 9.82903 24.0653 0.01965
C 11.0943 23.39028 0.02058
C 11.10019 21.98731 -0.01957
C 9.85108 21.32676 -0.0108
C 9.79882 29.8985 -0.01952
C 13.44316 30.48367 -0.00289
C 12.26232 29.81507 0.00028
C 12.22762 28.41018 -0.02213
C 12.37446 4.28294 0.00364
C 12.36639 2.8445 -0.00831
C 13.54418 2.0934 -0.02957
C 13.54106 0.65287 -0.04422
C 12.33152 34.06175 0.00654
C 14.70298 32.67191 -0.00703
C 15.90585 31.90627 -0.04076
C 15.92144 30.46018 -0.00652
C 13.571 4.99384 -0.017
C 14.69201 29.74116 0.0058
C 15.9129 27.63556 0.00675
C 15.94136 26.24939 -0.00311
C 14.71985 25.55872 0.00742
C 14.71255 24.1586 -0.01594
C 15.91726 23.38486 0.0106
C 16.09171 21.96804 -0.01154
C 14.82309 21.30907 -0.01721
C 14.76556 19.85015 -0.02422
C 14.67675 28.38424 -0.00865
C 8.56496 6.3238 0.0076
C 13.55017 6.40069 0.00143
C 12.25814 8.49803 -0.0054
C 13.46952 27.74759 0.03698
C 13.54441 26.27846 -0.00109
C 12.30824 25.62251 -0.00491
C 12.29798 24.19019 0.03338
C 13.52703 23.48034 -0.0258
C 13.57292 22.03955 -0.0331
C 12.35197 21.26102 -0.00316
C 12.25532 19.79765 0.02188
C 12.30429 7.0969 0.00667
C 13.52035 19.08132 -0.01979
C 12.29434 17.00239 -0.01581
C 12.3005 15.62367 0.01452
C 13.48814 14.87961 0.04892
C 13.48901 13.49639 -0.00111
C 12.22542 12.76241 -0.03557
C 12.29221 11.39377 0.03754
C 13.55404 10.68979 0.01739
C 13.46583 9.25288 0.00755
C 13.58574 17.69459 0.02691
C 7.41244 7.12997 0.02162
C 7.38814 8.54535 -0.0014
C 8.57235 9.18474 0.00415
C 2.47995 7.10659 -0.04848
C 3.6833 6.41536 -0.00892
C 3.64689 5.0065 -0.01362
C 2.46219 4.23469 -0.0008
C 2.42832 2.79618 0.0288
C 3.66518 2.1868 0.00393
C 3.6788 0.73468 0.00895
C 2.44614 0.04724 0.00685
C 2.52754 8.54862 0.01572
C 4.91941 32.68962 0.02888
C 6.15455 30.5298 -0.01384
C 4.90815 29.85697 0.03693
C 4.84235 28.49043 0.01745
C 6.13254 27.73996 0.00488
C 6.13752 26.31644 -0.01004
C 4.93154 25.59644 -0.02896
C 4.86837 24.17964 -0.00131
C 6.16507 23.50111 -0.01118
C 6.14665 32.03446 -0.00482
C 6.05683 22.10625 -0.014
C 3.75295 9.24359 -0.00095
C 2.52145 11.41443 0.00054
C 3.6531 30.53173 -0.00077
C 2.37317 29.84272 0.03368
C 2.37358 28.42587 -0.02929
C 3.63437 27.75391 -0.00966
C 3.66262 26.25014 -0.03337
C 2.36573 25.532 0.01227
C 2.39313 24.12383 0.00873
C 3.60321 23.38724 -0.00049
C 3.70095 10.6834 0.03007
C 3.5694 21.96262 0.00848
C 2.32091 19.81966 -0.01378
C 3.60935 19.1295 0.02635
C 3.67515 17.77517 0.0127
C 2.45858 16.97289 0.01396
C 2.39373 15.56979 0.01849
C 3.65146 14.88197 -0.01142
C 3.71121 13.50455 -0.00562
C 2.41983 12.81034 -0.00494
C 2.37236 21.31067 -0.01303
C 16.06414 19.14249 0.01277
C 4.87703 21.34773 0.02147
C 6.02227 19.21475 -0.00191
C 7.40478 28.34784 0.00985
C 8.66194 27.75202 -0.02245
C 8.59462 26.30129 -0.00428
C 7.38476 25.61686 0.03101
C 7.37476 24.19335 -0.01536
C 8.57317 23.38548 -0.02689
C 8.58138 22.01367 -0.01046
C 7.2765 21.32029 -0.00891
C 7.38541 29.85244 -0.01275
C 7.2338 19.89272 0.02819
C 8.58604 17.75909 -0.02971
C 7.3571 17.0431 0.02894
C 7.43128 15.69447 -0.01789
C 8.57568 14.92772 0.00444
C 8.65923 13.4974 -0.00925
C 7.45373 12.76615 0.01877
C 7.47924 11.43521 0.01363
C 8.6853 10.63988 -0.02162
C 8.5397 19.17749 0.00165
C 4.83608 19.96534 0.00373
C 8.596 30.60454 -0.01111
C 7.36017 32.7301 0.00943
C 6.14508 17.75014 0.00438
C 4.8739 17.09117 0.01291
C 4.89576 15.62032 0.00093
C 6.19091 14.91699 0.00057
C 6.19022 13.50018 -0.01634
C 5.01708 12.81868 -0.00334
C 4.94634 11.38969 0.02339
C 6.1943 10.66328 0.01641
C 8.58903 32.04844 0.02841
C 6.16891 9.18913 -0.00719
C 4.84594 7.13267 -0.01062
C 6.10681 6.49687 -0.00033
C 6.12643 5.08881 0.03589
C 4.91041 4.34234 -0.02759
C 4.89523 2.9262 0.0402
C 6.10315 2.1939 0.00572
C 6.09504 0.81354 0.03592
C 4.95999 0.05222 0.00406
C 4.89696 8.47674 0.01364
C 15.92119 17.80502 0.00096
C 14.94178 16.98024 -0.01527
C 14.61877 15.63052 0.01087
C 29.51347 2.88861 -0.01694
C 30.67598 2.1579 0.01428
C 30.697 0.74778 -0.02142
C 29.48582 0.00804 0.0544
C 31.9468 32.73309 0.00026
C 33.19834 32.02015 0.00682
C 33.24802 30.51972 -0.01779
C 31.98806 29.8436 0.03794
C 29.45799 4.27929 0.01713
C 31.90923 28.3999 0.01927
C 33.13761 26.27125 -0.02383
C 31.88889 25.5739 -0.01429
C 31.90818 24.1769 -0.0136
C 33.13154 23.43279 0.00594
C 33.12706 22.0436 -0.02474
C 31.91851 21.32469 0.00369
C 31.8604 19.94993 0.00455
C 33.10834 19.20011 -0.00644
C 33.1143 27.66589 0.01574
C 33.20459 17.8008 -0.01839
C 30.7587 4.98156 0.00346
C 30.71577 19.06099 0.00716
C 28.37289 5.05973 -0.03039
C 27.0639 4.48913 0.01836
C 27.10733 2.93861 0.03531
C 28.30379 2.21743 -0.00669
C 28.23811 0.7701 0.0101
C 27.09821 34.02923 0.01705
C 29.49702 32.64363 -0.0405
C 30.66491 31.96186 -0.01303
C 30.88578 6.35312 0.00307
C 30.70078 30.56567 -0.01461
C 29.52284 28.35948 -0.00944
C 30.67399 27.68992 -0.03735
C 30.65669 26.24919 -0.00971
C 29.45159 25.53738 0.01518
C 29.44877 24.12447 0.01908
C 30.69018 23.4185 0.07705
C 30.661 21.97337 0.0103
C 29.66413 21.12989 0.02108
C 29.52575 29.83885 -0.02155
C 28.53011 21.98095 -0.01415
C 31.91496 17.31495 0.00137
C 33.27005 13.50882 0.04381
C 1.13708 19.08113 -0.01678
C 1.18755 17.66223 0.01223
C 34.40695 17.0061 0.00648
C 34.3445 15.64194 0.02114
C 1.13123 14.86567 -0.02957
C 1.13436 13.39304 0.00343
C 34.25359 12.50931 -0.02656
C 34.37331 11.17339 -0.02442
C 34.28604 19.88897 0.01951
C 1.33732 10.62435 -0.00027
C 0.08827 8.56825 -0.02302
C 0.06034 7.16179 -0.02849
C 1.27445 6.34371 0.02931
C 1.2397 4.90677 0.00628
C 0.00766 4.29404 -0.0345
C 34.40127 2.9289 -0.00931
C 1.18083 2.1618 -0.00939
C 1.20765 0.73456 -0.00468
C 1.35533 9.17121 -0.00583
C 33.1746 14.85968 0.00199
C 34.28923 21.337 -0.02213
C 1.191 23.41094 0.00723
C 33.4187 9.38771 0.02806
C 32.05062 6.98546 0.01504
C 33.26411 6.37722 -0.00069
C 33.19194 4.99369 0.04926
C 32.00981 4.26817 -0.03838
C 31.94848 2.85848 0.00349
C 33.16074 2.14763 -0.00323
C 33.12095 0.7118 -0.00841
C 1.10366 22.07336 0.02712
C 31.93359 0.07477 0.0001
C 1.22956 32.00824 -0.01404
C 1.13747 30.55371 0.01027
C 34.42215 29.83387 0.01831
C 34.38356 28.39415 -0.01037
C 1.13747 27.68606 -0.00439
C 1.18035 26.29683 -0.00598
C 34.34519 25.57368 -0.05239
C 34.37579 24.09854 0.03076
C 0.02228 32.71086 -0.02927
C 3.6577 32.00663 0.01305
C 28.20214 23.26284 -0.01854
C 26.91456 25.4911 0.03265
C 18.39534 23.35476 -0.01971
C 18.5505 21.93955 -0.02118
C 17.31925 21.25335 0.00733
C 17.24101 19.85913 -0.00178
C 17.12341 8.56108 0.00768
C 17.35343 7.25569 -0.0276
C 18.45055 6.45307 0.03005
C 18.38367 5.06482 -0.04078
C 17.13846 24.07836 -0.01586
C 17.18819 4.2809 0.02117
C 18.40358 2.17425 -0.00498
C 18.41056 0.76344 0.00135
C 17.2 34.06369 0.03102
C 19.5597 32.69008 0.02555
C 20.80586 32.01768 0.01423
C 20.82927 30.51344 -0.00285
C 19.58709 29.83082 -0.009
C 19.59633 28.41446 -0.01199
C 17.21579 2.88893 0.02737
C 20.8815 27.75928 -0.00229
C 17.22866 25.53426 -0.01107
C 18.46115 27.58911 -0.00225
C 14.66417 12.815 0.00199
C 14.83983 11.48788 0.01511
C 15.86547 10.59069 -0.00478
C 15.87927 9.21677 -0.01662
C 14.64027 8.52904 -0.01185
C 14.77185 7.10651 0.01126
C 16.01185 6.46778 0.01852
C 16.06952 5.02945 -0.00381
C 18.54415 26.16199 0.00071
C 14.82664 4.30005 0.03046
C 15.96553 2.10351 0.03374
C 15.95645 0.70007 -0.02845
C 14.68486 34.07918 -0.03213
C 17.14841 32.65027 0.02239
C 18.4322 31.92501 0.01153
C 18.39058 30.52309 0.02734
C 17.16472 29.77492 -0.0055
C 17.15711 28.3085 0.01515
C 14.77044 2.85104 0.0296
C 27.12607 24.07964 -0.02049
C 20.83153 26.32745 -0.00938
C 19.56861 24.0871 -0.01154
C 25.82511 30.49568 0.00194
C 24.60698 29.77472 -0.00621
C 24.68271 28.40544 0.02611
C 25.88474 27.70995 0.02198
C 25.67378 26.25315 0.01094
C 25.85947 4.86088 0.00235
C 24.64899 4.2907 0.01495
C 24.71685 2.83364 0.01259
C 25.84103 31.9008 0.04185
C 25.9688 2.16074 0.01799
C 24.66216 0.07752 -0.00416
C 27.04626 32.61841 0.01177
C 28.29601 31.90793 0.04266
C 28.29397 30.54266 0.01324
C 27.098 29.83956 0.0014
C 27.08856 28.42446 0.00924
C 28.32602 27.66491 0.02326
C 28.18212 26.23305 0.00261
C 25.90382 0.71073 0.01699
C 19.82186 25.38222 -0.0264
C 24.5731 32.66274 0.02316
C 23.41074 0.69265 0.00152
C 19.58842 21.10273 0.00684
C 20.81116 5.05393 -0.01052
C 19.63038 4.35956 -0.01679
C 19.58874 2.88418 0.00367
C 20.92261 2.19186 0.04306
C 20.88873 0.72969 0.00996
C 19.6756 0.02264 0.00195
C 22.08107 32.75206 -0.00802
C 22.16207 0.06903 0.01257
C 23.37702 31.98521 -0.00218
C 22.10502 29.90893 -0.00037
C 22.21841 28.39979 -0.0032
C 23.45545 27.6361 0.00622
C 23.66062 26.22875 -0.02815
C 23.39913 4.7778 -0.00942
C 22.06604 4.33499 0.00487
C 22.14443 2.87654 0.00826
C 23.36449 2.12637 -0.00294
C 23.39942 30.55193 -0.01654
C 2.41891 32.7412 0.0276
