377
Graphene
C 34.3248 0.00956 0.01295
C 11.08909 2.16938 0.03542
C 11.06923 0.76975 0.02299
C 9.76571 0.0618 0.00244
C 12.26672 32.76694 -0.01717
C 13.46852 31.9629 0.05265
C 13.52744 30.51597 -0.01952
C 12.35761 29.86576 -0.02813
C 12.35205 28.3621 0.00374
C 13.36406 27.44756 0.00052
C 12.43453 25.77831 -0.03682
C 13.65873 13.46708 0.01965
C 12.42933 12.81882 0.02058
C 12.32369 11.39987 -0.01957
C 13.52005 10.63276 -0.0108
C 13.50395 9.16898 -0.00368
C 12.24297 8.43551 -0.02696
C 12.28747 7.06104 -0.00114
C 13.50667 6.36805 0.00228
C 13.53912 4.89295 0.00798
C 9.87807 2.86323 0.01416
C 9.82218 4.2595 0.01945
C 11.05372 4.91641 -0.01454
C 11.02032 6.36942 0.01241
C 11.09219 32.03123 -0.00428
C 11.11694 30.606 0.03101
C 9.83639 29.92146 -0.01536
C 9.83535 28.50087 -0.02689
C 11.06162 27.76403 -0.01046
C 11.11961 26.2953 -0.00891
C 9.91532 25.59213 0.02819
C 9.76706 24.22687 0.00165
C 9.83164 21.53166 -0.02971
C 12.253 4.3001 0.00422
C 9.73499 20.17129 0.02894
C 10.04711 15.66487 0.00444
C 11.11056 14.79465 -0.00925
C 11.14575 13.43275 0.01877
C 9.89429 12.73936 0.01363
C 9.92163 11.33012 -0.02162
C 11.10013 10.5992 0.00415
C 11.04944 9.19213 -0.0014
C 9.79069 8.55501 0.02162
C 9.80266 7.07375 0.0076
C 9.90486 17.00327 -0.01789
C 9.85141 32.74596 -0.02245
C 12.3361 2.83414 0.0351
C 13.55703 0.73122 0.02098
C 17.12478 12.73483 -0.01979
C 17.14456 11.39464 0.02691
C 18.39454 10.70805 -0.01581
C 18.37865 9.24984 0.01452
C 17.14127 8.4864 0.04892
C 17.14062 7.12184 -0.00111
C 18.34342 6.34059 -0.03557
C 18.4475 4.94234 0.03754
C 17.19322 4.23461 0.01739
C 17.27053 2.8474 0.00755
C 18.50502 2.07679 -0.0054
C 18.45586 0.67671 0.00667
C 17.19956 0.01999 0.00143
C 19.70475 32.54279 -0.017
C 20.8127 31.78449 0.00364
C 21.00136 30.44442 -0.00831
C 20.89372 13.26642 -0.02957
C 19.61369 12.79042 -0.04422
C 19.63448 11.43597 0.00654
C 17.13235 29.81267 0.02188
C 18.16365 30.63644 -0.00316
C 18.42817 31.94114 -0.0331
C 17.19675 32.68778 -0.0258
C 12.26796 0.08078 0.01848
C 14.70312 32.68334 -0.00619
C 15.92652 31.9545 -0.02162
C 15.88913 30.47588 0.00889
C 14.70307 29.74436 -0.00481
C 14.69197 28.19658 0.00979
C 15.97271 27.70381 0.01443
C 14.77183 12.70739 0.03505
C 14.79497 11.2733 -0.02815
C 13.5566 2.11684 -0.03113
C 16.00534 10.58064 -0.04147
C 14.69564 8.44318 0.00213
C 14.6671 7.06496 -0.00066
C 15.88737 6.41983 -0.00289
C 16.00469 4.97399 0.00028
C 14.81118 4.20859 -0.02213
C 14.85043 2.81072 0.03698
C 16.12024 2.10738 -0.00109
C 16.00644 0.75764 -0.00491
C 14.75945 0.03661 0.03338
C 15.9039 9.21647 -0.05302
C 7.28168 0.06094 0.00985
C 8.48787 0.80326 -0.01275
C 8.55649 2.12417 -0.01111
C 3.63299 4.99906 0.00988
C 2.40496 4.2517 0.0276
C 2.42168 2.80202 0.01305
C 3.6709 2.13378 -0.00077
C 3.61696 0.75518 0.03368
C 2.40812 0.00501 -0.02929
C 4.90195 32.71163 -0.00966
C 6.09673 32.00743 -0.03337
C 6.15887 30.56758 0.01227
C 4.94529 29.87363 0.00873
C 4.92741 28.37945 -0.00049
C 6.16207 27.75171 0.00848
C 6.17085 26.30291 -0.01303
C 4.89302 25.63946 -0.01378
C 4.87245 24.12025 0.02635
C 6.12647 23.46437 0.0127
C 6.0711 21.99349 0.01396
C 4.86826 21.29452 0.01849
C 5.0143 19.86426 -0.01142
C 3.64921 6.37496 -0.01343
C 2.4201 7.12793 0.01087
C 2.39343 8.50849 -0.05697
C 3.64533 9.28746 -0.00725
C 3.65627 30.4939 0.03267
C 2.41369 29.89765 0.02374
C 2.46604 28.45254 0.00402
C 3.65837 27.71445 0.0073
C 3.68197 26.3599 0.0174
C 2.4812 25.61508 0.03828
C 2.46598 24.10742 0.01226
C 3.57035 23.39196 -0.00279
C 3.66139 21.97231 0.01996
C 6.22075 19.18493 -0.00562
C 2.40956 21.34562 -0.03996
C 3.68431 19.16992 -0.00074
C 3.67409 17.76712 -0.00518
C 2.49478 17.0984 0.0086
C 2.43967 15.70271 -0.00643
C 3.6564 15.02624 0.017
C 3.72067 13.52314 -0.03113
C 2.43683 12.79482 -0.02566
C 2.44425 11.39026 -0.00094
C 3.6746 10.74903 0.02322
C 2.41626 19.90038 0.01465
C 6.19377 17.74153 -0.00494
C 4.89357 17.10314 0.00054
C 4.89005 15.71395 0.03007
C 8.6117 23.54511 0.00438
C 8.54872 22.17777 0.01291
C 7.44674 21.38945 0.00093
C 7.49234 19.94651 0.00057
C 8.77251 19.1765 -0.01634
C 8.76583 17.66202 -0.00334
C 7.4998 17.0933 0.02339
C 7.44281 15.61732 0.01641
C 8.751 14.85117 -0.00719
C 7.37468 24.2435 -0.00191
C 8.66687 13.44654 0.01364
C 7.34882 11.36323 -0.00033
C 8.59938 10.68121 0.03589
C 8.53418 9.27239 -0.02759
C 7.34239 8.57349 0.0402
C 7.3393 7.11004 0.00572
C 8.53634 6.43364 0.03592
C 8.56469 4.98469 0.00406
C 7.33541 4.27901 0.00943
C 7.35014 2.89755 0.02841
C 7.45813 12.80807 -0.01062
C 20.86467 10.68277 -0.00703
C 7.3855 25.61944 0.00373
C 8.63352 27.74159 -0.014
C 6.12306 14.91265 -0.00095
C 6.18369 13.50776 0.01572
C 4.93036 12.82428 -0.04848
C 4.92795 11.44749 -0.00892
C 6.06111 10.72051 -0.01362
C 6.09548 9.31796 -0.0008
C 4.8679 8.58917 0.0288
C 4.86907 7.16118 0.00393
C 6.13697 6.45337 0.00895
C 8.67829 26.28947 0.02147
C 6.11951 5.0307 0.00685
C 4.85393 2.95214 -0.00482
C 6.11006 2.20979 -0.01384
C 6.1076 0.80579 0.03693
C 4.83324 0.02489 0.01745
C 7.30026 32.7465 0.00488
C 8.56483 32.01763 -0.01004
C 8.62263 30.61454 -0.02896
C 7.39026 29.89897 -0.00131
C 7.41708 28.47651 -0.01118
C 4.87281 4.3036 0.02888
C 3.63429 31.95288 -0.01509
C 20.82196 9.3178 -0.04076
C 19.61354 7.12334 0.0058
C 30.73919 2.14809 0.00716
C 30.70666 0.7527 0.00307
C 29.50113 0.03077 0.00346
C 31.89335 32.68193 0.01713
C 33.19099 31.9762 -0.01694
C 33.20132 30.55186 0.01428
C 31.98551 29.84806 -0.02142
C 31.89725 28.44943 0.0544
C 33.12795 27.79824 0.00026
C 33.22079 26.30603 0.00682
C 31.97848 25.6037 -0.01779
C 31.9794 24.23624 0.03794
C 33.18571 23.50726 0.01927
C 33.12331 22.09024 0.01574
C 32.00157 21.24876 -0.02383
C 31.96584 19.88229 -0.01429
C 33.15479 19.16202 -0.0136
C 33.16176 17.73886 0.00594
C 31.98037 17.02482 -0.02474
C 29.46492 2.8666 0.02108
C 29.49107 4.28265 0.0103
C 30.75389 4.97779 0.07705
C 30.7459 6.397 0.01908
C 30.69543 27.66805 0.02326
C 30.71854 26.28743 0.00261
C 29.52397 25.60825 0.03265
C 29.47693 24.12194 -0.02049
C 30.69997 23.44062 -0.01854
C 30.68222 21.95233 -0.01415
C 29.48196 21.28522 -0.03039
C 29.54749 19.82764 0.01836
C 30.75116 19.16201 0.03531
C 31.90824 15.59181 0.00369
C 30.79887 17.72255 -0.00669
C 29.41805 15.63064 0.01705
C 30.69276 14.90104 -0.0405
C 30.75073 13.4897 -0.01303
C 29.48833 12.84994 -0.01461
C 29.54417 11.40657 -0.02155
C 30.78051 10.64982 -0.00944
C 30.71074 9.29789 -0.03735
C 29.44735 8.55866 -0.00971
C 29.46495 7.1075 0.01518
C 29.47526 17.09645 0.0101
C 29.44164 28.38924 0.00924
C 33.18497 15.00148 0.00455
C 31.98352 12.84291 -0.01839
C 34.35583 19.87357 0.01951
C 1.20392 19.19584 -0.01678
C 1.22872 17.73332 0.01223
C 0.01539 17.02775 0.00648
C 0.02516 15.65789 0.02114
C 1.27653 14.971 -0.02957
C 1.24236 13.58672 0.00343
C 0.00669 12.79557 -0.02656
C 0.02051 11.41383 -0.02442
C 1.27313 10.70792 -0.00027
C 1.25194 9.21888 -0.00583
C 34.43186 8.50476 -0.02302
C 34.4093 7.08549 -0.02849
C 1.20107 6.40938 0.02931
C 1.24435 4.97724 0.00628
C 34.39122 4.2477 -0.0345
C 34.33946 2.82773 -0.00931
C 1.1835 2.11807 -0.00939
C 1.17233 0.67621 -0.00468
C 34.30592 21.32374 -0.02213
C 1.11494 22.03544 0.02712
C 1.20128 23.46501 0.00723
C 34.41308 24.14908 0.03076
C 32.02149 11.37774 0.00137
C 33.21966 10.68957 0.00199
C 33.20671 9.28323 0.04381
C 32.02066 8.47599 0.02806
C 32.01016 7.07984 0.01504
C 33.20914 6.35765 -0.00069
C 33.14562 5.00303 0.04926
C 31.94161 4.23679 -0.03838
C 31.97638 2.8508 0.00349
C 33.23101 13.5712 -0.00644
C 33.10757 2.13416 -0.00323
C 31.88903 0.08385 0.0001
C 34.3826 32.67349 -0.02927
C 1.20358 31.97338 -0.01404
C 1.21198 30.55969 0.01027
C 34.4131 29.87246 0.01831
C 34.38635 28.51288 -0.01037
C 1.18554 27.73115 -0.00439
C 1.2729 26.30262 -0.00598
C 0.035 25.57027 -0.05239
C 33.1003 0.76121 -0.00841
C 29.53102 29.83288 0.0014
C 30.77038 30.56324 0.01324
C 30.73617 31.91627 0.04266
C 22.15694 2.81806 -0.02845
C 23.37693 2.03257 -0.03213
C 23.37292 0.62969 0.02239
C 22.12924 33.88861 0.01153
C 24.60996 32.57951 0.02734
C 25.86934 31.92732 -0.0055
C 25.88107 30.50894 0.01515
C 24.6782 29.74044 -0.00225
C 24.69712 28.39506 0.00071
C 25.86454 27.58488 -0.01107
C 25.70753 26.16617 -0.01586
C 24.38572 25.42775 -0.01971
C 24.59655 24.03496 -0.02118
C 25.67698 23.26896 0.00733
C 25.9533 21.89736 -0.00178
C 25.70553 19.20206 0.00768
C 25.46763 17.90336 -0.0276
C 24.48746 17.01082 0.03005
C 24.40471 15.61297 -0.04078
C 22.11889 4.23968 0.03374
C 23.35276 4.95791 0.0296
C 23.24248 6.35812 0.03046
C 22.06596 7.10489 -0.00381
C 20.81496 6.40119 -0.00865
C 20.90048 4.96176 0.00675
C 19.65794 4.18292 -0.00311
C 19.6849 2.75231 0.00742
C 20.93219 2.074 -0.01594
C 20.94788 0.64836 0.0106
C 19.72766 34.0328 -0.01154
C 22.05682 32.4499 -0.01721
C 23.40281 31.88006 -0.02422
C 25.75211 14.94364 0.02117
C 23.48994 30.41357 0.01277
C 23.58148 27.551 -0.01527
C 23.30675 26.25296 0.01087
C 23.25436 14.82369 0.00199
C 23.39973 13.41524 0.01511
C 22.16585 12.78527 -0.00478
C 22.1308 11.37136 -0.01662
C 23.37632 10.66109 -0.01185
C 23.27004 9.21565 0.01126
C 21.94323 8.54149 0.01852
C 22.18931 29.86255 0.00096
C 25.77926 13.4904 0.02737
C 24.6299 12.69784 -0.00498
C 24.61244 11.36868 0.00135
C 28.31931 19.14363 -0.00942
C 28.19144 17.75736 0.00487
C 26.91876 17.13683 0.00826
C 26.95822 15.7577 -0.00294
C 28.19848 14.95019 0.00152
C 28.29932 13.55559 0.01257
C 27.02309 12.81247 0.02316
C 27.05313 11.38499 0.04185
C 28.26886 10.61115 0.00194
C 27.04152 19.7861 -0.02815
C 28.24512 9.20409 -0.00621
C 26.97455 7.09984 0.02198
C 28.21663 6.39732 0.01094
C 28.27163 5.00537 0.00235
C 27.02108 4.25757 0.01495
C 27.01182 2.85872 0.01259
C 28.21541 2.12015 0.01799
C 28.24261 0.71183 0.01699
C 27.04931 0.04599 -0.00416
C 29.42104 32.68414 0.01177
C 27.11083 8.49178 0.02611
C 19.66196 8.55934 -0.00652
C 27.06293 21.24313 0.00622
C 28.26774 23.34412 -0.00037
C 25.8361 10.6552 0.03102
C 25.83602 9.19215 0.02555
C 24.52814 8.52405 0.01423
C 24.51387 7.0626 -0.00285
C 25.7872 6.43892 -0.009
C 25.81261 4.92442 -0.01199
C 24.5269 4.23329 -0.00229
C 24.6567 2.77948 -0.00938
C 25.8302 2.07195 -0.0264
C 28.28636 21.97566 -0.0032
C 25.82249 0.69509 -0.01154
C 27.03216 32.69192 -0.01052
C 28.26081 31.92012 -0.01679
C 28.21406 30.46994 0.00367
C 27.08461 29.74502 0.04306
C 27.06624 28.35462 0.00996
C 28.24047 27.60217 0.00195
C 28.25418 26.16221 -0.00802
C 26.98631 25.41352 -0.00218
C 27.00636 23.98682 -0.01654
C 24.56775 33.97617 0.00684
C 2.41322 32.68238 0.00643
