285
Graphene
C 0.01138 0.02438 0.01295
C 12.34525 28.36393 0.0106
C 12.28205 29.8353 -0.01594
C 13.53081 30.55372 0.00742
C 13.54382 31.9285 -0.00311
C 12.35343 32.70216 0.00675
C 9.85041 0.00678 -0.00865
C 11.02718 0.67762 0.0058
C 11.06305 2.12322 -0.00652
C 9.83094 2.74065 -0.04076
C 9.82531 4.21217 -0.00703
C 11.11326 5.00546 0.00654
C 11.08173 6.3908 -0.04422
C 9.86001 7.08911 -0.02957
C 11.15237 23.4374 -0.00831
C 9.82135 24.22152 0.00364
C 9.85374 25.53783 -0.017
C 11.07017 26.20657 0.00143
C 7.3099 7.0977 -0.00316
C 8.65907 6.34084 0.02188
C 8.58878 4.94195 -0.01979
C 7.35977 4.31949 0.02691
C 7.38833 2.81609 -0.01581
C 8.58706 2.16436 0.01452
C 13.4648 27.73824 -0.01154
C 8.63568 0.73093 0.04892
C 9.85536 32.65618 -0.03557
C 11.10797 31.96777 0.03754
C 11.09454 30.52241 0.01739
C 9.81424 29.82613 0.00755
C 9.8693 28.38856 -0.0054
C 11.09231 27.70659 0.00667
C 7.4066 0.07652 -0.00111
C 13.49001 26.28377 -0.01721
C 12.27073 25.60371 -0.02422
C 12.29496 24.06095 0.01277
C 15.96516 4.9439 0.02734
C 14.77117 4.26738 -0.0055
C 14.81651 2.83861 0.01515
C 15.96307 2.09753 -0.00225
C 15.95744 0.75675 0.00071
C 14.7681 34.03187 -0.01107
C 15.98291 6.37719 0.01153
C 17.23028 32.638 -0.01586
C 18.48899 30.52972 -0.02118
C 17.21562 29.83384 0.00733
C 17.22548 28.37507 -0.00178
C 17.14713 25.60583 0.00768
C 17.20445 24.22661 -0.0276
C 17.16445 7.03544 0.03005
C 18.46575 31.92441 -0.01971
C 7.37355 8.53977 -0.0331
C 14.76112 24.16705 0.02239
C 15.96052 26.27263 -0.02845
C 12.29614 7.07155 0.00096
C 13.49689 6.38766 -0.01527
C 13.58574 5.00703 0.01087
C 12.30623 4.22154 0.00199
C 12.30614 2.83337 0.01511
C 13.5386 2.12326 -0.00478
C 14.77631 25.50935 -0.03213
C 13.47016 0.71221 -0.01662
C 14.76676 32.62015 0.01126
C 15.99796 31.88523 0.01852
C 16.00067 30.48667 -0.00381
C 14.74709 29.83713 0.03046
C 14.72779 28.39745 0.0296
C 15.9501 27.68513 0.03374
C 12.23361 0.03184 -0.01185
C 7.39555 21.35363 -0.0258
C 8.53725 22.00231 0.03338
C 8.63757 23.37957 -0.00491
C 2.46698 11.34457 -0.02162
C 3.6752 10.6695 0.00415
C 3.70752 9.26532 -0.0014
C 2.5077 8.54171 0.02162
C 2.45986 7.08555 0.0076
C 3.69354 6.35068 0.01241
C 2.44659 12.75305 0.01363
C 3.68415 4.9491 -0.01454
C 2.48407 2.88882 0.01416
C 3.6558 2.13035 0.03542
C 3.69325 0.71824 0.02299
C 2.44178 0.01084 0.00244
C 4.92194 32.64349 -0.01717
C 6.1182 31.93694 0.05265
C 2.45124 4.29046 0.01945
C 6.16855 30.49149 -0.01952
C 3.66634 13.4812 0.01877
C 2.4464 15.57232 0.00444
C 3.66103 30.54047 -0.01275
C 2.47175 29.80778 0.00985
C 2.41999 28.3923 -0.02245
C 3.69611 27.68705 -0.00428
C 3.73248 26.28558 0.03101
C 2.4229 25.58892 -0.01536
C 3.70397 14.87644 -0.00925
C 2.4343 24.14852 -0.02689
C 3.71102 22.01681 -0.00891
C 2.47801 21.33934 0.02819
C 2.47826 19.84424 0.00165
C 3.66786 19.19531 -0.02971
C 3.66095 17.7677 0.02894
C 2.42347 17.04918 -0.01789
C 3.69815 23.45161 -0.01046
C 18.41697 6.43087 -0.04078
C 4.92412 29.76827 -0.02813
C 6.14645 27.70669 0.00052
C 4.91774 4.28001 -0.00481
C 4.90572 2.84501 0.00979
C 6.10574 2.20001 0.01443
C 6.15551 0.7224 0.03505
C 4.91279 34.05117 -0.02815
C 7.37252 32.67335 -0.04147
C 6.10629 5.01316 0.00889
C 8.63377 31.92235 -0.05302
C 7.41333 29.82617 -0.00066
C 7.36523 28.38926 -0.00289
C 8.70635 27.66622 0.00028
C 8.6319 26.25747 -0.02213
C 7.33241 25.54933 0.03698
C 7.34882 24.17776 -0.00109
C 8.60097 30.52643 0.00213
C 4.94703 28.37029 0.00374
C 6.11925 6.42792 -0.02162
C 4.9625 8.49528 0.01848
C 6.14233 26.25248 -0.03682
C 4.96684 25.54688 0.01965
C 4.85367 24.08548 0.02058
C 6.12354 23.49107 -0.01957
C 6.11801 22.04445 -0.0108
C 4.91608 21.30792 -0.00368
C 4.94999 7.13996 -0.00619
C 4.93611 19.78252 -0.02696
C 4.95047 17.04682 0.00228
C 4.93481 15.67905 0.00798
C 4.87595 12.8322 0.00422
C 4.92817 11.34993 0.0351
C 6.08627 10.57375 -0.03113
C 6.14722 9.20918 0.02098
C 6.17971 19.16722 -0.00114
C 3.68811 31.92209 -0.01111
C 18.43042 5.00504 0.02117
C 17.25484 2.91405 -0.00498
C 33.17429 4.97544 0.04926
C 33.24255 6.38838 -0.00069
C 32.00846 7.11012 0.01504
C 31.99509 8.5446 0.02806
C 33.15585 9.15155 0.04381
C 33.1693 10.62447 0.00199
C 31.92625 11.34907 0.00137
C 31.91387 12.735 -0.01839
C 33.22487 13.46587 -0.00644
C 33.20395 14.90395 0.00455
C 31.97813 15.62082 0.00369
C 32.00298 17.00246 -0.02474
C 33.16991 17.781 0.00594
C 33.19382 19.20506 -0.0136
C 31.97843 19.88602 -0.01429
C 33.22701 22.00839 -0.02383
C 33.22735 30.52078 0.01574
C 29.54597 11.3983 0.02108
C 30.73446 10.63313 0.00716
C 30.72049 9.24637 0.00307
C 29.5538 8.49426 0.00346
C 29.50125 7.12665 0.01713
C 30.74142 6.41661 -0.01694
C 32.00267 4.30471 -0.03838
C 30.71536 5.03478 0.01428
C 29.51714 2.86911 0.0544
C 30.76141 2.15742 0.00026
C 30.67537 0.70667 0.00682
C 29.51905 0.02821 -0.01779
C 32.00169 32.67016 0.03794
C 33.22122 31.9099 0.01927
C 29.49999 4.28398 -0.02142
C 31.95766 2.90539 0.00349
C 33.20736 2.12657 -0.00323
C 33.15386 0.6866 -0.00841
C 1.19087 14.93429 -0.02957
C 1.23151 13.47104 0.00343
C 0.02127 12.74561 -0.02656
C 34.37079 11.40369 -0.02442
C 1.19146 10.69143 -0.00027
C 1.27388 9.27896 -0.00583
C 0.00286 15.57287 0.02114
C 34.42067 8.54108 -0.02302
C 1.17253 6.36313 0.02931
C 1.22421 4.95294 0.00628
C 34.41201 4.26305 -0.0345
C 34.37077 2.82673 -0.00931
C 1.21382 2.1453 -0.00939
C 1.2305 0.66419 -0.00468
C 0.00343 7.14395 -0.02849
C 29.45512 12.77051 0.0103
C 0.00659 17.04977 0.00648
C 1.23859 19.15641 -0.01678
C 31.96131 34.07599 0.0001
C 34.42873 32.6827 -0.02927
C 1.2615 31.96307 -0.01404
C 1.25751 30.56791 0.01027
C 34.39728 29.79713 0.01831
C 0.00614 28.42208 -0.01037
C 1.20741 17.74248 0.01223
C 1.17506 27.71625 -0.00439
C 0.03896 25.55263 -0.05239
C 0.00073 24.13648 0.03076
C 1.26358 23.42123 0.00723
C 1.21506 22.04141 0.02712
C 34.41246 21.326 -0.02213
C 0.01595 19.88484 0.01951
C 1.22131 26.26867 -0.00598
C 30.73692 13.48731 0.07705
C 30.73877 14.94825 0.01908
C 29.55211 15.65535 0.01518
C 22.14973 11.33628 -0.00802
C 23.39314 10.63871 -0.00218
C 23.37878 9.24819 -0.01654
C 22.13191 8.54692 -0.00037
C 22.15232 7.07428 -0.0032
C 23.31516 6.39353 0.00622
C 22.18754 12.69386 0.00195
C 23.33263 4.91231 -0.02815
C 22.0983 2.85068 0.00487
C 23.3224 2.11453 0.00826
C 23.31958 0.73677 -0.00294
C 22.11692 34.0785 0.00152
C 24.59714 17.01193 0.01257
C 24.61085 15.59164 0.02316
C 22.13389 4.28274 -0.00942
C 25.8857 14.87944 0.04185
C 23.33524 13.4447 0.00996
C 23.38821 17.76364 0.00367
C 18.48792 2.12844 0.00135
C 18.41885 0.68723 0.03102
C 17.20949 34.04484 0.02555
C 19.66922 32.68377 0.01423
C 20.87925 9.20216 -0.00285
C 19.72725 8.59224 -0.009
C 23.38795 14.91947 0.04306
C 19.70978 7.13241 -0.01199
C 20.89249 5.01272 -0.00938
C 19.67175 4.27949 -0.0264
C 19.69612 2.84974 -0.01154
C 20.93526 2.16438 0.00684
C 20.93255 0.67434 -0.01052
C 19.6808 34.02721 -0.01679
C 20.89211 6.43719 -0.00229
C 17.22951 4.28793 0.02737
C 25.85826 13.5347 0.00194
C 24.57339 11.31299 0.02611
C 28.25359 10.65218 -0.01415
C 28.30633 9.24272 -0.03039
C 27.11985 8.50513 0.01836
C 27.00228 7.06222 0.03531
C 28.24592 6.38074 -0.00669
C 28.26471 4.93193 0.0101
C 27.03111 11.36045 -0.01854
C 27.04718 4.20648 0.01705
C 28.29289 2.19104 -0.01303
C 28.27953 0.74659 -0.01461
C 27.07773 0.01177 -0.02155
C 30.79466 19.15466 -0.00944
C 30.69908 17.75484 -0.03735
C 29.45533 17.0558 -0.00971
C 27.0819 2.86069 -0.0405
C 24.63132 12.74965 -0.00621
C 27.05969 12.73417 -0.02049
C 28.2442 14.93274 0.00261
C 25.82872 10.66664 0.02198
C 25.83903 9.27052 0.01094
C 24.58038 8.53391 0.00235
C 24.555 7.09004 0.01495
C 25.8208 6.42754 0.01259
C 25.84011 4.96118 0.01799
C 28.28444 13.47388 0.03265
C 24.57215 4.22678 0.01699
C 25.78744 2.12368 0.01177
C 25.83405 0.68555 0.04266
C 24.57148 0.08436 0.01324
C 28.25586 17.6738 0.0014
C 27.08196 17.00558 0.00924
C 27.01801 15.59577 0.02326
C 24.58909 2.84578 -0.00416
C 2.48674 32.67931 0.02841
