400
Graphene
C 0.01256 0.03444 0.01295
C 12.35394 2.82976 0.00165
C 13.48382 2.18965 -0.02971
C 13.51703 0.75123 0.02894
C 12.31374 34.06941 -0.01789
C 14.79355 32.70183 0.00444
C 16.01529 31.98001 -0.00925
C 15.93402 30.47279 0.01877
C 14.71447 29.81012 0.01363
C 15.96428 17.5878 -0.02162
C 14.72931 17.04799 0.00415
C 14.81947 15.64173 -0.0014
C 16.02444 14.87283 0.02162
C 16.02894 13.45256 0.0076
C 14.80312 12.75871 0.01241
C 14.73209 11.42913 -0.01454
C 15.98099 10.61764 0.01945
C 15.96635 9.17389 0.01416
C 14.697 8.48357 0.03542
C 14.83115 7.03911 0.02299
C 15.96471 6.35831 0.00244
C 15.96261 4.99539 -0.01717
C 12.32134 4.22309 0.02819
C 14.73434 4.29699 0.05265
C 13.47225 5.03346 -0.00891
C 12.32673 7.14502 -0.02689
C 11.10254 6.42437 0.02339
C 11.10915 5.00178 0.01641
C 9.87541 4.28494 -0.00719
C 9.82927 2.87156 0.01364
C 11.08787 2.14977 -0.01062
C 11.09075 0.74967 -0.00033
C 9.842 0.08639 0.03589
C 12.25671 32.6679 -0.02759
C 13.51428 32.03292 0.0402
C 13.5399 30.45211 0.00572
C 12.28034 29.84372 0.03592
C 13.54073 17.78494 0.00406
C 12.37955 17.04346 0.00943
C 12.26564 15.56566 0.02841
C 13.51674 14.95066 -0.01111
C 13.54928 13.46736 -0.01275
C 12.23405 12.78134 0.00985
C 12.31416 11.35315 -0.02245
C 13.60149 10.66739 -0.00428
C 13.5173 9.25641 0.03101
C 12.31364 8.52623 -0.01536
C 13.51545 6.49649 -0.01046
C 9.83614 7.14178 -0.00334
C 14.73454 2.76931 -0.01952
C 15.99252 0.66912 0.00374
C 19.68089 32.72396 -0.05302
C 20.89923 31.92583 0.00213
C 20.8609 30.5379 -0.00066
C 19.6684 29.84232 -0.00289
C 19.70647 28.3721 0.00028
C 20.98864 27.75881 -0.02213
C 20.89566 26.22886 0.03698
C 19.70997 25.516 -0.00109
C 20.92467 23.41508 -0.00491
C 20.91389 21.95961 0.03338
C 19.639 21.29299 -0.0258
C 19.61871 19.86629 -0.0331
C 20.90729 19.12555 -0.00316
C 20.92842 17.72242 0.02188
C 19.6725 17.08184 -0.01979
C 19.63776 15.62939 0.02691
C 20.8677 14.92943 -0.01581
C 20.83903 13.53743 0.01452
C 19.65671 12.81353 0.04892
C 19.66396 11.37311 -0.00111
C 20.9284 10.60341 -0.03557
C 17.24398 0.00346 -0.04147
C 15.99439 2.13807 -0.02813
C 18.44706 0.74927 -0.02815
C 17.26087 2.85876 0.01443
C 14.74595 0.01289 0.00052
C 17.24089 32.62579 -0.03682
C 18.4307 31.92507 0.01965
C 18.42663 30.5078 0.02058
C 17.26807 29.85224 -0.01957
C 18.42824 27.71191 -0.0108
C 18.41593 19.15395 -0.00368
C 18.40763 17.76448 -0.02696
C 17.20453 17.02621 -0.00114
C 17.16123 15.62213 0.00228
C 18.43738 14.93911 0.00798
C 18.46579 13.48117 0.00422
C 17.19738 12.74156 0.0351
C 17.20249 11.27883 -0.03113
C 18.41084 10.61464 0.02098
C 18.46287 9.19189 0.01848
C 17.17196 8.50248 -0.00619
C 17.2378 7.09323 -0.02162
C 18.48947 6.419 0.00889
C 18.40395 5.0309 -0.00481
C 17.23237 4.23135 0.00979
C 18.41974 2.13568 0.03505
C 20.90108 9.22804 0.03754
C 9.84103 8.57387 -0.01634
C 11.08507 10.58083 0.00093
C 2.46503 2.87343 0.00402
C 3.66553 2.14854 0.0073
C 3.64907 0.70966 0.0174
C 2.44842 0.0028 0.03828
C 4.91421 32.69887 0.01226
C 6.14744 31.93633 -0.00279
C 4.9282 25.61961 0.01996
C 4.93805 24.1729 -0.03996
C 6.16259 23.44295 0.01465
C 6.09402 22.09008 -0.00074
C 4.94739 21.32189 -0.00518
C 4.93062 19.86455 0.0086
C 6.12173 19.16285 -0.00643
C 6.10589 17.78368 0.017
C 4.96944 16.98782 -0.03113
C 4.9752 15.63097 -0.02566
C 6.12692 14.8833 -0.00094
C 6.21725 13.45004 0.02322
C 4.93576 12.75137 -0.00725
C 4.84164 11.33819 -0.05697
C 6.10858 10.75153 0.01087
C 2.47402 4.27322 0.02374
C 6.17967 9.21926 -0.01343
C 3.67799 4.9958 0.03267
C 2.50609 7.09547 0.00643
C 3.63533 30.50465 0.0064
C 2.53095 29.75928 0.00211
C 2.36138 28.30494 -0.00449
C 3.69489 26.3219 -0.01979
C 2.42072 25.60667 0.02784
C 2.42622 24.15439 -0.01977
C 3.71893 23.46777 -0.00561
C 3.70777 21.93886 0.00208
C 2.49875 21.33164 0.01707
C 2.5071 19.94147 0.02769
C 3.71472 19.19983 -0.03291
C 3.6882 17.73042 -0.04999
C 2.42395 16.97443 0.04505
C 2.4399 15.57459 0.03284
C 3.72324 14.8948 -0.04307
C 3.69936 13.44 0.03189
C 2.45372 12.82017 0.00031
C 2.4519 11.43656 -0.003
C 3.62759 10.66846 0.01402
C 3.73846 9.24234 0.02379
C 2.52038 8.52969 0.00907
C 3.70417 6.43772 -0.01509
C 11.04208 9.12537 0.00057
C 4.90523 8.51161 0.00988
C 6.09898 6.43555 0.01305
C 8.53262 10.60684 -0.0008
C 8.61623 9.23834 0.0288
C 7.37704 8.55754 0.00393
C 7.36185 7.13985 0.00895
C 8.64221 6.34514 0.00685
C 8.59843 4.99118 0.02888
C 7.35975 4.28838 -0.00482
C 7.39788 2.85575 -0.01384
C 8.5969 2.11323 0.03693
C 8.61313 0.71518 0.01745
C 7.39543 0.049 0.00488
C 9.82505 32.67109 -0.01004
C 11.02127 32.02578 -0.02896
C 9.88414 19.87778 -0.00131
C 11.07529 17.78033 -0.01118
C 9.83992 17.07837 -0.014
C 9.85282 15.67801 0.02147
C 11.02039 15.00664 0.00373
C 11.05034 13.55168 -0.00191
C 9.86503 12.80079 0.00438
C 9.76415 11.36219 0.01291
C 7.36792 11.39794 -0.01362
C 4.9106 7.10871 0.0276
C 7.40043 12.7568 -0.00892
C 8.57216 14.9461 0.01572
C 6.11375 5.03884 -0.00077
C 4.93772 4.27694 0.03368
C 4.8715 2.83675 -0.02929
C 6.10514 2.16759 -0.00966
C 6.13159 0.68785 -0.03337
C 4.935 34.06845 0.01227
C 7.32303 32.72472 0.00873
C 8.56985 31.95377 -0.00049
C 8.65418 30.61694 0.00848
C 8.66953 27.60589 -0.01303
C 8.54722 26.34821 -0.01378
C 7.37273 25.55959 0.02635
C 7.40074 24.1537 0.0127
C 8.57697 23.40467 0.01396
C 8.50452 22.08632 0.01849
C 7.35285 21.30266 -0.01142
C 7.3428 19.81121 -0.00562
C 8.63948 19.21266 -0.00494
C 8.55238 17.73794 0.00054
C 7.3831 17.0758 0.03007
C 7.36432 15.58571 -0.00095
C 8.5939 13.49011 -0.04848
C 19.68124 8.53248 0.01739
C 19.71865 7.09741 0.00755
C 20.92993 6.43149 -0.0054
C 29.49593 7.07807 0.01518
C 30.73647 6.40624 0.01908
C 30.72098 4.9813 0.07705
C 29.45087 4.3122 0.0103
C 29.56716 2.83745 0.02108
C 30.76588 2.07916 0.00716
C 30.80244 0.66153 0.00307
C 29.5065 0.00418 0.00346
C 31.96582 32.67627 0.01713
C 33.21901 31.9514 -0.01694
C 33.19002 30.51716 0.01428
C 31.97152 29.80089 -0.02142
C 31.97148 28.42351 0.0544
C 33.25248 27.74002 0.00026
C 33.20146 26.20492 0.00682
C 32.00337 25.51925 -0.01779
C 31.99987 24.1536 0.03794
C 33.20769 23.45715 0.01927
C 33.21151 21.95809 0.01574
C 31.93763 21.32073 -0.02383
C 32.02004 19.84892 -0.01429
C 29.46556 8.47419 -0.00971
C 33.18542 19.20523 -0.0136
C 30.70337 9.21034 -0.03735
C 29.48055 11.39031 -0.02155
C 27.04286 34.07599 -0.00416
C 29.5272 32.60178 0.01177
C 30.78105 31.92902 0.04266
C 30.7499 30.55331 0.01324
C 29.57643 29.79437 0.0014
C 29.52163 28.3136 0.00924
C 30.77169 27.67398 0.02326
C 30.76963 26.22722 0.00261
C 29.46573 25.52695 0.03265
C 29.51797 24.08896 -0.02049
C 30.754 23.45231 -0.01854
C 30.74655 22.04574 -0.01415
C 29.55617 21.37295 -0.03039
C 29.50526 19.87802 0.01836
C 30.78247 19.21263 0.03531
C 30.70689 17.76881 -0.00669
C 29.50322 17.03428 0.0101
C 29.5164 15.60255 0.01705
C 30.79937 14.95042 -0.0405
C 30.77332 13.49409 -0.01303
C 29.48239 12.75025 -0.01461
C 30.74002 10.67922 -0.00944
C 28.28849 0.71198 0.01699
C 33.22517 17.81809 0.00594
C 31.96579 15.53698 0.00369
C 1.18033 22.0017 0.02712
C 34.42288 21.29074 -0.02213
C 0.06282 19.88468 0.01951
C 1.18694 19.1483 -0.01678
C 1.17383 17.74843 0.01223
C 34.41069 16.98693 0.00648
C 34.39255 15.59946 0.02114
C 1.20658 14.8585 -0.02957
C 1.22753 13.54625 0.00343
C 0.01148 12.81188 -0.02656
C 34.41935 11.35703 -0.02442
C 1.22091 10.65716 -0.00027
C 1.18464 9.20532 -0.00583
C 34.36416 8.53778 -0.02302
C 0.00237 7.11877 -0.02849
C 1.26136 6.33169 0.02931
C 1.22971 4.942 0.00628
C 34.38698 4.28054 -0.0345
C 0.01032 2.85323 -0.00931
C 1.24556 2.2028 -0.00939
C 1.21648 0.73608 -0.00468
C 1.18497 23.43285 0.00723
C 31.97959 17.08165 -0.02474
C 0.0077 24.15672 0.03076
C 1.23589 26.26942 -0.00598
C 33.1898 14.85258 0.00455
C 33.19782 13.46228 -0.00644
C 31.9522 12.79546 -0.01839
C 31.95026 11.42101 0.00137
C 33.18832 10.59695 0.00199
C 33.1789 9.20081 0.04381
C 31.90857 8.51552 0.02806
C 31.96568 7.13259 0.01504
C 33.23565 6.39654 -0.00069
C 33.13549 4.91568 0.04926
C 31.93182 4.26447 -0.03838
C 31.99532 2.84845 0.00349
C 33.18859 2.07696 -0.00323
C 33.17481 0.71355 -0.00841
C 32.00489 34.03266 0.0001
C 0.01511 32.6577 -0.02927
C 1.26654 31.9673 -0.01404
C 1.20611 30.51152 0.01027
C 0.0175 29.76641 0.01831
C 34.42348 28.38346 -0.01037
C 1.20702 27.67091 -0.00439
C 0.01001 25.57659 -0.05239
C 28.33824 2.10478 0.01799
C 27.04826 2.87397 0.01259
C 26.98022 4.25005 0.01495
C 22.06832 12.74435 0.00199
C 22.12134 11.28399 0.01511
C 23.32803 10.66328 -0.00478
C 23.39583 9.21756 -0.01662
C 22.1648 8.50656 -0.01185
C 22.06149 7.10087 0.01126
C 23.29955 6.31565 0.01852
C 23.36621 4.94881 -0.00381
C 22.14547 4.22866 0.03046
C 22.18863 2.79462 0.0296
C 23.41839 2.0731 0.03374
C 23.40648 0.68556 -0.02845
C 22.12776 0.00301 -0.03213
C 24.62421 32.62497 0.02239
C 25.78907 31.91389 0.01153
C 25.78701 30.54333 0.02734
C 24.62422 29.75631 -0.0055
C 24.6628 28.36086 0.01515
C 25.79217 27.66177 -0.00225
C 25.79587 26.27362 0.00071
C 24.61019 25.56255 -0.01107
C 23.36545 13.44773 0.01087
C 24.63827 24.15771 -0.01586
C 23.3262 14.88555 -0.01527
C 22.13564 17.04394 0.01277
C 20.9565 4.96268 0.00667
C 19.73195 4.27898 0.00143
C 19.70662 2.87702 -0.017
C 20.92556 2.18352 0.00364
C 20.94816 0.65209 -0.00831
C 19.67046 0.02866 -0.02957
C 22.1493 32.67916 -0.04422
C 23.34569 32.03164 0.00654
C 23.33204 30.52288 -0.00703
C 22.14177 29.84529 -0.04076
C 22.13559 28.43601 -0.00652
C 23.37388 27.67691 0.0058
C 23.39919 26.28274 -0.00865
C 22.13128 25.62715 0.00675
C 22.12067 24.09077 -0.00311
C 23.4024 23.47731 0.00742
C 23.41139 21.99694 -0.01594
C 22.20421 21.25898 0.0106
C 22.05713 19.84959 -0.01154
C 23.37525 19.19228 -0.01721
C 23.32713 17.72895 -0.02422
C 22.25094 15.65201 0.00096
C 25.79953 23.46348 -0.01971
C 25.81063 21.99905 -0.02118
C 24.61044 21.2691 0.00733
C 28.19602 26.28858 -0.00802
C 26.97609 25.5958 -0.00218
C 27.00501 24.14941 -0.01654
C 28.24569 23.41159 -0.00037
C 28.32165 21.97619 -0.0032
C 26.96234 21.24823 0.00622
C 27.03774 19.86925 -0.02815
C 28.24812 19.17471 -0.00942
C 28.23633 17.71295 0.00487
C 27.00118 17.06482 0.00826
C 27.03074 15.63299 -0.00294
C 28.27716 14.89199 0.00152
C 28.26378 13.49417 0.01257
C 27.06245 12.68712 0.02316
C 27.08393 11.33417 0.04185
C 28.2894 10.63157 0.00194
C 28.29395 9.23797 -0.00621
C 27.13449 8.60181 0.02611
C 27.06552 7.11539 0.02198
C 28.25028 6.32278 0.01094
C 28.25708 4.93786 0.00235
C 28.2683 27.7282 0.00195
C 27.00205 28.42922 0.00996
C 27.05856 29.81402 0.04306
C 28.34384 30.56293 0.00367
C 24.6102 19.87996 -0.00178
C 25.80086 19.17448 0.00768
C 25.78552 17.715 -0.0276
C 24.57401 17.08279 0.03005
C 24.57489 15.62433 -0.04078
C 25.77773 14.90154 0.02117
C 25.81228 13.47529 0.02737
C 24.61518 12.77056 -0.00498
C 24.57463 11.3621 0.00135
C 25.83175 10.64279 0.03102
C 3.6995 31.91211 -0.00039
C 25.81358 9.27828 0.02555
C 24.63315 7.1216 -0.00285
C 25.79096 6.38187 -0.009
C 25.82822 4.93624 -0.01199
C 24.60169 4.29033 -0.00229
C 24.61293 2.90714 -0.00938
C 25.84385 2.11646 -0.0264
C 25.82729 0.6805 -0.01154
C 24.68183 0.01041 0.00684
C 27.02006 32.684 -0.01052
C 28.3057 31.9554 -0.01679
C 24.59975 8.55339 0.01423
C 2.46077 32.64615 0.02728
