361
Graphene
C 0.02512 0.06852 0.01295
C 16.07036 10.64118 0.02058
C 15.92765 9.29213 -0.01957
C 14.75012 8.54824 -0.0108
C 14.79241 7.07741 -0.00368
C 16.04141 6.43556 -0.02696
C 16.03069 4.98194 -0.00114
C 14.71616 4.21461 0.00228
C 14.70208 2.82701 0.00798
C 14.73384 11.23172 0.01965
C 15.98671 2.0975 0.00422
C 14.78371 0.07358 -0.03113
C 17.28407 19.77842 0.02098
C 18.49661 19.15691 0.01848
C 18.49444 17.71439 -0.00619
C 17.20559 17.10889 -0.02162
C 17.2219 15.59674 0.00889
C 18.42637 14.82315 -0.00481
C 18.35347 13.4392 0.00979
C 16.05689 0.55835 0.0351
C 14.62655 12.76546 -0.03682
C 15.94924 13.50633 0.00052
C 15.97871 14.88591 0.00374
C 13.50739 17.83438 -0.00925
C 13.44213 13.59488 0.01877
C 13.56964 10.65461 0.01363
C 13.53521 9.27938 -0.02162
C 12.3154 8.58238 0.00415
C 12.30926 7.13337 -0.0014
C 13.53835 6.40041 0.02162
C 13.53633 4.98733 0.0076
C 12.31542 4.28548 0.01241
C 12.28642 2.94637 -0.01454
C 13.48481 2.16567 0.01945
C 13.52057 0.76763 0.01416
C 12.35167 34.01728 0.03542
C 14.69006 21.30305 0.02299
C 14.86452 19.9488 0.00244
C 16.11377 19.14436 -0.01717
C 15.94322 17.6937 0.05265
C 14.67491 17.01933 -0.01952
C 14.7827 15.52538 -0.02813
C 17.09724 12.7383 0.01443
C 13.49483 19.15888 0.00444
C 17.32036 11.35669 0.03505
C 18.41685 9.25964 -0.04147
C 20.92188 9.25623 0.00755
C 19.62714 8.62644 -0.0054
C 19.65535 7.13263 0.00667
C 20.89843 6.32246 0.00143
C 20.9102 4.92349 -0.017
C 19.6916 4.29862 0.00364
C 19.67023 2.84622 -0.00831
C 20.88029 2.13323 -0.02957
C 20.85862 10.68063 0.01739
C 20.94323 0.66885 -0.04422
C 22.20891 32.6798 -0.00703
C 23.40053 31.93914 -0.04076
C 23.3581 30.49854 -0.00652
C 22.19133 29.82252 0.0058
C 23.42105 27.55214 -0.00865
C 23.30149 26.31468 0.00675
C 22.13436 24.08281 -0.00311
C 23.34223 23.39979 0.00742
C 19.70594 34.00837 0.00654
C 19.65623 11.39374 0.03754
C 19.61256 12.7917 -0.03557
C 20.84357 13.49139 -0.00111
C 17.13608 8.58938 -0.05302
C 17.20492 7.18396 0.00213
C 18.4195 6.42812 -0.00066
C 18.49674 4.95977 -0.00289
C 17.23488 4.25565 0.00028
C 17.21482 2.86215 -0.02213
C 18.46344 2.15807 0.03698
C 18.48279 0.72317 -0.00109
C 17.28512 0.00653 -0.00491
C 19.76883 32.55216 0.03338
C 20.8112 31.95219 -0.0258
C 20.84651 21.93843 -0.0331
C 19.80445 21.37302 -0.00316
C 19.63714 19.91452 0.02188
C 20.85144 19.21408 -0.01979
C 20.85881 17.75529 0.02691
C 19.67648 17.01619 -0.01581
C 19.59953 15.60199 0.01452
C 20.85239 14.92685 0.04892
C 18.51804 10.65826 -0.02815
C 12.30101 19.87939 -0.01789
C 12.26576 21.22219 0.02894
C 13.57557 21.88786 -0.02971
C 4.90671 32.65873 0.0127
C 6.09452 31.93252 0.01396
C 6.17803 30.52031 0.01849
C 4.97131 29.83971 -0.01142
C 4.90862 28.46132 -0.00562
C 6.16738 27.67352 -0.00494
C 6.09899 26.2519 0.00054
C 4.90351 25.53698 0.03007
C 2.47638 0.08276 0.02635
C 4.90676 24.06932 -0.00095
C 6.13581 22.03392 -0.04848
C 4.85807 21.32118 -0.00892
C 4.73844 19.86873 -0.01362
C 4.87279 8.57037 -0.0008
C 4.93023 7.20343 0.0288
C 6.16222 6.35813 0.00393
C 6.15787 5.02997 0.00895
C 4.9467 4.30489 0.00685
C 6.17547 23.43739 0.01572
C 3.65174 0.79554 -0.01378
C 3.71059 2.20538 -0.01303
C 2.47805 2.83552 0.00848
C 3.66809 30.55007 -0.03113
C 2.42648 29.83804 -0.02566
C 2.48527 28.32775 -0.00094
C 3.74928 27.70434 0.02322
C 3.69057 26.25683 -0.00725
C 2.54722 25.53148 -0.05697
C 2.4634 24.13794 0.01087
C 3.61646 23.43565 -0.01343
C 3.62511 22.08323 0.00988
C 2.44821 21.32793 0.0276
C 2.48114 19.85152 0.01305
C 3.73777 19.29415 -0.00077
C 2.51769 11.33715 0.03368
C 3.71089 9.13568 -0.02929
C 2.50206 8.48995 -0.00966
C 2.35616 7.05245 -0.03337
C 3.6518 6.51308 0.01227
C 3.64559 5.03737 0.00873
C 2.44937 4.28497 -0.00049
C 4.98487 2.90907 0.02888
C 6.16457 2.0634 -0.00482
C 6.19288 0.72694 -0.01384
C 4.93053 0.06147 0.03693
C 11.0121 30.56773 -0.02759
C 9.85586 29.78477 0.0402
C 9.76733 28.33988 0.00572
C 9.76739 25.54575 0.03592
C 9.93966 24.19646 0.00406
C 11.00738 23.36039 0.00943
C 11.08944 22.02251 0.02841
C 9.84576 21.46607 -0.01111
C 10.94834 9.21659 -0.01275
C 10.00034 8.53821 0.00985
C 9.89643 7.12654 -0.02245
C 11.11828 6.42443 -0.00428
C 11.01665 4.85234 0.03101
C 9.82239 4.22757 -0.01536
C 9.80834 2.84407 -0.02689
C 11.00687 2.06752 -0.01046
C 11.05963 0.69906 -0.00891
C 9.83264 0.04025 0.02819
C 12.24883 32.70974 0.00165
C 11.15646 31.85821 0.03589
C 23.32238 22.02469 -0.01594
C 9.81528 32.70227 -0.00033
C 8.64421 0.75015 0.01364
C 7.33934 32.66941 0.01745
C 8.6144 31.96698 0.00488
C 8.64525 30.58309 -0.01004
C 7.38741 29.83652 -0.02896
C 7.33552 28.44584 -0.00131
C 8.63899 27.70345 -0.01118
C 8.61652 26.30764 -0.014
C 7.3702 25.6107 0.02147
C 7.39177 24.22709 0.00373
C 8.55568 23.5616 -0.00191
C 8.56389 22.0508 0.00438
C 7.38398 21.37255 0.01291
C 7.28032 8.50917 0.00093
C 7.40401 7.19114 0.00057
C 8.66293 6.37297 -0.01634
C 8.62104 4.97588 -0.00334
C 7.36068 4.32249 0.02339
C 7.34232 2.90551 0.01641
C 8.59728 2.16157 -0.00719
C 7.3314 34.05412 -0.01062
C 3.6349 31.99639 0.017
C 22.12286 21.28649 0.0106
C 23.38067 19.13962 -0.01721
C 31.93232 32.69857 0.01713
C 33.15576 32.00516 -0.01694
C 33.25545 30.60034 0.01428
C 32.00043 29.79892 -0.02142
C 31.95103 28.41033 0.0544
C 33.14646 27.67021 0.00026
C 33.21504 26.2698 0.00682
C 31.93487 25.61948 -0.01779
C 29.40763 34.07944 0.00346
C 31.92054 24.16551 0.03794
C 33.19795 21.96554 0.01574
C 31.96069 21.3488 -0.02383
C 31.9195 19.9016 -0.01429
C 33.1942 19.21423 -0.0136
C 33.21139 17.73137 0.00594
C 31.96285 17.02452 -0.02474
C 31.98837 15.65236 0.00369
C 33.27156 14.89815 0.00455
C 33.20746 23.48004 0.01927
C 30.70121 0.67702 0.00307
C 30.72255 2.13031 0.00716
C 29.49991 2.81452 0.02108
C 30.678 23.48541 -0.01854
C 30.81462 22.03947 -0.01415
C 29.55699 21.23762 -0.03039
C 29.56082 19.85001 0.01836
C 30.75103 19.17622 0.03531
C 30.72439 17.77353 -0.00669
C 29.52259 17.04832 0.0101
C 29.49634 15.61412 0.01705
C 30.73735 14.91088 -0.0405
C 30.72251 13.54776 -0.01303
C 29.5876 12.80341 -0.01461
C 29.53042 11.27527 -0.02155
C 30.77942 10.6304 -0.00944
C 30.76175 9.1894 -0.03735
C 29.51542 8.56558 -0.00971
C 29.49514 7.06607 0.01518
C 30.68444 6.37444 0.01908
C 30.76077 4.91896 0.07705
C 29.4854 4.22653 0.0103
C 33.17268 13.49943 -0.00644
C 29.44311 24.13386 -0.02049
C 31.92614 12.81783 -0.01839
C 33.15459 10.6937 0.00199
C 1.25436 19.07144 -0.01678
C 1.26536 17.72889 0.01223
C 0.01858 17.08231 0.00648
C 0.11208 15.60259 0.02114
C 1.20518 14.71724 -0.02957
C 1.22958 13.54109 0.00343
C 0.06687 12.7556 -0.02656
C 34.37415 11.33437 -0.02442
C 0.02871 19.83969 0.01951
C 1.27135 10.69235 -0.00027
C 34.43163 8.57157 -0.02302
C 34.42767 7.17749 -0.02849
C 1.16978 6.39579 0.02931
C 1.26128 5.00686 0.00628
C 34.40897 4.28344 -0.0345
C 34.4245 2.82137 -0.00931
C 1.22762 2.12448 -0.00939
C 1.28691 0.77081 -0.00468
C 1.27547 9.2347 -0.00583
C 34.40504 21.24517 -0.02213
C 1.19736 22.0562 0.02712
C 1.22984 23.46305 0.00723
C 33.21759 9.28135 0.04381
C 31.91834 8.4604 0.02806
C 31.92554 7.04749 0.01504
C 33.18835 6.39784 -0.00069
C 33.26015 4.97813 0.04926
C 31.92437 4.23646 -0.03838
C 31.90369 2.81903 0.00349
C 33.17397 2.0877 -0.00323
C 33.16706 0.6978 -0.00841
C 31.93445 34.02371 0.0001
C 34.42494 32.75667 -0.02927
C 1.21349 32.00342 -0.01404
C 1.21967 30.55137 0.01027
C 0.01871 29.81728 0.01831
C 34.35703 28.35574 -0.01037
C 1.16068 27.72031 -0.00439
C 1.24359 26.28165 -0.00598
C 0.04556 25.51702 -0.05239
C 0.01591 24.14582 0.03076
C 31.92027 11.43363 0.00137
C 29.47935 25.57769 0.03265
C 30.71407 26.33086 0.00261
C 30.70737 27.73306 0.02326
C 25.78814 27.71139 -0.00225
C 25.79617 26.31595 0.00071
C 24.5907 25.57178 -0.01107
C 24.62022 24.14314 -0.01586
C 25.79383 23.38931 -0.01971
C 25.7833 21.995 -0.02118
C 24.56666 21.30621 0.00733
C 24.55383 19.95821 -0.00178
C 24.56179 28.34178 0.01515
C 25.82197 19.13471 0.00768
C 24.53095 17.01874 0.03005
C 24.586 15.65368 -0.04078
C 25.86291 14.9086 0.02117
C 25.79025 13.4375 0.02737
C 24.5706 12.75074 -0.00498
C 24.60162 11.34825 0.00135
C 25.79037 10.59166 0.03102
C 25.78631 9.23122 0.02555
C 25.81357 17.69217 -0.0276
C 24.63334 29.78798 -0.0055
C 25.86511 30.54654 0.02734
C 25.80244 31.9402 0.01153
C 23.36051 17.68091 -0.02422
C 22.08087 17.00577 0.01277
C 22.09453 15.60372 0.00096
C 23.35387 14.88109 -0.01527
C 23.40141 13.47522 0.01087
C 22.11706 12.8203 0.00199
C 22.04821 11.36888 0.01511
C 23.27548 10.62774 -0.00478
C 23.34164 9.15616 -0.01662
C 22.08918 8.50099 -0.01185
C 22.16078 7.07147 0.01126
C 23.41507 6.3539 0.01852
C 23.22105 4.95716 -0.00381
C 22.06256 4.17718 0.03046
C 22.14819 2.7923 0.0296
C 23.4009 2.10387 0.03374
C 23.38686 0.65977 -0.02845
C 22.17986 34.03287 -0.03213
C 24.63521 32.62008 0.02239
C 24.56023 8.48354 0.01423
C 24.61233 7.02061 -0.00285
C 25.8123 6.34197 -0.009
C 25.78964 4.99113 -0.01199
C 28.32989 13.42602 0.01257
C 27.15066 12.71233 0.02316
C 27.02539 11.29045 0.04185
C 28.2893 10.63781 0.00194
C 28.29405 9.23367 -0.00621
C 27.0464 8.49396 0.02611
C 27.10334 7.11502 0.02198
C 28.25578 6.38063 0.01094
C 28.27807 4.98045 0.00235
C 27.11149 4.26506 0.01495
C 27.13589 2.85402 0.01259
C 28.32187 2.17325 0.01799
C 28.27909 0.75414 0.01699
C 27.10715 33.99446 -0.00416
C 29.50437 32.65696 0.01177
C 30.72865 31.98465 0.04266
C 30.7367 30.57268 0.01324
C 29.51299 29.81848 0.0014
C 29.52383 28.41945 0.00924
C 28.25489 14.93794 0.00152
C 22.13207 19.84079 -0.01154
C 27.081 15.63077 -0.00294
C 28.24484 17.8172 0.00487
C 24.58311 4.23906 -0.00229
C 24.61723 2.87969 -0.00938
C 25.91608 2.14155 -0.0264
C 25.88181 0.66983 -0.01154
C 24.56763 34.05281 0.00684
C 27.09967 32.64146 -0.01052
C 28.26845 31.9292 -0.01679
C 28.44032 30.56352 0.00367
C 27.04021 29.85575 0.04306
C 27.0595 28.41478 0.00996
C 28.28589 27.68195 0.00195
C 28.17881 26.2712 -0.00802
C 26.93862 25.58449 -0.00218
C 26.98659 24.14973 -0.01654
C 28.2205 23.40727 -0.00037
C 28.30498 21.93633 -0.0032
C 26.94927 21.24175 0.00622
C 27.01314 19.87444 -0.02815
C 28.24807 19.19668 -0.00942
C 27.02026 17.03144 0.00826
C 2.41699 32.73238 -0.00643
