417
Graphene
C 34.31944 34.04011 0.01295
C 13.54004 6.46365 -0.01111
C 13.52072 4.95753 -0.01275
C 12.23795 4.30043 0.00985
C 12.31768 2.93284 -0.02245
C 13.46968 2.10349 -0.00428
C 13.36279 0.73142 0.03101
C 12.22672 0.04372 -0.01536
C 14.6844 32.68063 -0.02689
C 15.91374 31.97336 -0.01046
C 15.84685 30.49961 -0.00891
C 12.30249 7.18606 0.02841
C 14.5784 29.87605 0.02819
C 15.83677 27.59577 -0.02971
C 15.8578 26.1566 0.02894
C 14.63449 25.36497 -0.01789
C 14.72087 24.06122 0.00444
C 15.88501 23.46927 -0.00925
C 16.26204 13.84987 0.01877
C 14.78726 13.13777 0.01363
C 14.87805 11.62726 -0.02162
C 15.93558 10.70826 0.00415
C 15.96654 9.31401 -0.0014
C 14.69248 28.34064 0.00165
C 14.77521 8.56882 0.02162
C 12.29086 8.67431 0.00943
C 13.62943 10.84664 0.03592
C 11.0679 9.42919 -0.00131
C 9.82815 8.69965 -0.01118
C 9.80459 7.27437 -0.014
C 11.01455 6.49108 0.02147
C 11.05115 5.01053 0.00373
C 9.85932 4.3245 -0.00191
C 9.77673 2.99727 0.00438
C 11.02552 2.25005 0.01291
C 11.01261 0.89117 0.00093
C 9.77625 0.08463 0.00057
C 13.52999 9.414 0.00406
C 12.13577 32.72181 -0.01634
C 13.43937 30.6113 0.02339
C 12.21841 29.78999 0.01641
C 12.30125 28.48463 -0.00719
C 13.49823 27.62651 0.01364
C 13.35529 26.14177 -0.01062
C 12.03072 25.43724 -0.00033
C 11.58813 24.09993 0.03589
C 13.55254 13.64895 -0.02759
C 12.27353 13.07839 0.0402
C 12.37849 11.49985 0.00572
C 13.43915 31.99464 -0.00334
C 11.0709 10.89392 -0.02896
C 14.79459 7.16402 0.0076
C 16.02145 4.9889 -0.01454
C 17.235 7.10372 -0.00619
C 18.46142 6.39771 -0.02162
C 18.47762 4.99518 0.00889
C 17.26686 4.19213 -0.00481
C 17.14842 2.8413 0.00979
C 18.3583 2.13131 0.01443
C 18.41784 0.78043 0.03505
C 17.19958 0.0335 -0.02815
C 19.59289 32.6823 -0.04147
C 20.81955 31.8772 -0.05302
C 17.28366 8.60343 0.01848
C 20.76985 30.46466 0.00213
C 19.63281 28.31177 -0.00289
C 20.89803 27.65024 0.00028
C 20.85793 26.22469 -0.02213
C 19.61765 25.47103 0.03698
C 19.62934 24.04814 -0.00109
C 20.90042 23.3696 -0.00491
C 20.91423 21.97089 0.03338
C 19.66606 21.28039 -0.0258
C 19.64682 19.88169 -0.0331
C 20.95252 19.16018 -0.00316
C 19.51257 29.75565 -0.00066
C 15.95601 6.41718 0.01241
C 18.53023 9.24649 0.02098
C 17.21596 11.39492 0.0351
C 14.68275 4.29887 0.01945
C 14.67498 2.82983 0.01416
C 15.89074 2.14905 0.03542
C 15.93236 0.68297 0.02299
C 14.61991 0.01254 0.00244
C 17.12938 32.64023 -0.01717
C 18.39534 31.93553 0.05265
C 18.33232 30.49369 -0.01952
C 17.03538 29.75084 -0.02813
C 17.14773 28.31644 0.00374
C 18.43937 10.65945 -0.03113
C 18.38684 27.60618 0.00052
C 17.14897 25.49167 0.01965
C 17.23155 24.04912 0.02058
C 18.35961 23.27373 -0.01957
C 18.39428 21.91075 -0.0108
C 18.52353 19.18 -0.00368
C 18.52342 17.73631 -0.02696
C 16.9314 14.95816 -0.00114
C 18.31704 14.76043 0.00228
C 18.46416 13.36912 0.00798
C 17.19315 12.86171 0.00422
C 18.39523 26.16274 -0.03682
C 9.82233 11.47875 -0.01004
C 9.81882 12.9222 0.00488
C 10.94948 13.70468 0.01745
C 2.35506 2.82744 0.02769
C 3.61825 2.21267 -0.03291
C 3.61096 0.75843 -0.04999
C 2.34991 0.0607 0.04505
C 4.87084 32.82612 0.03284
C 6.0468 32.07068 -0.04307
C 6.0169 30.6474 0.03189
C 4.86123 29.81304 0.00031
C 4.8664 28.36655 -0.003
C 6.12946 27.72981 0.01402
C 2.36537 4.29494 0.01707
C 6.11399 26.33799 0.02379
C 5.00476 24.14214 0.00643
C 6.2873 23.39748 -0.01509
C 6.22635 21.96997 0.03267
C 5.00821 21.35097 0.02374
C 4.81914 19.90308 0.00402
C 6.03334 19.18337 0.0073
C 6.07163 17.74239 0.0174
C 4.84465 17.05604 0.03828
C 4.8793 15.64359 0.01226
C 6.21066 15.01849 -0.00279
C 4.88705 25.66266 0.00907
C 6.25614 13.63724 0.01996
C 3.60341 4.95876 0.00208
C 2.41399 7.06427 -0.01977
C 3.68692 30.54128 -0.01299
C 2.46212 29.75119 -0.00407
C 2.47798 28.43983 0.01138
C 3.64594 27.73083 0.03278
C 3.61957 26.30675 -0.00177
C 2.43026 25.56216 0.04421
C 2.44188 24.10507 0.00088
C 3.76033 23.42994 0.00828
C 3.73516 22.03931 -0.02375
C 2.48423 21.29322 0.00558
C 3.65251 6.43273 -0.00561
C 2.39533 19.91346 -0.0059
C 3.60764 17.7144 -0.02805
C 2.45711 17.0033 0.00081
C 2.37843 15.60021 0.00245
C 3.6354 14.9982 0.02728
C 3.6702 13.5306 -0.00039
C 2.47024 12.8538 0.0064
C 2.39691 11.35561 0.00211
C 3.66619 10.76355 -0.00449
C 3.60402 9.33842 -0.01979
C 2.37179 8.56063 0.02784
C 3.6359 19.1686 -0.01386
C 4.92137 12.90596 -0.03996
C 4.8502 11.54755 0.01465
C 6.09552 10.66423 -0.00074
C 7.33551 12.83866 0.0127
C 7.30626 11.3946 0.01396
C 8.56769 10.72967 0.01849
C 8.58949 9.33216 -0.01142
C 7.33925 8.60361 -0.00562
C 7.36321 7.21376 -0.00494
C 8.60997 6.50766 0.00054
C 8.62352 5.11041 0.03007
C 7.34205 4.44481 -0.00095
C 7.37368 3.01858 0.01572
C 8.54597 13.46375 0.02635
C 8.56921 2.22321 -0.04848
C 7.28173 0.09201 -0.01362
C 9.78308 32.79568 -0.0008
C 11.00995 32.02023 0.0288
C 10.98496 30.61434 0.00393
C 9.77152 29.91537 0.00895
C 9.81174 28.50901 0.00685
C 11.05726 27.77865 0.02888
C 10.98784 26.37509 -0.00482
C 9.81209 25.58907 -0.01384
C 10.2559 24.21133 0.03693
C 8.65212 0.79169 -0.00892
C 8.58883 14.935 -0.01378
C 7.53464 15.78067 -0.01303
C 7.46865 17.14722 0.00848
C 6.11498 9.19933 -0.00518
C 4.75412 8.51758 0.0086
C 4.83372 7.17243 -0.00643
C 6.16171 6.49735 0.017
C 6.08351 5.09554 -0.03113
C 4.82565 4.32679 -0.02566
C 4.85322 2.96305 -0.00094
C 6.15371 2.26343 0.02322
C 6.08093 0.81527 -0.00725
C 4.81037 0.1402 -0.05697
C 7.27658 32.76076 0.01087
C 8.56651 32.10449 -0.01343
C 8.57275 30.63975 0.00988
C 7.29338 29.96072 0.0276
C 7.33267 28.45526 0.01305
C 8.58171 27.73385 -0.00077
C 8.58002 26.32151 0.03368
C 7.36011 25.57685 -0.02929
C 7.55378 24.18943 -0.00966
C 8.98694 23.4952 -0.03337
C 8.5995 22.18176 0.01227
C 7.52982 21.29411 0.00873
C 7.33817 19.81686 -0.00049
C 20.89134 17.73846 0.02188
C 3.69898 32.08275 -0.0154
C 19.57268 16.96901 -0.01979
C 20.79994 14.81641 -0.01581
C 30.64704 10.58439 -0.00944
C 30.71386 9.20669 -0.03735
C 29.55348 8.48076 -0.00971
C 29.51774 7.07869 0.01518
C 30.70097 6.34937 0.01908
C 30.68709 5.01093 0.07705
C 29.44246 4.24037 0.0103
C 29.48894 2.83721 0.02108
C 30.7531 2.13119 0.00716
C 30.67676 0.79301 0.00307
C 29.51413 11.28001 -0.02155
C 29.435 0.03613 0.00346
C 33.18418 31.93032 -0.01694
C 33.18557 30.46267 0.01428
C 31.9677 29.81706 -0.02142
C 32.0129 28.32573 0.0544
C 33.23177 27.62011 0.00026
C 33.1735 26.26085 0.00682
C 31.97146 25.54886 -0.01779
C 31.96254 24.0509 0.03794
C 33.15544 23.37873 0.01927
C 33.09264 22.0384 0.01574
C 31.92955 32.63724 0.01713
C 31.87548 21.2427 -0.02383
C 29.48755 12.69176 -0.01461
C 30.67822 14.90227 -0.0405
C 27.11349 4.24312 0.01495
C 27.06024 2.84005 0.01259
C 28.26159 2.08252 0.01799
C 28.21546 0.71684 0.01699
C 26.95103 33.99765 -0.00416
C 29.45974 32.58948 0.01177
C 30.76469 31.91633 0.04266
C 30.72132 30.54674 0.01324
C 29.48433 29.84928 0.0014
C 29.4008 28.43358 0.00924
C 30.68485 13.46035 -0.01303
C 30.7439 27.67281 0.02326
C 29.48341 25.54371 0.03265
C 29.41842 24.10044 -0.02049
C 30.74701 23.47662 -0.01854
C 30.74361 21.9594 -0.01415
C 29.49484 21.18362 -0.03039
C 29.3981 19.81348 0.01836
C 30.66558 19.14911 0.03531
C 30.68774 17.69894 -0.00669
C 29.44443 16.97755 0.0101
C 29.44749 15.56267 0.01705
C 30.74426 26.29149 0.00261
C 28.31065 4.90872 0.00235
C 31.83148 19.77993 -0.01429
C 33.17939 17.67121 0.00594
C 1.19591 23.38922 0.00723
C 1.228 22.00105 0.02712
C 34.40372 21.27321 -0.02213
C 34.31738 19.83479 0.01951
C 1.18335 19.17751 -0.01678
C 1.13285 17.73075 0.01223
C 0.00152 16.92075 0.00648
C 34.34344 15.55941 0.02114
C 1.1645 14.85905 -0.02957
C 1.21776 13.49108 0.00343
C 0.01697 24.0493 0.03076
C 34.3523 12.775 -0.02656
C 1.1333 10.69068 -0.00027
C 1.17527 9.24118 -0.00583
C 0.00573 8.52383 -0.02302
C 34.41928 7.11366 -0.02849
C 1.13887 6.41703 0.02931
C 1.17879 4.99575 0.00628
C 34.36003 4.2459 -0.0345
C 34.35122 2.83076 -0.00931
C 1.197 2.0865 -0.00939
C 1.10333 0.7266 -0.00468
C 34.34093 11.38297 -0.02442
C 33.14502 19.11901 -0.0136
C 34.41105 25.47654 -0.05239
C 1.23123 27.6305 -0.00439
C 31.94141 17.03814 -0.02474
C 31.98428 15.55569 0.00369
C 33.1248 14.84807 0.00455
C 33.13221 13.44336 -0.00644
C 31.90061 12.80169 -0.01839
C 31.88901 11.41017 0.00137
C 33.14204 10.65534 0.00199
C 33.20168 9.17397 0.04381
C 31.98687 8.4861 0.02806
C 31.94885 7.13008 0.01504
C 1.09565 26.23482 -0.00598
C 33.17116 6.39364 -0.00069
C 31.99522 4.23995 -0.03838
C 32.04675 2.87787 0.00349
C 33.14548 2.11113 -0.00323
C 33.15459 0.68252 -0.00841
C 31.92041 0.00339 0.0001
C 34.30177 32.62371 -0.02927
C 1.24998 31.89757 -0.01404
C 1.25747 30.48348 0.01027
C 34.34853 29.77806 0.01831
C 0.02497 28.3704 -0.01037
C 33.11535 5.02782 0.04926
C 28.2641 6.43311 0.01094
C 26.98937 7.10162 0.02198
C 27.17643 8.54348 0.02611
C 22.14562 19.91379 -0.01154
C 23.31958 19.17999 -0.01721
C 23.34851 17.7257 -0.02422
C 22.11649 17.03224 0.01277
C 21.96855 15.56458 0.00096
C 23.34758 14.94497 -0.01527
C 23.27789 13.48572 0.01087
C 22.11235 12.74881 0.00199
C 22.09937 11.35921 0.01511
C 23.26217 10.58691 -0.00478
C 22.20537 21.27407 0.0106
C 23.33236 9.17483 -0.01662
C 22.1515 7.08627 0.01126
C 23.33632 6.41385 0.01852
C 23.42788 4.98624 -0.00381
C 22.15086 4.23704 0.03046
C 22.16962 2.82763 0.0296
C 23.40312 2.10877 0.03374
C 23.30691 0.73893 -0.02845
C 22.0502 34.06396 -0.03213
C 24.59022 32.70568 0.02239
C 25.76256 31.99293 0.01153
C 22.17235 8.46243 -0.01185
C 25.73451 30.58289 0.02734
C 23.32721 22.02095 -0.01594
C 22.11034 24.08542 -0.00311
C 20.90317 13.46582 0.01452
C 19.64443 12.69634 0.04892
C 19.63136 11.29231 -0.00111
C 20.86283 10.59844 -0.03557
C 20.97388 9.22178 0.03754
C 19.71946 8.48527 0.01739
C 19.67779 7.14981 0.00755
C 20.79053 6.38899 -0.0054
C 20.8512 4.92568 0.00667
C 19.66635 4.18846 0.00143
C 23.30608 23.44359 0.00742
C 19.67451 2.74617 -0.017
C 20.84029 0.68863 -0.00831
C 19.6508 0.04967 -0.02957
C 22.09902 32.59322 -0.04422
C 23.35904 32.01635 0.00654
C 23.32573 30.58525 -0.00703
C 22.05378 29.88685 -0.04076
C 22.09239 28.46783 -0.00652
C 23.33907 27.79868 0.0058
C 23.34264 26.35933 -0.00865
C 22.09477 25.58636 0.00675
C 20.9001 2.12191 0.00364
C 24.48086 29.81529 -0.0055
C 24.51184 28.46602 0.01515
C 25.77676 27.69666 -0.00225
C 28.25638 31.92771 -0.01679
C 28.2149 30.5509 0.00367
C 26.9781 29.80453 0.04306
C 26.96212 28.41052 0.00996
C 28.27798 27.69632 0.00195
C 28.25624 26.24677 -0.00802
C 27.01673 25.56358 -0.00218
C 27.07094 24.19625 -0.01654
C 28.20431 23.43238 -0.00037
C 28.19606 21.8892 -0.0032
C 26.95184 32.64179 -0.01052
C 26.96792 21.31122 0.00622
C 28.25958 19.14207 -0.00942
C 28.25958 17.63036 0.00487
C 27.00675 16.93321 0.00826
C 27.00946 15.56279 -0.00294
C 28.23921 14.85646 0.00152
C 28.27616 13.47268 0.01257
C 27.06396 12.71571 0.02316
C 27.06871 11.32048 0.04185
C 28.26718 10.62484 0.00194
C 28.38489 9.21722 -0.00621
C 27.00652 19.85152 -0.02815
C 24.53525 0.0301 0.00684
C 25.72602 0.76776 -0.01154
C 25.72983 2.16824 -0.0264
C 25.77816 26.27281 0.00071
C 24.54885 25.58807 -0.01107
C 24.57396 24.16298 -0.01586
C 25.7417 23.46147 -0.01971
C 25.79706 21.98913 -0.02118
C 24.52529 21.32365 0.00733
C 24.5129 19.84617 -0.00178
C 25.7663 19.16574 0.00768
C 25.78114 17.71937 -0.0276
C 24.54141 17.03148 0.03005
C 24.48704 15.59616 -0.04078
C 25.74641 14.85828 0.02117
C 25.82726 13.39234 0.02737
C 24.50483 12.79878 -0.00498
C 24.48113 11.36423 0.00135
C 25.75774 10.65068 0.03102
C 25.85064 9.24422 0.02555
C 24.61927 8.51346 0.01423
C 24.55754 7.05327 -0.00285
C 25.75579 6.349 -0.009
C 25.882 5.01315 -0.01199
C 24.53152 4.2466 -0.00229
C 24.55086 2.79975 -0.00938
C 19.46441 15.55886 0.02691
C 2.42811 32.60082 0.00662
