399
Graphene
C 0.01217 0.02727 0.01295
C 12.34826 29.81415 -0.02971
C 12.25008 28.45544 0.02894
C 13.51762 27.73538 -0.01789
C 13.5465 26.24796 0.00444
C 12.33607 25.59743 -0.00925
C 12.32097 24.16286 0.01877
C 13.48947 23.39113 0.01363
C 13.49293 21.97865 -0.02162
C 12.2534 21.21301 0.00415
C 12.30641 19.86536 -0.0014
C 13.58098 19.19803 0.02162
C 13.55039 17.70734 0.0076
C 12.32228 17.0198 0.01241
C 12.33598 15.58459 -0.01454
C 13.50437 14.98559 0.01945
C 13.52401 13.49309 0.01416
C 12.2885 12.72152 0.03542
C 12.28248 11.32307 0.02299
C 13.59165 10.58618 0.00244
C 13.48921 9.20729 -0.01717
C 12.28601 8.54031 0.05265
C 13.53427 30.50516 0.00165
C 12.26145 7.11935 -0.01952
C 13.47922 31.99338 0.02819
C 9.87668 0.04958 -0.01046
C 11.0983 22.04589 0.01641
C 9.87759 21.32752 -0.00719
C 9.84568 19.90672 0.01364
C 11.0677 19.21438 -0.01062
C 11.07463 17.75062 -0.00033
C 9.85295 17.05981 0.03589
C 9.84421 15.67943 -0.02759
C 11.05118 14.9246 0.0402
C 11.03959 13.54168 0.00572
C 9.83492 12.74735 0.03592
C 9.84292 11.35497 0.00406
C 11.08628 10.66811 0.00943
C 11.12665 9.23165 0.02841
C 9.80931 8.47759 -0.01111
C 9.83154 7.14695 -0.01275
C 11.08164 6.36218 0.00985
C 11.00499 4.96337 -0.02245
C 9.83785 4.26518 -0.00428
C 9.90416 2.85291 0.03101
C 11.06339 2.13891 -0.01536
C 11.08763 0.72478 -0.02689
C 12.28999 32.73375 -0.00891
C 11.06799 23.47367 0.02339
C 13.50725 6.32881 -0.02813
C 12.28256 4.22749 0.00052
C 15.98726 10.68996 0.00213
C 15.98351 9.20483 -0.00066
C 14.72738 8.53106 -0.00289
C 14.77319 7.12021 0.00028
C 16.01679 6.37137 -0.02213
C 16.02833 5.02803 0.03698
C 14.75826 4.19291 -0.00109
C 14.76768 2.8142 -0.00491
C 15.98503 2.11298 0.03338
C 16.02402 0.67068 -0.0258
C 14.71241 34.06931 -0.0331
C 17.17758 32.66285 -0.00316
C 18.45456 31.91106 0.02188
C 18.47803 30.49891 -0.01979
C 17.21123 29.8747 0.02691
C 17.18358 28.40198 -0.01581
C 18.41749 27.70464 0.01452
C 18.39448 26.29811 0.04892
C 17.2097 25.59684 -0.00111
C 17.19308 24.13798 -0.03557
C 18.48646 23.39718 0.03754
C 14.76846 11.37913 -0.05302
C 13.54029 4.96647 0.00374
C 14.76303 12.8307 -0.04147
C 16.01945 14.91888 0.03505
C 12.31795 2.85304 -0.03682
C 13.53918 2.0875 0.01965
C 13.50108 0.66386 0.02058
C 12.28217 0.00106 -0.01957
C 14.79294 32.68276 -0.0108
C 15.96761 31.95049 -0.00368
C 15.96083 30.52212 -0.02696
C 14.72392 29.83219 -0.00114
C 14.74653 28.4049 0.00228
C 15.93144 27.69359 0.00798
C 15.96049 26.30638 0.00422
C 14.79602 25.52285 0.0351
C 14.72938 24.1038 -0.03113
C 15.97463 23.36354 0.02098
C 15.95935 21.97392 0.01848
C 14.76828 21.28576 -0.00619
C 14.72047 19.87983 -0.02162
C 16.00441 19.16402 0.00889
C 16.01459 17.77583 -0.00481
C 14.72397 17.07963 0.00979
C 14.78987 15.60055 0.01443
C 15.9633 13.49904 -0.02815
C 18.4474 22.00222 0.01739
C 9.86157 24.18903 -0.00334
C 11.0799 26.21566 0.00057
C 2.4546 4.28154 0.0073
C 2.43085 2.86997 0.0174
C 3.64749 2.11825 0.03828
C 3.695 0.70177 0.01226
C 2.42721 0.07384 -0.00279
C 4.95149 32.60854 0.01996
C 6.14338 31.98153 -0.03996
C 4.93923 29.84907 0.01465
C 4.94135 28.42158 -0.00074
C 6.11604 27.73959 -0.00518
C 6.19129 26.31156 0.0086
C 4.90071 25.54349 -0.00643
C 4.89297 24.15166 0.017
C 6.12048 23.4446 -0.03113
C 6.18832 21.96447 -0.02566
C 4.96376 21.32062 -0.00094
C 4.89137 19.85103 0.02322
C 6.22053 19.12809 -0.00725
C 6.15045 17.74697 -0.05697
C 4.86102 17.03599 0.01087
C 4.89791 15.69439 -0.01343
C 3.71979 4.98 0.00402
C 6.16625 14.90592 0.00988
C 3.6843 6.42113 0.02374
C 2.49167 8.51414 -0.01509
C 3.68276 30.48255 0.00211
C 2.506 29.78048 -0.00449
C 2.38912 28.33547 -0.01979
C 3.65374 27.75094 0.02784
C 3.63318 26.30839 -0.01977
C 2.44195 25.56011 -0.00561
C 2.49883 24.17496 0.00208
C 3.69541 23.38243 0.01707
C 3.74424 22.0467 0.02769
C 2.51457 21.32686 -0.03291
C 2.47469 19.90474 -0.04999
C 3.68488 19.14859 0.04505
C 3.63825 17.68212 0.03284
C 2.42593 17.00102 -0.04307
C 2.47537 15.59972 0.03189
C 3.69654 14.88596 0.00031
C 3.68429 13.52927 -0.003
C 2.45128 12.84879 0.01402
C 2.41989 11.38392 0.02379
C 3.73375 10.66537 0.00907
C 3.7361 9.23895 0.00643
C 2.48435 7.12271 0.03267
C 9.80885 25.49002 -0.01634
C 6.11672 13.49469 0.0276
C 4.8783 11.3969 -0.00077
C 8.56829 14.86984 0.0288
C 8.61351 13.50111 0.00393
C 7.36859 12.81748 0.00895
C 7.36117 11.40188 0.00685
C 8.63795 10.5884 0.02888
C 8.58662 9.2481 -0.00482
C 7.36083 8.52127 -0.01384
C 7.4077 7.11165 0.03693
C 8.59199 6.37086 0.01745
C 8.59785 4.97687 0.00488
C 7.38477 4.30317 -0.01004
C 7.37083 2.87515 -0.02896
C 8.58346 2.18888 -0.00131
C 8.65912 0.68863 -0.01118
C 7.38011 0.04922 -0.014
C 9.82155 32.68423 0.02147
C 11.10834 32.01255 0.00373
C 11.02942 30.62274 -0.00191
C 9.86234 29.86763 0.00438
C 9.81744 28.44031 0.01291
C 11.02612 27.68498 0.00093
C 7.37649 15.67017 -0.0008
C 4.92134 12.78943 0.01305
C 7.37481 17.03103 -0.01362
C 8.56022 19.19824 -0.04848
C 6.1254 10.70761 0.03368
C 6.17769 9.22903 -0.02929
C 4.87596 8.52508 -0.00966
C 4.87288 7.13708 -0.03337
C 6.14659 6.37578 0.01227
C 6.18767 4.98068 0.00873
C 4.89251 4.29729 -0.00049
C 4.8854 2.8515 0.00848
C 6.20774 2.19155 -0.01303
C 6.16954 0.69989 -0.01378
C 4.93119 0.01249 0.02635
C 7.33899 32.64353 0.0127
C 8.63372 31.94402 0.01396
C 8.58524 27.73079 0.01849
C 8.55005 26.29201 -0.01142
C 7.33514 25.53951 -0.00562
C 7.35917 24.06573 -0.00494
C 8.6334 23.46404 0.00054
C 8.57182 21.99705 0.03007
C 7.39137 21.32077 -0.00095
C 7.35894 19.86106 0.01572
C 8.60445 17.7436 -0.00892
C 3.65538 31.97021 0.0064
C 17.24207 21.28728 0.00755
C 18.45665 19.20747 0.00667
C 30.73306 14.89598 0.01518
C 30.74292 13.5111 0.01908
C 29.48799 12.77835 0.07705
C 29.47861 11.37629 0.0103
C 30.75449 10.69109 0.02108
C 30.76217 2.05975 0.00716
C 30.79712 0.67209 0.00307
C 29.51056 34.07819 0.00346
C 31.95039 32.66802 0.01713
C 33.21682 31.95266 -0.01694
C 33.19505 30.51835 0.01428
C 31.9762 29.79656 -0.02142
C 31.97627 28.41814 0.0544
C 33.24671 27.73878 0.00026
C 33.19885 26.21138 0.00682
C 31.99791 25.52257 -0.01779
C 31.99444 24.15633 0.03794
C 33.21137 23.4503 0.01927
C 33.21813 21.95947 0.01574
C 31.96145 21.31839 -0.02383
C 32.01573 19.85029 -0.01429
C 29.47383 15.58501 -0.00971
C 33.18431 19.19995 -0.0136
C 29.4841 17.04241 -0.03735
C 30.72429 19.19829 -0.02155
C 28.2687 19.16702 -0.00416
C 28.27577 17.7055 0.01177
C 27.08993 17.00732 0.04266
C 27.05311 15.6471 0.01324
C 28.33029 14.87394 0.0014
C 28.27621 13.42105 0.00924
C 28.32128 0.68309 0.02326
C 27.07017 34.07726 0.00261
C 29.47488 32.61977 0.03265
C 30.75133 31.89734 -0.02049
C 30.7486 30.53607 -0.01854
C 29.50381 29.84945 -0.01415
C 29.56703 28.47824 -0.03039
C 30.74261 27.67799 0.01836
C 30.77278 26.30133 0.03531
C 29.48851 25.56771 -0.00669
C 29.50322 24.13683 0.0101
C 30.74356 23.42055 0.01705
C 30.81381 22.05532 -0.0405
C 29.55034 21.30343 -0.01303
C 29.48074 19.85272 -0.01461
C 30.74676 17.76357 -0.00944
C 27.05836 19.88878 0.01699
C 33.21552 17.81099 0.00594
C 31.95593 15.53085 0.00369
C 1.18745 22.00289 0.02712
C 34.41966 21.29275 -0.02213
C 0.05317 19.8862 0.01951
C 1.19067 19.15109 -0.01678
C 1.17527 17.74922 0.01223
C 34.41781 16.98451 0.00648
C 34.39715 15.60523 0.02114
C 1.2138 14.86365 -0.02957
C 1.22536 13.54732 0.00343
C 0.00958 12.79703 -0.02656
C 34.41466 11.36271 -0.02442
C 1.22085 10.66187 -0.00027
C 1.18945 9.20271 -0.00583
C 34.37074 8.53524 -0.02302
C 34.43179 7.12122 -0.02849
C 1.2525 6.33056 0.02931
C 1.22681 4.94195 0.00628
C 34.39873 4.26736 -0.0345
C 0.00987 2.85073 -0.00931
C 1.23785 2.19418 -0.00939
C 1.21562 0.73833 -0.00468
C 1.20373 23.4418 0.00723
C 31.98163 17.07678 -0.02474
C 0.00645 24.15473 0.03076
C 1.25037 26.27075 -0.00598
C 33.19335 14.85916 0.00455
C 33.20637 13.46328 -0.00644
C 31.94548 12.80195 -0.01839
C 31.9513 11.40039 0.00137
C 33.19314 10.602 0.00199
C 33.17167 9.2123 0.04381
C 31.93355 8.47007 0.02806
C 31.96021 7.17138 0.01504
C 33.22638 6.39542 -0.00069
C 33.13668 4.91795 0.04926
C 31.95524 4.26295 -0.03838
C 31.97903 2.87624 0.00349
C 33.19131 2.07453 -0.00323
C 33.17749 0.70859 -0.00841
C 32.00311 34.04178 0.0001
C 0.01039 32.65454 -0.02927
C 1.25472 31.97342 -0.01404
C 1.22006 30.50937 0.01027
C 0.00891 29.77079 0.01831
C 34.42763 28.39377 -0.01037
C 1.1981 27.65421 -0.00439
C 0.00446 25.58196 -0.05239
C 17.26357 19.85252 -0.0054
C 27.0456 21.32933 0.01799
C 28.20822 23.42522 0.01495
C 19.60736 25.53239 0.01511
C 19.67664 24.08759 -0.00478
C 20.86286 23.43798 -0.01662
C 20.93537 21.99203 -0.01185
C 19.72336 21.27006 0.01126
C 19.59324 19.87138 0.01852
C 20.85801 19.10719 -0.00381
C 20.92041 17.72719 0.03046
C 19.69046 17.01672 0.0296
C 19.70861 15.56692 0.03374
C 20.95081 14.85836 -0.02845
C 20.94434 13.46219 -0.03213
C 19.66969 12.81786 0.02239
C 19.71699 11.30863 0.01153
C 19.58954 4.19796 0.02734
C 19.6677 2.86436 -0.0055
C 20.94075 2.07956 0.01515
C 20.96417 0.69099 -0.00225
C 19.64329 34.06562 0.00071
C 22.12886 32.63703 -0.01107
C 23.38333 31.95265 -0.01586
C 20.9008 26.23386 0.00199
C 23.40379 30.54635 -0.01971
C 20.88527 27.65905 0.01087
C 19.66497 29.81449 0.00096
C 18.49954 17.73292 0.00143
C 17.26951 17.05974 -0.017
C 17.25302 15.67866 0.00364
C 18.46159 14.94946 -0.00831
C 18.47325 13.444 -0.02957
C 17.20276 12.80162 -0.04422
C 17.2315 11.40067 0.00654
C 18.42808 10.67396 -0.00703
C 18.43232 9.22299 -0.04076
C 17.2534 8.55249 -0.00652
C 17.20777 7.12138 0.0058
C 18.41889 6.37469 -0.00865
C 18.50698 5.00252 0.00675
C 17.19139 4.31661 -0.00311
C 17.22162 2.79911 0.00742
C 18.48105 2.13943 -0.01594
C 18.48651 0.70202 0.0106
C 17.2572 34.07121 -0.01154
C 19.59886 32.63302 -0.01721
C 20.90533 31.96805 -0.02422
C 20.88226 30.49383 0.01277
C 19.78435 28.43367 -0.01527
C 28.26281 22.0431 0.01259
C 22.12672 29.80935 -0.02118
C 23.37349 27.65556 -0.00178
C 25.75364 23.45338 -0.00802
C 25.76656 22.0433 -0.00218
C 24.55174 21.30128 -0.01654
C 24.57355 19.87031 -0.00037
C 25.86298 19.14209 -0.0032
C 25.74667 17.71073 0.00622
C 24.58728 17.02077 -0.02815
C 24.56095 15.62848 -0.00942
C 25.78699 14.86144 0.00487
C 25.77345 13.51522 0.00826
C 25.80713 0.71952 -0.00294
C 24.58974 34.07822 0.00152
C 27.05647 32.66978 0.01257
C 28.28251 31.86191 0.02316
C 28.30564 30.51156 0.04185
C 27.0485 29.79996 0.00194
C 27.06204 28.40904 -0.00621
C 28.37276 27.77319 0.02611
C 28.29257 26.28126 0.02198
C 27.03719 25.50577 0.01094
C 27.04427 24.11504 0.00235
C 24.58338 24.1743 0.00195
C 22.08212 28.41836 0.00733
C 24.5892 25.54783 0.00996
C 25.86794 27.73089 0.00367
C 23.37027 26.27863 0.00768
C 22.11969 25.58612 -0.0276
C 22.10346 24.10635 0.03005
C 23.33379 23.45398 -0.04078
C 23.35622 22.02536 0.02117
C 22.11876 21.29638 0.02737
C 22.13009 19.88335 -0.00498
C 23.36806 19.1587 0.00135
C 23.33991 17.72889 0.03102
C 22.13521 17.01791 0.02555
C 22.1533 15.59572 0.01423
C 23.36857 14.94015 -0.00285
C 23.37853 13.50617 -0.009
C 22.14762 12.77173 -0.01199
C 23.35054 0.69941 -0.00229
C 22.16602 0.0319 -0.00938
C 24.59599 32.70662 -0.0264
C 25.85798 31.94086 -0.01154
C 25.80582 30.49609 0.00684
C 24.65326 29.79845 -0.01052
C 24.58581 28.42311 -0.01679
C 25.85521 26.29301 0.04306
C 2.44532 32.70661 -0.00039
