395
Graphene
C 0.0136 0.02625 0.01295
C 16.03102 26.24102 0.00444
C 14.70611 25.61038 -0.00925
C 14.78135 24.1619 0.01877
C 16.00033 23.41784 0.01363
C 14.7697 11.36002 -0.02162
C 15.98776 10.67749 0.00415
C 15.94769 9.20115 -0.0014
C 14.73033 8.51546 0.02162
C 14.73843 6.99176 0.0076
C 15.97706 27.68036 -0.01789
C 16.03099 6.40759 0.01241
C 14.77786 4.23949 0.01945
C 14.77409 2.84124 0.01416
C 16.01243 2.11219 0.03542
C 15.98671 0.77673 0.02299
C 14.78291 34.0511 0.00244
C 17.22784 32.60068 -0.01717
C 18.41366 31.90388 0.05265
C 18.48005 30.44634 -0.01952
C 17.15606 29.79178 -0.02813
C 15.97194 4.98775 -0.01454
C 14.75984 28.36269 0.02894
C 14.72848 29.87497 -0.02971
C 15.91871 30.58693 0.00165
C 13.56681 32.01874 -0.01062
C 13.54097 30.56025 -0.00033
C 12.30314 29.83465 0.03589
C 12.31327 28.40529 -0.02759
C 13.51899 27.70397 0.0402
C 13.52832 26.27069 0.00572
C 12.30463 25.58953 0.03592
C 12.30034 24.2345 0.00406
C 13.52037 10.66465 0.00943
C 13.49792 9.30355 0.02841
C 12.30912 8.46988 -0.01111
C 12.31766 7.11821 -0.01275
C 13.55374 6.41206 0.00985
C 13.5903 4.97217 -0.02245
C 12.2709 4.225 -0.00428
C 12.29178 2.87448 0.03101
C 13.53253 2.08741 -0.01536
C 13.47771 0.69033 -0.02689
C 12.31944 0.00845 -0.01046
C 14.86269 32.66719 -0.00891
C 16.01176 31.96257 0.02819
C 17.23025 28.40627 0.00374
C 18.40416 27.76044 0.00052
C 18.4487 26.30756 -0.03682
C 17.21085 25.50759 0.01965
C 19.68162 28.36792 -0.00289
C 20.95211 27.73627 0.00028
C 20.92698 26.24637 -0.02213
C 19.64821 25.57902 0.03698
C 19.65367 24.12807 -0.00109
C 20.91441 23.39505 -0.00491
C 20.93973 22.05236 0.03338
C 19.69219 21.26605 -0.0258
C 19.67341 19.87208 -0.0331
C 20.8931 19.17765 -0.00316
C 20.93581 17.71588 0.02188
C 19.65 17.0389 -0.01979
C 19.66023 15.62219 0.02691
C 20.92323 14.8699 -0.01581
C 20.92664 13.45948 0.01452
C 19.6686 12.79719 0.04892
C 19.64916 11.35892 -0.00111
C 20.86082 10.64577 -0.03557
C 20.86455 9.26706 0.03754
C 19.67115 8.53837 0.01739
C 19.64921 7.1077 0.00755
C 19.69921 29.77619 -0.00066
C 12.30627 32.67625 0.01364
C 20.90984 30.5417 0.00213
C 19.69022 32.70485 -0.04147
C 17.25498 24.13 0.02058
C 18.44385 23.43652 -0.01957
C 18.44213 21.9668 -0.0108
C 17.20939 21.28228 -0.00368
C 18.44673 19.10584 -0.02696
C 18.49582 17.80187 -0.00114
C 18.42879 14.92931 0.00228
C 18.39747 13.5025 0.00798
C 17.14346 12.81419 0.00422
C 17.21304 11.33978 0.0351
C 18.39055 10.63283 -0.03113
C 18.44451 9.23374 0.02098
C 17.25759 8.49006 0.01848
C 17.20232 7.09454 -0.00619
C 18.43208 6.35181 -0.02162
C 18.40614 4.95927 0.00889
C 17.20849 4.24418 -0.00481
C 17.16811 2.81719 0.00979
C 18.47418 2.12611 0.01443
C 18.48081 0.71417 0.03505
C 17.1905 0.04016 -0.02815
C 20.92409 31.93305 -0.05302
C 20.88972 6.39022 -0.0054
C 9.84476 0.01762 -0.00719
C 11.07912 2.1908 0.02339
C 2.43772 4.23325 -0.00279
C 2.45117 2.86814 0.01996
C 3.65735 2.15082 -0.03996
C 3.66906 0.70713 0.01465
C 2.45868 34.07931 -0.00074
C 4.93293 32.70404 -0.00518
C 6.19205 31.91374 0.0086
C 6.16239 30.55213 -0.00643
C 4.92303 29.85812 0.017
C 3.70295 4.96593 0.01226
C 4.87928 28.45994 -0.03113
C 6.15166 26.29023 -0.00094
C 4.89579 25.51928 0.02322
C 4.89939 24.1152 -0.00725
C 6.12289 23.4535 -0.05697
C 6.17665 21.98658 0.01087
C 4.98886 21.30331 -0.01343
C 4.87954 19.88367 0.00988
C 4.95304 15.63194 0.0276
C 4.91888 12.78354 0.01305
C 6.09603 27.67465 -0.02566
C 3.65112 6.45705 0.03828
C 2.44815 7.10384 0.0174
C 2.49886 8.50632 0.0073
C 3.65072 30.54968 -0.01977
C 2.49907 29.79518 -0.00561
C 2.44311 28.36193 0.00208
C 3.73872 27.68883 0.01707
C 3.63126 26.25651 0.02769
C 2.47299 25.61112 -0.03291
C 2.44303 24.1724 -0.04999
C 3.68407 23.42161 0.04505
C 3.70303 22.02402 0.03284
C 2.44331 21.21756 -0.04307
C 2.47281 19.86929 0.03189
C 3.72595 19.20114 0.00031
C 3.66938 17.78887 -0.003
C 2.43674 17.05523 0.01402
C 2.41105 15.58758 0.02379
C 3.68505 14.92664 0.00907
C 3.73143 13.49801 0.00643
C 2.45252 12.75327 -0.01509
C 2.46871 11.37576 0.03267
C 3.71396 10.71706 0.02374
C 3.68942 9.23695 0.00402
C 4.9659 11.37936 -0.00077
C 6.19881 10.66319 0.03368
C 6.18376 9.25921 -0.02929
C 4.89489 8.43517 -0.00966
C 7.36837 2.84261 0.00685
C 8.57545 2.12958 0.02888
C 8.55949 0.65787 -0.00482
C 7.36354 34.0643 -0.01384
C 9.83346 32.68159 0.03693
C 11.04421 31.95849 0.01745
C 11.07629 30.4843 0.00488
C 9.79547 29.85696 -0.01004
C 9.81434 28.44721 -0.02896
C 11.09225 27.72872 -0.00131
C 11.0607 26.25247 -0.01118
C 9.83392 25.54951 -0.014
C 9.85904 24.18336 0.02147
C 11.06847 10.66066 0.00373
C 11.04632 9.30187 -0.00191
C 9.8996 8.50798 0.00438
C 9.8401 7.15369 0.01291
C 11.07995 6.42211 0.00093
C 11.10113 5.01452 0.00057
C 9.80676 4.34938 -0.01634
C 9.83169 2.88997 -0.00334
C 7.40428 4.28977 0.00895
C 11.02512 0.73299 0.01641
C 8.62496 5.02848 0.00393
C 7.38108 7.11236 -0.0008
C 4.91307 7.07965 -0.03337
C 6.12673 6.43353 0.01227
C 6.15396 5.03433 0.00873
C 4.94581 4.26285 -0.00049
C 4.86302 2.83284 0.00848
C 6.12884 2.17315 -0.01303
C 6.15177 0.71286 -0.01378
C 4.95304 34.06493 0.02635
C 7.34316 32.70845 0.0127
C 8.58379 31.97379 0.01396
C 8.65094 30.60561 0.01849
C 7.41725 29.78523 -0.01142
C 7.36473 28.40158 -0.00562
C 8.56479 27.65588 -0.00494
C 8.62123 26.26705 0.00054
C 7.35831 25.5681 0.03007
C 7.31141 24.13956 -0.00095
C 7.34356 11.36068 0.01572
C 8.51426 10.60033 -0.04848
C 8.63489 9.26867 -0.00892
C 7.3213 8.52203 -0.01362
C 8.61906 6.4387 0.0288
C 3.67928 31.92361 0.02784
C 20.89288 4.97013 0.00667
C 19.6765 2.85993 -0.017
C 30.78175 6.405 0.01908
C 30.76569 5.02148 0.07705
C 29.48588 4.24204 0.0103
C 29.51088 2.85081 0.02108
C 30.73211 2.1227 0.00716
C 30.69979 0.74543 0.00307
C 29.5482 34.06274 0.00346
C 31.96837 32.61542 0.01713
C 33.25065 31.92062 -0.01694
C 29.51569 7.12182 0.01518
C 33.2024 30.54459 0.01428
C 32.00889 28.39721 0.0544
C 33.20162 27.69457 0.00026
C 33.18625 26.25945 0.00682
C 31.94986 25.57925 -0.01779
C 32.02437 24.18739 0.03794
C 33.22211 23.35643 0.01927
C 33.24596 21.9668 0.01574
C 32.01009 21.31986 -0.02383
C 31.96965 19.9209 -0.01429
C 31.9867 29.77055 -0.02142
C 29.46309 8.53424 -0.00971
C 30.7824 9.20681 -0.03735
C 30.71524 10.59558 -0.00944
C 29.47252 32.67897 0.01177
C 30.72828 31.9134 0.04266
C 30.70685 30.5484 0.01324
C 29.49978 29.81697 0.0014
C 29.52898 28.33626 0.00924
C 30.79148 27.66158 0.02326
C 30.72497 26.2868 0.00261
C 29.56157 25.52211 0.03265
C 29.50964 24.03395 -0.02049
C 30.7659 23.44669 -0.01854
C 30.78602 22.01054 -0.01415
C 29.51622 21.30186 -0.03039
C 29.52881 19.84675 0.01836
C 30.73992 19.16939 0.03531
C 30.73789 17.74278 -0.00669
C 29.52049 17.09324 0.0101
C 29.50598 15.6163 0.01705
C 30.80478 14.96325 -0.0405
C 30.71276 13.52036 -0.01303
C 29.50864 12.79473 -0.01461
C 29.52172 11.35161 -0.02155
C 33.2381 19.21232 -0.0136
C 33.22029 17.75194 0.00594
C 31.9554 17.00952 -0.02474
C 31.99727 15.62977 0.00369
C 1.21834 22.03625 0.02712
C 0.02491 21.34641 -0.02213
C 34.39926 19.82338 0.01951
C 1.20472 19.15689 -0.01678
C 1.21007 17.74109 0.01223
C 0.0511 17.0172 0.00648
C 34.37312 15.58142 0.02114
C 1.17863 14.91847 -0.02957
C 1.21713 13.45938 0.00343
C 34.4109 12.75436 -0.02656
C 34.40399 11.31696 -0.02442
C 1.21887 10.72595 -0.00027
C 1.23931 9.26722 -0.00583
C 34.4271 8.52425 -0.02302
C 34.42834 7.08882 -0.02849
C 1.17383 6.34776 0.02931
C 1.16078 4.96896 0.00628
C 34.42975 4.24723 -0.0345
C 0.03917 2.78504 -0.00931
C 1.2618 2.13108 -0.00939
C 1.21874 0.74491 -0.00468
C 1.23265 23.47154 0.00723
C 27.04783 0.03617 -0.00416
C 34.40282 24.16043 0.03076
C 1.21748 26.25917 -0.00598
C 33.21459 14.91966 0.00455
C 33.23483 13.47677 -0.00644
C 31.97475 12.78565 -0.01839
C 31.94241 11.31468 0.00137
C 33.16717 10.63549 0.00199
C 33.1725 9.24825 0.04381
C 31.96423 8.57665 0.02806
C 31.97005 7.07386 0.01504
C 33.19565 6.36994 -0.00069
C 33.15784 4.96129 0.04926
C 31.97217 4.28838 -0.03838
C 32.01275 2.86201 0.00349
C 33.14184 2.06801 -0.00323
C 33.17386 0.68613 -0.00841
C 31.98485 34.07924 0.0001
C 34.42101 32.61926 -0.02927
C 1.20479 31.97204 -0.01404
C 1.25824 30.49169 0.01027
C 0.00687 29.81367 0.01831
C 0.03395 28.42812 -0.01037
C 1.21333 27.65708 -0.00439
C 0.01057 25.53431 -0.05239
C 19.66675 4.2363 0.00143
C 28.25387 0.6914 0.01699
C 27.06674 2.84945 0.01259
C 23.38899 9.20414 -0.01662
C 22.118 8.54554 -0.01185
C 22.08811 7.08154 0.01126
C 23.3013 6.34676 0.01852
C 23.36 4.90089 -0.00381
C 22.10301 4.25867 0.03046
C 22.18363 2.82923 0.0296
C 23.39008 2.11036 0.03374
C 23.28469 0.71156 -0.02845
C 23.31087 10.60081 -0.00478
C 22.14337 34.06482 -0.03213
C 25.84417 31.92407 0.01153
C 25.83134 30.47102 0.02734
C 24.61723 29.77046 -0.0055
C 24.61971 28.39159 0.01515
C 25.80122 27.70395 -0.00225
C 25.82991 26.23796 0.00071
C 24.56006 25.52388 -0.01107
C 24.58229 24.15448 -0.01586
C 25.86391 23.39667 -0.01971
C 24.67129 32.67086 0.02239
C 22.0956 11.31293 0.01511
C 22.13758 12.75096 0.00199
C 23.38965 13.47764 0.01087
C 20.92044 2.13903 0.00364
C 20.95762 0.7354 -0.00831
C 19.65683 0.0083 -0.02957
C 22.13958 32.68393 -0.04422
C 23.40732 31.96568 0.00654
C 23.40738 30.52848 -0.00703
C 22.17574 29.85229 -0.04076
C 22.17653 28.44277 -0.00652
C 23.40492 27.6215 0.0058
C 23.35285 26.2663 -0.00865
C 22.16846 25.57655 0.00675
C 22.10788 24.18992 -0.00311
C 23.34423 23.42318 0.00742
C 23.37632 22.00245 -0.01594
C 22.11795 21.31212 0.0106
C 22.12079 19.8827 -0.01154
C 23.3803 19.191 -0.01721
C 23.32445 17.80579 -0.02422
C 22.12982 16.98978 0.01277
C 22.13755 15.64398 0.00096
C 23.38094 14.9103 -0.01527
C 25.84673 21.98328 -0.02118
C 24.52537 21.26483 0.00733
C 24.608 19.87994 -0.00178
C 25.78564 19.14661 0.00768
C 27.18146 25.62458 -0.00218
C 27.0291 24.17975 -0.01654
C 28.28154 23.40251 -0.00037
C 28.31064 21.99855 -0.0032
C 26.97414 21.29963 0.00622
C 26.99001 19.8742 -0.02815
C 28.2458 19.15626 -0.00942
C 28.24714 17.73646 0.00487
C 27.06372 17.00928 0.00826
C 26.9696 15.59822 -0.00294
C 28.27689 14.90642 0.00152
C 28.25372 13.50848 0.01257
C 27.01548 12.74123 0.02316
C 27.02947 11.36831 0.04185
C 28.28742 10.6581 0.00194
C 28.27943 9.22698 -0.00621
C 27.04868 8.53464 0.02611
C 27.06875 7.02526 0.02198
C 28.32433 6.37742 0.01094
C 28.28003 4.94796 0.00235
C 27.0468 4.24873 0.01495
C 28.37254 26.34022 -0.00802
C 28.29325 2.13071 0.01799
C 28.25172 27.64744 0.00195
C 27.05845 29.80752 0.04306
C 25.81392 17.79526 -0.0276
C 24.54616 17.07354 0.03005
C 24.57107 15.59486 -0.04078
C 25.8478 14.94913 0.02117
C 25.86724 13.51675 0.02737
C 24.61343 12.81486 -0.00498
C 24.57714 11.33044 0.00135
C 25.81827 10.67023 0.03102
C 25.8168 9.21634 0.02555
C 24.56385 8.50145 0.01423
C 24.56859 7.06325 -0.00285
C 25.82711 6.36187 -0.009
C 25.81065 4.94216 -0.01199
C 24.59211 4.27028 -0.00229
C 24.62709 2.83811 -0.00938
C 25.81606 2.18934 -0.0264
C 25.88352 0.75683 -0.01154
C 24.55395 0.01301 0.00684
C 27.06601 32.60491 -0.01052
C 28.30838 31.95728 -0.01679
C 28.28806 30.5847 0.00367
C 27.05904 28.37729 0.00996
C 2.45146 32.60825 -0.01979
