398
Graphene
C 34.40746 0.00286 0.01295
C 15.6956 15.09259 0.02894
C 15.89297 13.64044 -0.01789
C 14.69359 12.95594 0.00444
C 14.53681 11.53509 -0.00925
C 15.79779 10.68491 0.01877
C 15.75796 9.27781 0.01363
C 14.62104 8.55984 -0.02162
C 14.81123 7.11547 0.00415
C 16.02556 6.5436 -0.0014
C 14.53807 15.86222 -0.02971
C 16.02896 4.97613 0.02162
C 14.74808 2.83408 0.01241
C 16.0415 2.16286 -0.01454
C 16.04938 0.71668 0.01945
C 14.83065 0.00612 0.01416
C 17.22169 32.75322 0.03542
C 18.4208 32.0252 0.02299
C 18.44498 30.57872 0.00244
C 17.15782 29.83478 -0.01717
C 17.15928 28.42022 0.05265
C 14.8464 4.28233 0.0076
C 14.44328 17.28875 0.00165
C 15.78857 17.97249 0.02819
C 16.13526 19.32043 -0.00891
C 12.16031 8.43352 -0.00719
C 12.32139 7.10339 0.01364
C 13.58374 6.37825 -0.01062
C 13.53177 4.99934 -0.00033
C 12.34583 4.20578 0.03589
C 12.32022 2.82208 -0.02759
C 13.51863 2.07263 0.0402
C 13.54031 0.6485 0.00572
C 12.37428 0.04276 0.03592
C 14.78299 32.67999 0.00406
C 16.04113 32.04243 0.00943
C 16.02309 30.55573 0.02841
C 14.71849 29.84794 -0.01111
C 14.68122 28.39154 -0.01275
C 15.93218 27.71564 0.00985
C 15.89451 26.1901 -0.02245
C 14.6791 25.52574 -0.00428
C 14.28016 24.11093 0.03101
C 15.52199 23.11248 -0.01536
C 15.75442 21.71457 -0.02689
C 15.11458 20.31206 -0.01046
C 18.33375 27.65915 -0.01952
C 18.35712 26.08962 -0.02813
C 17.01089 25.38656 0.00374
C 16.83337 23.89484 0.00052
C 20.9386 30.4844 0.00213
C 19.64436 29.8049 -0.00066
C 19.6369 28.4158 -0.00289
C 20.88592 27.60872 0.00028
C 20.84099 26.21599 -0.02213
C 19.62013 25.53047 0.03698
C 19.56132 24.05623 -0.00109
C 20.83686 23.45021 -0.00491
C 20.86538 22.02019 0.03338
C 19.67621 21.3165 -0.0258
C 19.70201 19.93781 -0.0331
C 20.96358 19.11267 -0.00316
C 20.85138 17.72357 0.02188
C 19.574 17.12413 -0.01979
C 19.55797 15.69419 0.02691
C 20.83008 14.89966 -0.01581
C 20.8454 13.49844 0.01452
C 19.59722 12.74796 0.04892
C 19.59563 11.29538 -0.00111
C 20.74657 10.56491 -0.03557
C 20.80822 9.21455 0.03754
C 21.00669 31.88203 -0.05302
C 13.33768 9.22346 0.01641
C 19.74583 32.54106 -0.04147
C 18.49267 0.65739 0.03505
C 18.23088 23.34521 -0.03682
C 18.33826 21.95712 0.01965
C 17.12714 21.32643 0.02058
C 17.33185 19.96004 -0.01957
C 18.52052 19.22018 -0.0108
C 18.33505 17.76263 -0.00368
C 16.98817 17.13892 -0.02696
C 17.0317 15.67812 -0.00114
C 18.37492 14.92024 0.00228
C 18.36593 13.51235 0.00798
C 17.12985 12.83024 0.00422
C 17.11919 11.39 0.0351
C 18.31628 10.66078 -0.03113
C 18.38347 9.28098 0.02098
C 17.10096 8.64691 0.01848
C 17.20727 7.18895 -0.00619
C 18.39363 6.38561 -0.02162
C 18.52464 4.94811 0.00889
C 17.26949 4.22816 -0.00481
C 17.25105 2.8169 0.00979
C 18.53516 2.04088 0.01443
C 17.28809 0.03554 -0.02815
C 13.55501 10.59812 0.02339
C 13.64863 18.49698 -0.00334
C 13.84796 19.98198 -0.01634
C 6.07455 32.00702 0.0174
C 6.15242 30.52958 0.03828
C 4.91215 29.81351 0.01226
C 4.86461 28.38638 -0.00279
C 6.10973 27.71451 0.01996
C 6.08791 26.26628 -0.03996
C 4.80933 25.67229 0.01465
C 4.86387 24.15931 -0.00074
C 6.08934 23.55151 -0.00518
C 6.03663 22.14595 0.0086
C 4.86564 21.34514 -0.00643
C 4.828 20.00631 0.017
C 4.69278 8.58237 -0.03113
C 4.85237 7.27288 -0.02566
C 6.16894 6.50068 -0.00094
C 6.16483 5.1018 0.02322
C 4.82426 4.29493 -0.00725
C 4.93301 2.84011 -0.05697
C 6.15866 2.1998 0.01087
C 6.114 0.80228 -0.01343
C 4.93514 0.10762 0.00988
C 4.85645 32.67182 0.0073
C 7.34014 32.67446 0.0276
C 2.45762 0.05664 0.00402
C 3.65374 2.14993 0.03267
C 3.55125 30.60631 -0.00449
C 2.40391 29.88493 -0.01979
C 2.33743 28.47077 0.02784
C 3.66985 27.76958 -0.01977
C 3.63199 26.33318 -0.00561
C 2.4375 25.63505 0.00208
C 2.36448 24.20588 0.01707
C 3.55264 23.36416 0.02769
C 3.53306 22.06709 -0.03291
C 2.3603 21.22411 -0.04999
C 2.44592 19.85959 0.04505
C 3.65045 19.35339 0.03284
C 2.23035 16.50698 -0.04307
C 2.44672 11.39542 0.03189
C 3.49021 9.27421 0.00031
C 2.34072 8.54426 -0.003
C 2.42464 7.13642 0.01402
C 3.65522 6.45273 0.02379
C 3.59121 4.99366 0.00907
C 2.44609 4.2567 0.00643
C 2.39018 2.89744 -0.01509
C 3.64959 0.7703 0.02374
C 19.573 8.5172 0.01739
C 8.61825 32.05967 0.01305
C 7.39155 29.87236 0.03368
C 11.31823 23.44763 0.00393
C 10.9295 22.10681 0.00895
C 9.79669 21.54626 0.00685
C 9.95903 7.27846 0.02888
C 11.11596 6.42209 -0.00482
C 11.00526 5.03481 -0.01384
C 9.79134 4.32905 0.03693
C 9.81724 2.97074 0.01745
C 11.02624 2.26839 0.00488
C 11.14238 0.80254 -0.01004
C 9.86612 0.05717 -0.02896
C 12.32378 32.68719 -0.00131
C 13.54274 31.99457 -0.01118
C 13.52567 30.58334 -0.014
C 12.19596 29.88294 0.02147
C 12.22866 28.48168 0.00373
C 13.43614 27.73174 -0.00191
C 13.35705 26.31855 0.00438
C 12.32452 25.47339 0.01291
C 12.72085 24.12592 0.00093
C 12.34696 18.89319 0.00057
C 9.94018 24.21941 0.0288
C 8.52854 30.57157 -0.00077
C 9.85334 25.58102 -0.0008
C 11.01521 27.78551 -0.00892
C 7.33997 28.40947 -0.02929
C 8.63455 27.66495 -0.00966
C 8.60087 26.2338 -0.03337
C 7.38037 25.58133 0.01227
C 7.3993 24.13975 0.00873
C 8.66956 23.50542 -0.00049
C 8.46612 21.99003 0.00848
C 7.23275 21.28812 -0.01303
C 7.38793 7.2324 -0.01378
C 8.62169 6.62272 0.02635
C 8.60676 5.12729 0.0127
C 7.48907 4.39742 0.01396
C 7.46169 2.98217 0.01849
C 8.59518 2.27109 -0.01142
C 8.60378 0.76876 -0.00562
C 7.38748 0.07108 -0.00494
C 9.86939 32.72176 0.00054
C 11.10409 32.04629 0.03007
C 11.01203 30.56404 -0.00095
C 9.80869 29.93021 0.01572
C 9.81121 28.47191 -0.04848
C 11.04643 26.29092 -0.01362
C 19.64094 7.13678 0.00755
C 20.91118 6.35106 -0.0054
C 20.96956 4.92173 0.00667
C 29.49151 7.11309 0.01518
C 30.76146 6.43139 0.01908
C 30.731 5.00395 0.07705
C 29.54776 4.2529 0.0103
C 29.55462 2.81962 0.02108
C 30.70264 2.04626 0.00716
C 30.80762 0.68022 0.00307
C 29.5788 0.02474 0.00346
C 31.98065 32.6258 0.01713
C 33.17678 31.95088 -0.01694
C 33.16827 30.52476 0.01428
C 31.98059 29.76086 -0.02142
C 31.97008 28.37179 0.0544
C 33.21471 27.60751 0.00026
C 33.13887 26.18324 0.00682
C 31.91524 25.55413 -0.01779
C 31.90883 24.06167 0.03794
C 33.1383 23.37829 0.01927
C 33.12769 21.97187 0.01574
C 31.88985 21.30455 -0.02383
C 31.93192 19.82642 -0.01429
C 29.4558 8.63374 -0.00971
C 33.13032 19.19924 -0.0136
C 30.74283 9.28403 -0.03735
C 29.48246 11.38646 -0.02155
C 27.17794 34.0447 -0.00416
C 29.61116 32.62097 0.01177
C 30.77146 31.94553 0.04266
C 30.72792 30.4955 0.01324
C 29.5806 29.771 0.0014
C 29.4682 28.40343 0.00924
C 30.75497 27.73643 0.02326
C 30.69677 26.23472 0.00261
C 29.47162 25.55975 0.03265
C 29.52925 24.17006 -0.02049
C 30.7297 23.3979 -0.01854
C 30.72962 21.9802 -0.01415
C 29.51635 21.27594 -0.03039
C 29.45367 19.81242 0.01836
C 30.69499 19.17193 0.03531
C 30.65122 17.73242 -0.00669
C 29.45652 17.06478 0.0101
C 29.40126 15.62889 0.01705
C 30.62725 14.94136 -0.0405
C 30.64373 13.45401 -0.01303
C 29.40858 12.7908 -0.01461
C 30.68998 10.73055 -0.00944
C 28.35499 0.73576 0.01699
C 33.10692 17.75577 0.00594
C 31.83599 15.6138 0.00369
C 1.22951 21.97487 0.02712
C 34.41078 21.29998 -0.02213
C 34.39544 19.82874 0.01951
C 1.26529 19.09642 -0.01678
C 1.26626 17.54226 0.01223
C 34.32846 17.02155 0.00648
C 34.37836 15.64657 0.02114
C 1.25984 14.96265 -0.02957
C 1.18962 13.62781 0.00343
C 34.41852 12.81977 -0.02656
C 34.4074 11.39969 -0.02442
C 1.20667 10.66557 -0.00027
C 1.13781 9.24565 -0.00583
C 34.38662 8.51853 -0.02302
C 0.01519 7.11793 -0.02849
C 1.16729 6.36996 0.02931
C 1.15586 5.0112 0.00628
C 0.02201 4.25122 -0.0345
C 0.05514 2.83718 -0.00931
C 1.20177 2.15692 -0.00939
C 1.23328 0.71769 -0.00468
C 1.13454 23.36639 0.00723
C 31.93314 17.06122 -0.02474
C 34.3242 24.049 0.03076
C 1.13864 26.2599 -0.00598
C 33.10569 14.90788 0.00455
C 33.15056 13.51573 -0.00644
C 31.92365 12.83031 -0.01839
C 31.89561 11.45027 0.00137
C 33.18333 10.62117 0.00199
C 33.09855 9.22338 0.04381
C 31.88811 8.50826 0.02806
C 31.98626 7.10731 0.01504
C 33.21209 6.39363 -0.00069
C 33.21962 4.98469 0.04926
C 32.04886 4.28504 -0.03838
C 32.01456 2.80127 0.00349
C 33.25556 2.12772 -0.00323
C 33.22818 0.77576 -0.00841
C 32.06242 34.00369 0.0001
C 34.38791 32.69324 -0.02927
C 1.20087 31.99732 -0.01404
C 1.16294 30.5658 0.01027
C 34.43306 29.79523 0.01831
C 0.01571 28.37512 -0.01037
C 1.2108 27.64515 -0.00439
C 34.41974 25.49357 -0.05239
C 3.58578 32.01948 0.00211
C 28.26482 2.16897 0.01799
C 27.12006 4.16162 0.01495
C 22.04556 11.34174 0.01511
C 23.31494 10.64881 -0.00478
C 23.30782 9.25166 -0.01662
C 22.07976 8.4857 -0.01185
C 22.05516 7.12704 0.01126
C 23.27236 6.43208 0.01852
C 23.46611 4.98329 -0.00381
C 22.23742 4.24943 0.03046
C 22.20044 2.85152 0.0296
C 23.34459 2.17961 0.03374
C 23.46014 0.80904 -0.02845
C 22.22694 0.03343 -0.03213
C 24.59287 32.5972 0.02239
C 25.87953 31.87038 0.01153
C 25.87387 30.53441 0.02734
C 24.68343 29.86248 -0.0055
C 24.6521 28.38732 0.01515
C 25.78026 27.65396 -0.00225
C 25.74807 26.26515 0.00071
C 24.59738 25.58558 -0.01107
C 24.55115 24.15248 -0.01586
C 22.03344 12.75105 0.00199
C 25.80245 23.52962 -0.01971
C 23.20863 13.38568 0.01087
C 22.08488 15.60913 0.00096
C 19.77262 4.20468 0.00143
C 19.71995 2.76343 -0.017
C 21.00384 2.09823 0.00364
C 20.99539 0.68018 -0.00831
C 19.77546 34.0268 -0.02957
C 22.20584 32.66763 -0.04422
C 23.42181 31.94963 0.00654
C 23.40291 30.54844 -0.00703
C 22.18671 29.79147 -0.04076
C 22.12261 28.39759 -0.00652
C 23.37205 27.71105 0.0058
C 23.3834 26.30143 -0.00865
C 22.09131 25.58873 0.00675
C 22.00258 24.12404 -0.00311
C 23.30134 23.40614 0.00742
C 23.30648 22.08286 -0.01594
C 22.05878 21.30891 0.0106
C 22.07322 19.84825 -0.01154
C 23.26422 19.12691 -0.01721
C 23.3363 17.69286 -0.02422
C 22.02784 16.97936 0.01277
C 23.29245 14.85108 -0.01527
C 26.99384 2.78527 0.01259
C 25.79927 22.01972 -0.02118
C 24.53883 19.82883 -0.00178
C 28.20738 26.16189 -0.00802
C 27.0549 25.51893 -0.00218
C 27.06362 24.18421 -0.01654
C 28.23815 23.4542 -0.00037
C 28.21696 21.94679 -0.0032
C 26.91125 21.31857 0.00622
C 27.00757 19.94237 -0.02815
C 28.14844 19.17533 -0.00942
C 28.14427 17.69919 0.00487
C 26.96865 16.96765 0.00826
C 26.96465 15.55516 -0.00294
C 28.14326 14.92177 0.00152
C 28.14209 13.49693 0.01257
C 26.90638 12.77292 0.02316
C 27.02135 11.41806 0.04185
C 28.20803 10.63036 0.00194
C 28.22015 9.26005 -0.00621
C 26.95903 8.53935 0.02611
C 26.91924 7.01423 0.02198
C 28.25845 6.34172 0.01094
C 28.34975 4.95471 0.00235
C 28.27879 27.61946 0.00195
C 24.52022 21.27069 0.00733
C 27.04219 28.35884 0.00996
C 28.31005 30.46573 0.00367
C 25.74636 19.14695 0.00768
C 25.7896 17.74984 -0.0276
C 24.59121 16.97365 0.03005
C 24.54022 15.57638 -0.04078
C 25.77686 14.85671 0.02117
C 25.68577 13.50566 0.02737
C 24.52352 12.80193 -0.00498
C 24.54226 11.37965 0.00135
C 25.80403 10.68777 0.03102
C 25.77042 9.25358 0.02555
C 24.51399 8.55202 0.01423
C 24.48821 7.1768 -0.00285
C 25.73093 6.42005 -0.009
C 25.87978 4.99116 -0.01199
C 24.66528 4.2247 -0.00229
C 24.62373 2.80716 -0.00938
C 25.87388 2.08893 -0.0264
C 25.88018 0.65795 -0.01154
C 24.63065 34.06476 0.00684
C 27.16774 32.64539 -0.01052
C 28.35105 31.84574 -0.01679
C 27.1372 29.73485 0.04306
C 2.40857 32.69386 0.0064
