369
Graphene
C 34.40174 34.07678 0.01295
C 13.52947 26.25387 -0.01952
C 12.27748 25.6303 -0.02813
C 12.27792 24.20835 0.00374
C 13.57538 23.46953 0.00052
C 13.5722 22.02899 -0.03682
C 12.33009 21.32797 0.01965
C 12.26738 19.92484 0.02058
C 13.4853 19.01666 -0.01957
C 13.46163 17.60154 -0.0108
C 12.22147 4.21928 -0.00368
C 12.43064 2.87594 -0.02696
C 13.57833 2.07188 -0.00114
C 13.55401 0.67222 0.00228
C 12.34993 34.02247 0.00798
C 14.71099 32.70107 0.00422
C 15.92178 31.90765 0.0351
C 15.91612 30.4455 -0.03113
C 14.68285 29.72638 0.02098
C 14.72399 28.33548 0.01848
C 13.49371 27.60743 0.05265
C 16.00895 27.69772 -0.00619
C 12.30694 28.34681 -0.01717
C 13.45516 30.54964 0.02299
C 11.0674 27.74767 0.02819
C 11.05739 26.35229 0.00165
C 9.88532 25.59727 -0.02971
C 9.90063 24.21212 0.02894
C 11.10414 23.44137 -0.01789
C 11.08409 22.04275 0.00444
C 9.86146 21.29726 -0.00925
C 9.83344 19.89766 0.01877
C 11.03638 19.20713 0.01363
C 10.95812 17.78647 -0.02162
C 9.94382 17.22303 0.00415
C 11.19197 4.77107 -0.0014
C 9.86004 4.27395 0.02162
C 9.91774 2.86978 0.0076
C 11.19429 2.08955 0.01241
C 11.09531 0.66332 -0.01454
C 9.83848 0.00368 0.01945
C 12.24828 32.57386 0.01416
C 13.46999 31.96338 0.03542
C 12.32494 29.79115 0.00244
C 9.83524 28.46148 -0.00891
C 15.98306 26.29977 -0.02162
C 14.77946 24.16221 -0.00481
C 17.18871 21.39773 0.04892
C 17.20235 19.92233 -0.00111
C 18.42624 19.11576 -0.03557
C 18.40633 17.67575 0.03754
C 17.14587 17.15252 0.01739
C 18.46526 14.89555 0.00755
C 17.2653 2.8017 -0.0054
C 18.33622 2.18852 0.00667
C 18.48707 0.75714 0.00143
C 17.27714 0.05339 -0.017
C 19.65313 32.57683 0.00364
C 20.915 31.9353 -0.00831
C 20.94278 30.51107 -0.02957
C 19.70301 29.78983 -0.04422
C 19.63394 28.36279 0.00654
C 20.86921 27.68092 -0.00703
C 20.90676 26.21934 -0.04076
C 19.66661 25.52976 -0.00652
C 19.61437 24.17804 0.0058
C 18.38542 22.04565 0.01452
C 14.76697 25.55753 0.00889
C 18.37998 23.47351 -0.01581
C 17.16137 25.60908 -0.01979
C 15.96764 23.44971 0.00979
C 15.95756 22.00113 0.01443
C 14.81412 21.30736 0.03505
C 14.74892 19.90358 -0.02815
C 15.96954 19.21506 -0.04147
C 16.16652 17.79181 -0.05302
C 15.85281 4.91177 0.00213
C 14.88101 4.2032 -0.00066
C 14.73871 2.80133 -0.00289
C 15.97014 2.14503 0.00028
C 16.05907 0.75729 -0.02213
C 14.78663 0.03718 0.03698
C 17.16545 32.69389 -0.00109
C 18.39546 31.95437 -0.00491
C 18.44283 30.51046 0.03338
C 17.1582 29.78734 -0.0258
C 17.2243 28.42873 -0.0331
C 18.46089 27.65239 -0.00316
C 18.45641 26.26439 0.02188
C 17.1445 24.10264 0.02691
C 9.80131 29.79488 -0.01046
C 11.08078 30.49006 -0.02689
C 11.01128 31.93132 -0.01536
C 3.7412 6.39807 -0.03337
C 3.751 4.9943 0.01227
C 2.43312 4.28457 0.00873
C 2.49762 2.88041 -0.00049
C 3.71947 2.13622 0.00848
C 3.6851 0.74803 -0.01303
C 2.48205 0.05714 -0.01378
C 4.8966 32.64452 0.02635
C 6.11732 31.9364 0.0127
C 6.13684 30.56181 0.01396
C 4.901 29.82898 0.01849
C 4.90581 28.41186 -0.01142
C 6.18949 27.74384 -0.00562
C 6.18668 26.2786 -0.00494
C 4.91098 25.56925 0.00054
C 4.94897 24.19429 0.03007
C 6.14699 23.50593 -0.00095
C 6.09458 22.07797 0.01572
C 4.91933 21.33713 -0.04848
C 2.45277 7.06027 -0.00966
C 4.86433 19.89686 -0.00892
C 2.40487 8.57593 -0.02929
C 3.74831 10.64055 -0.00077
C 3.67475 30.57633 0.01996
C 2.4625 29.81955 -0.03996
C 2.51314 28.37962 0.01465
C 3.75679 27.66707 -0.00074
C 3.66136 26.27726 -0.00518
C 2.38232 25.63585 0.0086
C 2.4796 24.20352 -0.00643
C 3.72555 23.42251 0.017
C 3.67608 22.0449 -0.03113
C 2.49976 21.27321 -0.02566
C 2.49319 19.8186 -0.00094
C 3.71909 19.11118 0.02322
C 3.60903 17.72393 -0.00725
C 2.35896 17.09027 -0.05697
C 2.39437 15.69467 0.01087
C 3.63063 14.97842 -0.01343
C 3.71778 13.54758 0.00988
C 2.49698 12.74887 0.0276
C 2.48723 11.33559 0.01305
C 3.68958 9.25057 0.03368
C 6.15345 19.23309 -0.01362
C 6.1264 17.74436 -0.0008
C 4.85364 17.00338 0.0288
C 7.41661 24.11907 0.01641
C 8.64231 23.43958 -0.00719
C 8.64651 22.00443 0.01364
C 7.31927 21.37038 -0.01062
C 7.36339 19.99581 -0.00033
C 8.58745 19.20722 0.03589
C 8.6325 17.77683 -0.02759
C 7.43526 17.05185 0.0402
C 7.39207 15.7289 0.00572
C 7.18782 8.37211 0.03592
C 7.39777 7.08604 0.00406
C 8.5116 6.32478 0.00943
C 8.56413 4.9275 0.02841
C 7.30566 4.31068 -0.01111
C 7.34246 2.84712 -0.01275
C 8.59166 2.17109 0.00985
C 8.592 0.69974 -0.02245
C 7.34149 0.0522 -0.00428
C 9.7911 32.68988 0.03101
C 7.42904 25.54111 0.02339
C 8.62668 26.29699 -0.00334
C 8.67536 27.69699 -0.01634
C 7.42921 28.43161 0.00057
C 4.8752 15.59118 0.00393
C 6.19712 14.93508 0.00895
C 6.18177 13.49284 0.00685
C 4.96458 12.89159 0.02888
C 4.94735 11.41203 -0.00482
C 6.14404 10.78681 -0.01384
C 6.15374 9.36755 0.03693
C 4.88515 8.60684 0.01745
C 4.91691 7.15562 0.00488
C 20.86245 23.45511 -0.00865
C 6.11558 6.45572 -0.01004
C 4.93576 4.23425 -0.00131
C 4.88667 2.87355 -0.01118
C 6.14263 2.19368 -0.014
C 6.11344 0.80194 0.02147
C 4.92805 34.07011 0.00373
C 7.29629 32.69582 -0.00191
C 8.50186 32.01941 0.00438
C 8.62524 30.52965 0.01291
C 7.36242 29.82959 0.00093
C 6.09452 5.03895 -0.02896
C 3.7455 31.95755 -0.00279
C 20.84426 22.04154 0.00675
C 19.63442 19.78257 0.00742
C 30.71491 0.71233 0.00307
C 29.46946 34.05369 0.00346
C 32.01286 32.71129 0.01713
C 33.1706 31.96975 -0.01694
C 33.08237 30.55266 0.01428
C 31.89594 29.78905 -0.02142
C 31.93667 28.36022 0.0544
C 33.21009 27.74754 0.00026
C 33.17411 26.33524 0.00682
C 31.946 25.59457 -0.01779
C 31.96398 24.11476 0.03794
C 33.15665 23.43477 0.01927
C 33.21295 22.04122 0.01574
C 31.98522 21.32134 -0.02383
C 31.99609 19.90068 -0.01429
C 33.194 19.16883 -0.0136
C 33.20854 17.73784 0.00594
C 31.97997 17.01147 -0.02474
C 31.93349 15.64175 0.00369
C 30.81114 2.12602 0.00716
C 33.19884 14.8749 0.00455
C 29.57181 2.78045 0.02108
C 30.7333 4.95165 0.07705
C 29.49361 25.58086 0.03265
C 29.50778 24.16633 -0.02049
C 30.74552 23.40787 -0.01854
C 30.78503 21.99529 -0.01415
C 29.52438 21.30866 -0.03039
C 29.58708 19.9212 0.01836
C 30.79493 19.11152 0.03531
C 30.74384 17.70864 -0.00669
C 29.51584 17.04778 0.0101
C 29.51427 15.66198 0.01705
C 30.70512 14.89096 -0.0405
C 30.72955 13.47471 -0.01303
C 29.56251 12.70237 -0.01461
C 29.47453 11.32629 -0.02155
C 30.66808 10.64369 -0.00944
C 30.68514 9.18037 -0.03735
C 29.48755 8.51485 -0.00971
C 29.48643 7.12864 0.01518
C 30.72128 6.33288 0.01908
C 29.56153 4.24611 0.0103
C 30.74393 26.28498 0.00261
C 33.20518 13.44808 -0.00644
C 31.91779 11.32285 0.00137
C 0.02143 19.86597 0.01951
C 1.21548 19.12773 -0.01678
C 1.16216 17.76517 0.01223
C 34.39217 17.04378 0.00648
C 34.41356 15.60382 0.02114
C 1.2177 14.97957 -0.02957
C 1.25381 13.53238 0.00343
C 0.05173 12.84355 -0.02656
C 0.00308 11.3926 -0.02442
C 1.2151 10.67639 -0.00027
C 1.20407 9.2813 -0.00583
C 0.00707 8.53812 -0.02302
C 0.06691 7.14847 -0.02849
C 1.26194 6.38223 0.02931
C 1.21247 4.94179 0.00628
C 34.38482 4.29419 -0.0345
C 34.42212 2.84601 -0.00931
C 1.23805 2.16626 -0.00939
C 1.18293 0.69453 -0.00468
C 0.00622 21.29396 -0.02213
C 31.97853 12.74174 -0.01839
C 1.32395 21.99629 0.02712
C 34.39027 24.14722 0.03076
C 33.16983 10.63327 0.00199
C 33.17197 9.18047 0.04381
C 31.87907 8.51213 0.02806
C 31.96166 7.03937 0.01504
C 33.22579 6.47872 -0.00069
C 33.20773 5.05535 0.04926
C 31.98779 4.30155 -0.03838
C 31.99051 2.81625 0.00349
C 33.17283 2.11314 -0.00323
C 33.15001 0.73334 -0.00841
C 31.93137 0.00421 0.0001
C 0.04222 32.63648 -0.02927
C 1.29231 31.97716 -0.01404
C 1.20169 30.58483 0.01027
C 34.39719 29.92516 0.01831
C 0.00499 28.47619 -0.01037
C 1.21792 27.76531 -0.00439
C 1.16097 26.31398 -0.00598
C 34.37209 25.57009 -0.05239
C 1.23627 23.43719 0.00723
C 30.71411 27.68706 0.02326
C 29.48929 28.38088 0.00924
C 29.49594 29.79723 0.0014
C 22.13858 17.06892 0.01153
C 22.143 15.6707 0.02734
C 23.34486 14.8462 -0.0055
C 23.49832 13.41239 0.01515
C 23.32241 2.19257 -0.00225
C 23.32405 0.74653 0.00071
C 22.16438 34.05472 -0.01107
C 24.51746 32.62116 -0.01586
C 25.7814 31.91817 -0.01971
C 25.8079 30.53581 -0.02118
C 24.61384 29.72643 0.00733
C 24.54222 28.37042 -0.00178
C 25.83357 27.65778 0.00768
C 25.84709 26.2292 -0.0276
C 24.62864 25.53077 0.03005
C 24.64749 24.13696 -0.04078
C 25.8472 23.37908 0.02117
C 25.81074 21.9621 0.02737
C 24.54465 21.23998 -0.00498
C 23.38691 17.73536 0.02239
C 24.64785 19.85625 0.00135
C 23.38297 19.25078 -0.03213
C 22.06117 21.28374 0.03374
C 20.84572 19.10659 -0.01594
C 20.86385 17.67701 0.0106
C 19.66996 17.01778 -0.01154
C 19.6749 15.55596 -0.01721
C 20.94187 14.915 -0.02422
C 20.6824 2.06978 0.01277
C 20.8791 0.7126 0.00096
C 19.65234 33.9804 -0.01527
C 22.18707 32.64545 0.01087
C 23.37373 31.83535 0.00199
C 23.42478 30.44029 0.01511
C 22.16082 29.78368 -0.00478
C 22.1087 28.35298 -0.01662
C 23.35206 27.59975 -0.01185
C 23.3181 26.21708 0.01126
C 22.16248 25.50192 0.01852
C 22.17039 24.06176 -0.00381
C 23.42235 23.33644 0.03046
C 23.31308 21.90916 0.0296
C 22.06462 19.85688 -0.02845
C 25.84055 19.13019 0.03102
C 25.87862 17.75269 0.02555
C 24.63348 17.05951 0.01423
C 27.05781 15.56485 -0.00294
C 28.28949 14.94872 0.00152
C 28.36898 13.46944 0.01257
C 27.15402 12.7879 0.02316
C 27.15102 11.43341 0.04185
C 28.24573 10.65853 0.00194
C 28.24052 9.19547 -0.00621
C 27.06664 8.41162 0.02611
C 27.14624 7.2835 0.02198
C 28.217 6.44851 0.01094
C 28.22093 4.97478 0.00235
C 27.07081 4.29758 0.01495
C 26.97135 2.89044 0.01259
C 28.2935 2.15739 0.01799
C 28.29061 0.73694 0.01699
C 27.03271 0.05643 -0.00416
C 29.54934 32.62057 0.01177
C 30.74974 32.00044 0.04266
C 30.75201 30.54057 0.01324
C 27.05682 16.9784 0.00826
C 28.26453 17.74296 0.00487
C 28.32268 19.18575 -0.00942
C 27.06249 19.85786 -0.02815
C 24.69139 15.68655 -0.00285
C 25.84214 14.87483 -0.009
C 25.80898 13.43868 -0.01199
C 24.54712 12.86906 -0.00229
C 24.30121 2.7955 -0.00938
C 25.69921 2.20872 -0.0264
C 25.70052 0.71272 -0.01154
C 24.52923 34.07321 0.00684
C 27.07279 32.67516 -0.01052
C 19.58242 21.23658 -0.00311
C 28.25151 31.9219 -0.01679
C 26.98237 29.81764 0.04306
C 26.99914 28.40293 0.00996
C 28.21931 27.71225 0.00195
C 28.26187 26.27679 -0.00802
C 27.05788 25.52669 -0.00218
C 27.05047 24.11624 -0.01654
C 28.28973 23.37612 -0.00037
C 28.26968 21.92876 -0.0032
C 27.06567 21.24316 0.00622
C 28.28655 30.4881 0.00367
C 2.50142 32.8165 0.01226
