332
Graphene
C 34.42719 0.07975 0.01295
C 10.08969 0.14645 0.03505
C 12.18737 32.67018 -0.02815
C 13.35273 31.92613 -0.04147
C 13.47685 30.50743 -0.05302
C 12.24146 29.86223 0.00213
C 12.32187 28.31304 -0.00066
C 13.52105 27.74623 -0.00289
C 11.26273 0.90348 0.01443
C 13.55878 26.29232 0.00028
C 12.36054 24.15507 0.03698
C 13.63366 23.39726 -0.00109
C 13.42959 22.04964 -0.00491
C 12.26045 21.35465 0.03338
C 12.44313 0.07909 -0.0258
C 14.43547 32.70131 -0.0331
C 15.81034 32.14313 -0.00316
C 12.35672 25.57482 -0.02213
C 10.27519 2.66236 0.00979
C 9.76208 19.888 -0.00481
C 9.8633 21.20971 0.00889
C 8.17691 5.61047 -0.03682
C 7.4518 4.4049 0.01965
C 7.6879 3.06121 0.02058
C 8.91332 2.29327 -0.01957
C 8.81547 0.90321 -0.0108
C 7.54428 0.21041 -0.00368
C 9.87659 32.84537 -0.02696
C 10.99418 31.99828 -0.00114
C 11.00432 30.54577 0.00228
C 9.83697 29.89834 0.00798
C 9.906 28.40761 0.00422
C 11.0913 27.66495 0.0351
C 11.07927 26.20808 -0.03113
C 9.83077 25.58539 0.02098
C 9.88427 24.06324 0.01848
C 11.14408 23.39444 -0.00619
C 11.14215 21.95821 -0.02162
C 15.90056 30.68296 0.02188
C 14.67795 29.81597 -0.01979
C 14.68538 28.50248 0.02691
C 15.90173 27.76068 -0.01581
C 19.57348 28.39806 0.00675
C 20.82444 27.76514 -0.00311
C 20.87708 26.2944 0.00742
C 19.65238 25.5634 -0.01594
C 19.71038 24.15143 0.0106
C 20.94272 23.49907 -0.01154
C 20.84102 22.06039 -0.01721
C 21.04156 2.48994 -0.02422
C 20.86927 0.98924 0.01277
C 19.68392 0.21599 0.00096
C 22.01851 32.7003 -0.01527
C 23.32231 31.98506 0.01087
C 23.28514 30.60874 0.00199
C 22.06886 29.82334 0.01511
C 22.03649 28.47531 -0.00478
C 23.31761 27.70793 -0.01662
C 23.31608 26.28838 -0.01185
C 19.57786 29.85037 -0.00865
C 7.23865 6.78655 0.00052
C 20.74379 30.56629 0.0058
C 19.60344 32.82169 -0.04076
C 15.99345 26.29909 0.01452
C 14.81454 25.55921 0.04892
C 14.79365 24.0757 -0.00111
C 15.95636 23.39201 -0.03557
C 13.72459 34.07941 0.03754
C 17.10778 32.73598 0.01739
C 18.41539 32.07744 0.00755
C 18.32707 30.63013 -0.0054
C 17.137 29.91881 0.00667
C 17.11008 28.47002 0.00143
C 18.38167 27.83496 -0.017
C 18.45583 26.29453 0.00364
C 17.23943 25.59691 -0.00831
C 17.2421 24.0668 -0.02957
C 18.50253 23.50658 -0.04422
C 18.33725 0.8552 0.00654
C 17.25696 34.05187 -0.00703
C 20.78962 32.02579 -0.00652
C 22.07366 25.5752 0.01126
C 7.68247 8.23682 0.00374
C 8.53583 14.99375 -0.01952
C 2.50282 8.5408 -0.01118
C 2.36138 7.09124 -0.014
C 3.59677 6.4555 0.02147
C 3.65467 5.02522 0.00373
C 2.44033 4.3296 -0.00191
C 2.47832 2.90537 0.00438
C 3.70815 2.17287 0.01291
C 3.73901 9.23204 -0.00131
C 3.64749 0.81071 0.00093
C 4.97488 32.70047 -0.01634
C 6.23832 32.08036 -0.00334
C 6.17885 30.61011 0.02339
C 4.96817 29.85453 0.01641
C 4.93306 28.43569 -0.00719
C 6.23885 27.70522 0.01364
C 6.28158 26.26328 -0.01062
C 2.47198 0.00468 0.00057
C 3.5745 10.62683 -0.02896
C 2.37139 11.34876 -0.01004
C 2.39726 12.7289 0.00488
C 3.66907 30.53833 0.00054
C 2.48527 29.87855 0.03007
C 2.47682 28.37442 -0.00095
C 3.71211 27.77363 0.01572
C 3.78424 26.29403 -0.04848
C 2.47744 25.59867 -0.00892
C 2.49447 24.24272 -0.01362
C 3.74629 23.48878 -0.0008
C 3.70629 22.0368 0.0288
C 2.4805 21.3666 0.00393
C 2.42316 19.95187 0.00895
C 3.66374 19.17129 0.00685
C 3.62027 17.80175 0.02888
C 2.33538 17.04092 -0.00482
C 2.40913 15.66591 -0.01384
C 3.60469 14.84018 0.03693
C 3.61693 13.43316 0.01745
C 5.00273 25.56738 -0.00033
C 4.94429 24.1373 0.03589
C 6.11851 23.4225 -0.02759
C 6.13494 21.98825 0.0402
C 7.44651 32.80767 -0.00925
C 8.62659 32.07087 0.01877
C 8.71048 30.58912 0.01363
C 7.39457 29.83837 -0.02162
C 7.49824 28.44786 0.00415
C 8.64877 27.66741 -0.0014
C 8.61196 26.13776 0.02162
C 7.42789 25.52989 0.0076
C 7.29152 24.0851 0.01241
C 8.61258 23.39536 -0.01454
C 8.64024 21.89595 0.01945
C 7.36782 21.20759 0.01416
C 7.41986 19.75835 0.03542
C 8.69189 19.00669 0.02299
C 8.53647 17.46614 0.00244
C 7.29687 16.86557 -0.01717
C 7.28186 15.40529 0.05265
C 4.9887 0.16477 0.00444
C 7.93578 9.50197 -0.02813
C 6.2078 0.88027 -0.01789
C 4.95671 2.94383 -0.02971
C 4.9381 21.28346 0.00572
C 4.90381 19.88864 0.03592
C 6.1821 19.02496 0.00406
C 6.0883 17.64257 0.00943
C 4.77907 17.00989 0.02841
C 4.84343 15.49656 -0.01111
C 6.08094 14.69125 -0.01275
C 6.0679 13.34531 0.00985
C 4.81451 12.71251 -0.02245
C 4.8213 11.27103 -0.00428
C 6.01173 10.62455 0.03101
C 6.24751 9.2275 -0.01536
C 4.93428 8.50777 -0.02689
C 4.82666 7.02607 -0.01046
C 6.02046 6.34082 -0.00891
C 6.03364 4.95039 0.02819
C 4.87885 4.30419 0.00165
C 6.28954 2.36375 0.02894
C 22.13179 24.14265 0.01852
C 23.38105 23.41652 -0.00381
C 23.31174 21.95294 0.03046
C 33.16243 27.73895 0.00026
C 33.13662 26.32736 0.00682
C 31.97463 25.53851 -0.01779
C 31.99603 24.09656 0.03794
C 33.16797 23.43285 0.01927
C 33.22351 22.09168 0.01574
C 31.96743 21.34246 -0.02383
C 31.86514 28.36765 0.0544
C 31.86507 19.93512 -0.01429
C 33.1357 17.84472 0.00594
C 31.85093 17.11991 -0.02474
C 31.86563 15.64948 0.00369
C 33.13339 14.98451 0.00455
C 33.10433 13.43156 -0.00644
C 31.90574 12.70909 -0.01839
C 31.94268 11.30099 0.00137
C 33.13059 19.28694 -0.0136
C 31.85877 29.82258 -0.02142
C 33.09285 30.43939 0.01428
C 33.11197 32.02087 -0.01694
C 29.38478 15.54013 0.01705
C 30.70572 14.83297 -0.0405
C 30.68575 13.504 -0.01303
C 29.47604 12.76341 -0.01461
C 29.45889 11.3338 -0.02155
C 30.7194 10.56975 -0.00944
C 30.71586 9.19205 -0.03735
C 29.37681 8.48696 -0.00971
C 29.35926 7.09091 0.01518
C 30.60987 6.32001 0.01908
C 30.56737 4.932 0.07705
C 29.31915 4.26569 0.0103
C 29.37717 2.81755 0.02108
C 30.59815 2.20743 0.00716
C 30.68276 0.71603 0.00307
C 29.43508 0.0132 0.00346
C 31.91772 32.70499 0.01713
C 33.12184 10.6345 0.00199
C 33.17679 9.22133 0.04381
C 31.96648 8.4786 0.02806
C 31.91646 7.04002 0.01504
C 1.1392 17.78961 0.01223
C 34.36154 17.06761 0.00648
C 34.3678 15.70552 0.02114
C 1.09184 14.96077 -0.02957
C 1.11736 13.49477 0.00343
C 34.34537 12.70898 -0.02656
C 34.36278 11.31234 -0.02442
C 1.17051 10.61511 -0.00027
C 1.26475 9.21983 -0.00583
C 34.39807 8.58651 -0.02302
C 34.34443 7.11935 -0.02849
C 1.17091 6.40839 0.02931
C 1.1199 5.01718 0.00628
C 34.26277 4.32156 -0.0345
C 34.38092 2.86113 -0.00931
C 1.2316 2.24766 -0.00939
C 1.16563 0.82358 -0.00468
C 1.19156 19.25992 -0.01678
C 29.38763 17.01542 0.0101
C 34.42396 19.91912 0.01951
C 1.25172 22.04102 0.02712
C 33.0934 6.40032 -0.00069
C 33.0642 4.96155 0.04926
C 31.81994 4.24372 -0.03838
C 31.85439 2.85438 0.00349
C 33.16838 2.10042 -0.00323
C 33.19582 0.69968 -0.00841
C 31.92114 0.03565 0.0001
C 34.36276 32.76996 -0.02927
C 1.10577 31.96535 -0.01404
C 1.23857 30.58514 0.01027
C 34.40821 29.80554 0.01831
C 0.00568 28.43164 -0.01037
C 1.23025 27.71971 -0.00439
C 1.21136 26.30294 -0.00598
C 34.41394 25.59582 -0.05239
C 0.0164 24.22181 0.03076
C 1.30509 23.47089 0.00723
C 34.36958 21.37979 -0.02213
C 30.61883 17.79722 -0.00669
C 30.59962 19.16369 0.03531
C 29.41791 19.85639 0.01836
C 25.68327 17.63026 0.02117
C 25.65661 14.46897 0.02737
C 25.58439 13.08137 -0.00498
C 24.67775 11.89391 0.00135
C 25.80464 10.68021 0.03102
C 25.78846 9.31959 0.02555
C 24.48903 8.61167 0.01423
C 24.39265 7.17646 -0.00285
C 25.57912 6.41703 -0.009
C 25.66694 5.02325 -0.01199
C 24.62425 3.99191 -0.00229
C 24.62664 2.62762 -0.00938
C 25.84919 1.95544 -0.0264
C 25.72094 0.62955 -0.01154
C 24.54302 34.00542 0.00684
C 26.96585 32.60572 -0.01052
C 28.20316 31.92493 -0.01679
C 25.56531 19.06133 -0.04078
C 28.27538 30.54199 0.00367
C 24.25755 19.85226 0.03005
C 25.65289 21.97616 0.00768
C 22.06906 21.29121 0.0296
C 23.43093 9.48365 0.03374
C 23.06099 4.44726 -0.02845
C 22.3353 3.06392 -0.03213
C 23.33323 2.13167 0.02239
C 23.25663 0.73539 0.01153
C 21.99176 0.0937 0.02734
C 24.60333 32.60778 -0.0055
C 25.7481 31.97809 0.01515
C 25.73299 30.58462 -0.00225
C 24.53093 29.88315 0.00071
C 24.49473 28.44299 -0.01107
C 25.76966 27.67152 -0.01586
C 25.85032 26.33373 -0.01971
C 24.55969 25.63619 -0.02118
C 24.60209 24.19772 0.00733
C 25.83034 23.38081 -0.00178
C 24.46764 21.24064 -0.0276
C 3.66462 32.02309 -0.00494
C 26.93812 29.82526 0.04306
C 28.25758 27.73078 0.00195
C 26.82321 4.24899 0.01495
C 26.8905 2.80512 0.01259
C 28.19135 2.12772 0.01799
C 28.24015 0.73878 0.01699
C 26.96882 34.02076 -0.00416
C 29.468 32.64363 0.01177
C 30.68529 31.93934 0.04266
C 30.70387 30.54544 0.01324
C 29.41298 29.81251 0.0014
C 29.48621 28.40029 0.00924
C 30.68192 27.6749 0.02326
C 30.69917 26.29669 0.00261
C 29.47022 25.52636 0.03265
C 29.49478 24.08006 -0.02049
C 30.60991 23.43795 -0.01854
C 30.63967 21.98494 -0.01415
C 29.42173 21.2405 -0.03039
C 28.03419 4.97578 0.00235
C 27.04273 28.34812 0.00996
C 28.08694 6.42018 0.01094
C 26.96185 8.41814 0.02611
C 28.20621 26.27729 -0.00802
C 26.94258 25.59868 -0.00218
C 27.01562 24.14974 -0.01654
C 28.21484 23.46934 -0.00037
C 28.20384 22.00236 -0.0032
C 26.97473 21.29104 0.00622
C 26.97132 19.8722 -0.02815
C 28.17866 19.08194 -0.00942
C 28.13376 17.66802 0.00487
C 26.84613 16.85764 0.00826
C 26.8117 15.39739 -0.00294
C 28.14079 14.73269 0.00152
C 28.21904 13.32837 0.01257
C 27.01074 12.64404 0.02316
C 27.1013 11.28729 0.04185
C 28.25557 10.65568 0.00194
C 28.16822 9.13152 -0.00621
C 26.8536 7.0602 0.02198
C 2.38625 32.69943 -0.00562
