436
Graphene
C 0.05524 34.0013 0.01295
C 13.45205 9.27576 0.02339
C 12.26803 8.54821 0.01641
C 12.22559 7.12183 -0.00719
C 13.53356 6.37551 0.01364
C 13.45873 4.94887 -0.01062
C 12.24244 4.2978 -0.00033
C 12.28043 2.83454 0.03589
C 13.54594 2.16951 -0.02759
C 13.54686 0.67835 0.0402
C 12.32897 0.02381 0.00572
C 14.79331 32.75515 0.03592
C 15.97813 31.95601 0.00406
C 15.96766 30.49781 0.00943
C 14.74808 29.74001 0.02841
C 14.697 28.39444 -0.01111
C 16.00214 27.68292 -0.01275
C 15.99862 26.29945 0.00985
C 14.69699 25.61095 -0.02245
C 14.72198 24.20243 -0.00428
C 15.97936 23.44947 0.03101
C 15.93653 21.9749 -0.01536
C 14.68135 21.27803 -0.02689
C 14.7033 19.82992 -0.01046
C 13.51967 10.70906 -0.00334
C 15.9268 19.20314 -0.00891
C 12.29004 11.36279 -0.01634
C 13.48687 13.62435 0.00093
C 9.74475 4.32698 -0.00892
C 9.90237 2.94145 -0.01362
C 11.04165 2.08992 -0.0008
C 11.0359 0.76741 0.0288
C 9.80402 0.05033 0.00393
C 12.29827 32.70273 0.00895
C 13.52191 31.9505 0.00685
C 13.52433 30.4406 0.02888
C 12.21467 29.85211 -0.00482
C 12.27413 28.49341 -0.01384
C 13.43048 27.70482 0.03693
C 13.38228 26.29469 0.01745
C 12.18685 25.60011 0.00488
C 12.25344 24.22546 -0.01004
C 13.45753 23.45667 -0.02896
C 13.44655 22.0149 -0.00131
C 12.20677 21.35041 -0.01118
C 12.28816 19.86854 -0.014
C 13.48093 19.18037 0.02147
C 13.51672 17.77995 0.00373
C 12.24338 17.13245 -0.00191
C 12.18194 15.74145 0.00438
C 13.44492 15.0154 0.01291
C 12.26688 12.89956 0.00057
C 15.92595 17.76148 0.02819
C 14.73698 17.01058 0.00165
C 14.73445 15.58955 -0.02971
C 18.44546 19.11442 -0.0108
C 18.37526 17.74599 -0.00368
C 17.11935 17.05029 -0.02696
C 17.1506 15.5914 -0.00114
C 18.43755 14.91324 0.00228
C 18.44241 13.45999 0.00798
C 17.20268 12.75973 0.00422
C 17.17522 11.40698 0.0351
C 18.44937 10.63102 -0.03113
C 18.31951 9.23994 0.02098
C 17.17059 8.52564 0.01848
C 17.18282 7.09414 -0.00619
C 18.465 6.38226 -0.02162
C 18.44538 4.97739 0.00889
C 17.19854 4.28245 -0.00481
C 17.10577 2.80256 0.00979
C 18.32691 2.15791 0.01443
C 18.42656 0.76535 0.03505
C 17.21813 0.0378 -0.02815
C 19.63031 32.68487 -0.04147
C 20.85559 31.9662 -0.05302
C 20.95182 30.54578 0.00213
C 19.69534 29.87364 -0.00066
C 17.25095 19.84007 -0.01957
C 17.19211 21.3196 0.02058
C 18.4173 22.03769 0.01965
C 18.3851 23.44107 -0.03682
C 15.96178 14.8845 0.02894
C 15.96351 13.48592 -0.01789
C 14.74989 12.86881 0.00444
C 14.74886 11.4663 -0.00925
C 15.9832 10.64601 0.01877
C 15.944 9.23194 0.01363
C 14.67732 8.54548 -0.02162
C 14.69752 7.11385 0.00415
C 15.93352 6.41 -0.0014
C 15.91653 4.98497 0.02162
C 14.73768 4.28879 0.0076
C 11.01171 4.98693 -0.04848
C 14.80406 2.83881 0.01241
C 15.99581 0.64171 0.01945
C 14.7867 0.04256 0.01416
C 17.26165 32.62857 0.03542
C 18.41769 31.92991 0.02299
C 18.38833 30.47886 0.00244
C 17.14432 29.78075 -0.01717
C 17.20224 28.36396 0.05265
C 18.4264 27.67613 -0.01952
C 18.40039 26.2511 -0.02813
C 17.21513 25.52914 0.00374
C 17.2128 24.14594 0.00052
C 15.93818 2.07044 -0.01454
C 19.62606 28.38257 -0.00289
C 11.06742 6.39472 0.01572
C 9.87283 8.61638 0.03007
C 4.22844 25.52619 -0.02375
C 4.72524 24.20542 0.00558
C 5.9985 23.50257 -0.0059
C 6.12025 22.15178 -0.01386
C 4.93033 21.4104 -0.02805
C 4.86213 19.92775 0.00081
C 6.08313 19.20378 0.00245
C 6.09073 17.77009 0.02728
C 4.9267 16.97972 -0.00039
C 4.9643 15.61478 0.0064
C 6.08991 14.88643 0.00211
C 6.03478 13.52558 -0.00449
C 4.82917 12.76965 -0.01979
C 4.91024 11.31013 0.02784
C 6.10475 10.65508 -0.01977
C 6.0824 9.30635 -0.00561
C 4.8846 8.55766 0.00208
C 4.86481 7.13989 0.01707
C 6.1175 6.47642 0.02769
C 6.11673 5.08879 -0.03291
C 4.87142 4.32822 -0.04999
C 4.901 2.86974 0.04505
C 6.11874 2.15388 0.03284
C 6.35983 31.99026 0.00828
C 6.09166 0.74605 -0.04307
C 4.98479 32.54211 0.00088
C 3.75684 0.66603 -0.00177
C 2.80383 25.52485 0.01984
C 2.41744 24.15057 0.00535
C 3.58345 23.37567 -0.00198
C 3.63827 21.97491 -0.00012
C 2.3685 21.24982 -0.04306
C 2.42604 19.87246 -0.03672
C 3.62095 19.20593 0.01913
C 3.62851 17.78768 0.00267
C 2.42353 16.98591 0.00787
C 2.40597 15.6031 0.02426
C 3.64233 14.92832 0.01218
C 3.58876 13.38189 -0.01471
C 2.4225 12.71447 -0.02827
C 2.43485 11.32616 0.01078
C 3.67276 10.60814 -0.00112
C 3.62234 9.21981 0.03345
C 2.40274 8.54053 0.00748
C 2.39581 7.04454 0.00662
C 3.71612 6.3995 -0.0154
C 3.62397 4.99245 -0.01299
C 2.39371 4.23962 -0.00407
C 2.4971 2.79697 0.01138
C 3.69393 2.05774 0.03278
C 2.52111 0.03769 0.04421
C 4.98718 33.97929 0.03189
C 7.38746 32.88455 0.00031
C 8.64212 31.99945 -0.003
C 9.89576 32.71526 -0.01343
C 11.07878 31.99995 0.00988
C 11.02719 30.62164 0.0276
C 9.81837 29.87929 0.01305
C 9.75077 28.40662 -0.00077
C 11.00028 27.71648 0.03368
C 10.98444 26.33247 -0.02929
C 9.62349 25.72036 -0.00966
C 9.67841 24.33041 -0.03337
C 10.96669 23.59403 0.01227
C 10.95195 22.10248 0.00873
C 9.78696 21.35008 -0.00049
C 9.76349 19.92615 0.00848
C 10.96641 19.18822 -0.01303
C 11.05247 17.80558 -0.01378
C 9.83746 17.10891 0.02635
C 9.79471 15.69631 0.0127
C 11.01088 14.98688 0.01396
C 11.00438 13.559 0.01849
C 9.76823 12.85018 -0.01142
C 9.80128 11.39604 -0.00562
C 11.05313 10.70764 -0.00494
C 11.04772 9.28422 0.00054
C 7.31873 0.14544 0.01087
C 8.60334 0.83144 -0.05697
C 8.63743 2.24837 -0.00725
C 7.40369 2.88607 0.02322
C 8.61255 30.65137 0.01402
C 8.50729 27.86885 0.02379
C 8.37811 26.51804 0.00907
C 7.19364 25.66022 0.00643
C 7.2543 24.31331 -0.01509
C 8.53116 23.54241 0.03267
C 8.60916 22.07644 0.02374
C 7.37671 21.41626 0.00402
C 7.32665 20.0048 0.0073
C 8.54311 19.23531 0.0174
C 8.62487 17.85617 0.03828
C 9.87648 7.21004 -0.00095
C 7.35887 17.12122 0.01226
C 8.55702 14.96525 0.01996
C 8.53525 13.51562 -0.03996
C 7.36877 12.72699 0.01465
C 7.25955 11.32028 -0.00074
C 8.50429 10.65303 -0.00518
C 8.58476 9.25003 0.0086
C 7.39984 8.57185 -0.00643
C 7.41897 7.10933 0.017
C 8.62481 6.50302 -0.03113
C 8.61388 5.04069 -0.02566
C 7.4278 4.31256 -0.00094
C 7.32544 15.63999 -0.00279
C 20.88061 27.72515 0.00028
C 20.83917 26.32095 -0.02213
C 19.64525 25.55327 0.03698
C 30.66859 14.81542 -0.0405
C 30.66345 13.40776 -0.01303
C 29.45111 12.75707 -0.01461
C 29.4809 11.3348 -0.02155
C 30.67153 10.56685 -0.00944
C 30.67988 9.03003 -0.03735
C 29.43216 8.41896 -0.00971
C 29.45524 7.00497 0.01518
C 30.71659 6.18301 0.01908
C 30.72912 4.84128 0.07705
C 29.54867 4.19598 0.0103
C 29.50476 2.7108 0.02108
C 30.73128 2.06804 0.00716
C 30.75283 0.66075 0.00307
C 29.52067 34.07386 0.00346
C 32.05261 32.65753 0.01713
C 33.28087 31.85878 -0.01694
C 33.22698 30.48503 0.01428
C 31.98699 29.81965 -0.02142
C 32.01192 28.41551 0.0544
C 33.2428 27.6697 0.00026
C 33.35577 26.27392 0.00682
C 32.04041 25.60444 -0.01779
C 29.46421 15.56601 0.01705
C 31.93346 24.16125 0.03794
C 29.41715 17.01904 0.0101
C 30.78975 19.09441 0.03531
C 28.28956 9.18194 -0.00621
C 27.0746 8.42104 0.02611
C 26.99065 7.01582 0.02198
C 28.20068 6.33501 0.01094
C 28.28474 4.85252 0.00235
C 27.05815 4.20043 0.01495
C 27.01118 2.8192 0.01259
C 28.23863 2.09581 0.01799
C 28.25949 0.68828 0.01699
C 27.03892 34.05843 -0.00416
C 29.54369 32.64806 0.01177
C 30.73301 31.95613 0.04266
C 30.76276 30.51804 0.01324
C 29.48501 29.86507 0.0014
C 29.50033 28.4391 0.00924
C 30.78971 27.79811 0.02326
C 30.79813 26.29214 0.00261
C 29.49785 25.61284 0.03265
C 29.49664 24.27155 -0.02049
C 30.71609 23.47312 -0.01854
C 30.71965 22.03758 -0.01415
C 29.44881 21.27483 -0.03039
C 29.48585 19.87268 0.01836
C 30.64918 17.70111 -0.00669
C 33.16734 23.48564 0.01927
C 33.0825 22.02373 0.01574
C 31.83607 21.3223 -0.02383
C 34.42034 24.24126 0.03076
C 1.17715 23.46798 0.00723
C 1.17524 21.99468 0.02712
C 34.36141 21.278 -0.02213
C 0.05367 19.86493 0.01951
C 1.21172 19.12584 -0.01678
C 1.18741 17.75987 0.01223
C 34.40663 17.00443 0.00648
C 34.35664 15.54962 0.02114
C 1.05726 14.83163 -0.02957
C 1.18655 13.41717 0.00343
C 0.00264 12.7164 -0.02656
C 34.36453 11.21909 -0.02442
C 1.20163 10.55111 -0.00027
C 1.14319 9.16379 -0.00583
C 34.28378 8.43436 -0.02302
C 34.35745 7.00953 -0.02849
C 1.18218 6.30342 0.02931
C 1.20714 4.87887 0.00628
C 34.41177 4.19692 -0.0345
C 0.00919 2.74309 -0.00931
C 1.23454 2.04186 -0.00939
C 1.21987 0.66602 -0.00468
C 0.12414 25.5852 -0.05239
C 1.49613 26.36067 -0.00598
C 1.30646 27.80706 -0.00439
C 0.02905 28.36098 -0.01037
C 31.93833 19.91181 -0.01429
C 33.21517 19.24645 -0.0136
C 33.19957 17.73486 0.00594
C 31.88142 16.99185 -0.02474
C 31.94063 15.59597 0.00369
C 33.15719 14.91505 0.00455
C 33.15223 13.45398 -0.00644
C 31.93305 12.69723 -0.01839
C 31.94024 11.29958 0.00137
C 33.13129 10.54928 0.00199
C 33.1293 9.14751 0.04381
C 28.2512 10.61851 0.00194
C 31.93604 8.39465 0.02806
C 33.17935 6.278 -0.00069
C 33.21627 4.84172 0.04926
C 31.94117 4.16826 -0.03838
C 31.93242 2.72406 0.00349
C 33.24476 2.01576 -0.00323
C 33.3018 0.59449 -0.00841
C 31.99091 34.02767 0.0001
C 0.09125 32.59031 -0.02927
C 1.32148 31.83073 -0.01404
C 1.32857 30.45276 0.01027
C 0.09736 29.83669 0.01831
C 31.97534 6.9409 0.01504
C 27.03295 11.34932 0.04185
C 26.9828 12.81129 0.02316
C 28.23013 13.41629 0.01257
C 22.11014 28.43622 -0.00652
C 23.34727 27.77153 0.0058
C 23.30512 26.3426 -0.00865
C 22.1308 25.60906 0.00675
C 22.16141 24.23227 -0.00311
C 23.37475 23.46219 0.00742
C 23.28705 22.01688 -0.01594
C 22.06703 21.40032 0.0106
C 22.0752 19.91558 -0.01154
C 23.33844 19.20333 -0.01721
C 23.36692 17.80865 -0.02422
C 22.07594 17.09307 0.01277
C 22.12284 15.6469 0.00096
C 23.38789 14.91852 -0.01527
C 23.36315 13.52244 0.01087
C 22.09237 12.79137 0.00199
C 22.145 11.32479 0.01511
C 23.33895 10.64082 -0.00478
C 23.33767 9.19308 -0.01662
C 22.07656 8.39381 -0.01185
C 22.09185 7.08082 0.01126
C 23.34638 6.41426 0.01852
C 23.34209 5.0298 -0.00381
C 22.11601 29.81887 -0.04076
C 23.38632 30.52093 -0.00703
C 23.23876 31.90207 0.00654
C 22.04104 32.65337 -0.04422
C 19.61438 24.19423 -0.00109
C 20.87089 23.49083 -0.00491
C 20.86529 22.1051 0.03338
C 19.68304 21.33911 -0.0258
C 19.61315 19.90373 -0.0331
C 20.86345 19.1468 -0.00316
C 20.81639 17.72441 0.02188
C 19.55986 17.03763 -0.01979
C 19.60341 15.60805 0.02691
C 20.84083 14.91836 -0.01581
C 20.8797 13.51696 0.01452
C 22.08054 4.30254 0.03046
C 19.66326 12.74737 0.04892
C 20.93259 10.65991 -0.03557
C 20.91102 9.2328 0.03754
C 19.54987 8.56602 0.01739
C 19.67493 7.15927 0.00755
C 20.83165 6.44732 -0.0054
C 20.86003 4.96807 0.00667
C 19.62701 4.26386 0.00143
C 19.62039 2.86427 -0.017
C 20.80822 2.15396 0.00364
C 20.85532 0.7691 -0.00831
C 19.63781 0.0515 -0.02957
C 19.67612 11.30394 -0.00111
C 3.68833 31.93349 0.01073
C 22.06522 2.8401 0.0296
C 23.33145 0.73112 -0.02845
C 24.58211 4.29383 -0.00229
C 24.51229 2.86671 -0.00938
C 25.81716 2.07693 -0.0264
C 25.78378 0.65583 -0.01154
C 24.57884 0.08973 0.00684
C 27.07926 32.70218 -0.01052
C 28.21091 31.93346 -0.01679
C 28.21514 30.50807 0.00367
C 26.96696 29.87071 0.04306
C 26.98463 28.49826 0.00996
C 28.23141 27.70003 0.00195
C 28.30231 26.25168 -0.00802
C 27.03106 25.55618 -0.00218
C 27.07555 24.16414 -0.01654
C 28.27402 23.46706 -0.00037
C 28.20029 21.98677 -0.0032
C 26.96652 21.30958 0.00622
C 26.96287 19.87888 -0.02815
C 28.20186 19.16382 -0.00942
C 28.24283 17.78362 0.00487
C 27.03986 17.05997 0.00826
C 27.09472 15.63685 -0.00294
C 28.24528 14.88186 0.00152
C 25.80902 4.91745 -0.01199
C 25.73245 6.25302 -0.009
C 24.55704 7.13675 -0.00285
C 24.55032 8.54179 0.01423
C 22.07097 0.04601 -0.03213
C 24.48149 32.65709 0.02239
C 25.73376 31.97435 0.01153
C 25.80019 30.55411 0.02734
C 24.60907 29.80745 -0.0055
C 24.56073 28.40734 0.01515
C 25.76791 27.71 -0.00225
C 25.80134 26.2544 0.00071
C 24.51515 25.59742 -0.01107
C 24.55633 24.19472 -0.01586
C 25.79034 23.48664 -0.01971
C 23.33171 2.12958 0.03374
C 25.74593 22.04642 -0.02118
C 24.55017 19.91863 -0.00178
C 25.80242 19.21024 0.00768
C 25.75848 17.77784 -0.0276
C 24.5726 17.0502 0.03005
C 24.65647 15.66338 -0.04078
C 25.87414 14.94876 0.02117
C 25.78277 13.57307 0.02737
C 24.61067 12.85657 -0.00498
C 24.64482 11.37558 0.00135
C 25.84889 10.63815 0.03102
C 25.91379 9.24379 0.02555
C 24.52883 21.24831 0.00733
C 2.54776 32.67952 -0.00018
