312
Graphene
C 0.02353 34.03739 0.01295
C 14.7113 32.53382 -0.0331
C 16.09172 31.8693 -0.00316
C 16.04259 30.46277 0.02188
C 14.72234 29.90094 -0.01979
C 14.6632 28.24217 0.02691
C 15.99369 27.78777 -0.01581
C 16.06937 1.94526 0.01452
C 15.89117 0.65027 0.04892
C 14.76514 34.02711 -0.00111
C 17.28032 32.63347 -0.03557
C 18.48427 31.90745 0.03754
C 18.49184 30.51238 0.01739
C 17.23719 29.83338 0.00755
C 17.23929 28.33307 -0.0054
C 18.50658 27.8818 0.00667
C 12.32335 0.05182 -0.0258
C 13.51051 0.54208 0.03338
C 13.50763 27.59804 -0.00491
C 12.25171 28.44626 -0.00109
C 11.09978 31.92391 -0.00619
C 11.17369 30.46991 -0.02162
C 9.88462 29.84818 0.00889
C 9.80711 28.40943 -0.00481
C 11.07171 27.74739 0.00979
C 11.08866 26.43908 0.01443
C 10.06339 25.55943 0.03505
C 17.22982 2.63063 0.00143
C 9.80446 24.28797 -0.02815
C 10.94385 2.08277 -0.05302
C 11.16452 0.76749 0.00213
C 9.91539 0.01686 -0.00066
C 12.21554 32.63537 -0.00289
C 13.48526 31.92724 0.00028
C 13.52218 30.48373 -0.02213
C 12.31445 29.8118 0.03698
C 9.79915 2.62708 -0.04147
C 9.84179 32.64256 0.01848
C 18.38277 2.12279 -0.017
C 17.13168 0.01544 -0.00831
C 22.11196 29.79405 0.00199
C 22.07097 28.42315 0.01511
C 23.35624 27.72134 -0.00478
C 23.37575 26.32198 -0.01662
C 22.14523 25.5846 -0.01185
C 22.14603 11.3551 0.01126
C 23.33591 10.81777 0.01852
C 23.32912 9.28 -0.00381
C 22.03184 8.60734 0.03046
C 21.98613 7.20111 0.0296
C 23.24221 6.44157 0.03374
C 23.34202 4.93936 -0.02845
C 22.08837 4.31873 -0.03213
C 22.14063 2.90773 0.02239
C 23.35142 2.14419 0.01153
C 23.29283 30.58333 0.01087
C 23.37512 31.97725 -0.01527
C 22.17234 32.70506 0.00096
C 19.67237 0.01599 0.01277
C 19.73773 32.65757 -0.02957
C 20.93499 31.94897 -0.04422
C 20.91441 30.45843 0.00654
C 19.71147 29.70677 -0.00703
C 19.85762 28.18088 -0.04076
C 21.07035 27.44055 -0.00652
C 20.92473 10.75063 0.0058
C 18.40178 0.6843 0.00364
C 20.76207 9.45882 -0.00865
C 19.61091 7.16217 -0.00311
C 20.71158 6.41417 0.00742
C 20.84594 5.03129 -0.01594
C 19.73772 4.21473 0.0106
C 19.6956 2.84655 -0.01154
C 20.93534 2.11094 -0.01721
C 20.90135 0.71812 -0.02422
C 19.81164 8.52383 0.00675
C 23.37214 0.75634 0.02734
C 7.4278 34.04365 0.02098
C 8.59639 2.14479 0.0351
C 3.75479 9.31378 0.0402
C 2.44095 8.56066 0.00572
C 2.42753 7.18306 0.03592
C 3.68406 6.44407 0.00406
C 3.64087 4.9928 0.00943
C 2.43248 4.29865 0.02841
C 2.43708 2.78547 -0.01111
C 3.61627 2.06101 -0.01275
C 3.65874 0.65665 0.00985
C 2.49972 34.05255 -0.02245
C 4.95789 32.68198 -0.00428
C 6.18644 31.88567 0.03101
C 6.12661 30.49184 -0.01536
C 4.93767 29.79505 -0.02689
C 4.82301 28.4074 -0.01046
C 3.73022 10.72595 -0.02759
C 2.4974 11.33074 0.03589
C 2.45136 12.79921 -0.00033
C 3.66616 13.57152 -0.01062
C 3.692 30.46865 -0.00131
C 2.40848 29.75429 -0.01118
C 2.41156 28.44795 -0.014
C 3.63297 27.64629 0.02147
C 3.65836 26.24079 0.00373
C 2.39812 25.58732 -0.00191
C 2.47034 24.16773 0.00438
C 6.08301 27.65283 -0.00891
C 3.64386 23.49658 0.01291
C 2.47733 21.2846 0.00057
C 2.48331 19.91253 -0.01634
C 3.80344 19.19649 -0.00334
C 3.44301 17.85969 0.02339
C 2.35746 17.03947 0.01641
C 2.45337 15.65291 -0.00719
C 3.63394 14.95923 0.01364
C 3.71464 22.0114 0.00093
C 8.65422 0.73667 -0.03113
C 6.11143 26.2413 0.02819
C 4.93245 24.16863 -0.02971
C 8.61026 30.52603 -0.01952
C 7.38655 29.85886 -0.02813
C 7.33208 28.44155 0.00374
C 8.54959 27.65578 0.00052
C 8.68307 26.30666 -0.03682
C 7.42422 25.55201 0.01965
C 7.42373 24.03724 0.02058
C 8.64007 23.53649 -0.01957
C 7.30818 12.62636 -0.0108
C 7.52835 11.26499 -0.00368
C 8.42898 10.12846 -0.02696
C 7.39331 8.65863 -0.00114
C 7.06852 7.32797 0.00228
C 7.35629 4.27008 0.00798
C 7.37131 2.87739 0.00422
C 8.63964 31.95485 0.05265
C 7.37084 32.5464 -0.01717
C 4.94047 34.03951 0.00244
C 6.21869 0.70159 0.02299
C 6.14438 23.37568 0.02894
C 6.08167 22.06506 -0.01789
C 4.89971 21.2873 0.00444
C 4.98763 19.87823 -0.00925
C 6.17811 13.36267 0.01877
C 4.89977 12.91478 0.01363
C 4.97092 11.47424 -0.02162
C 4.92008 25.5726 0.00165
C 6.12679 10.77144 0.00415
C 4.92109 8.5741 0.02162
C 4.89543 7.07508 0.0076
C 6.14114 6.45911 0.01241
C 6.07325 4.89826 -0.01454
C 4.80535 4.20851 0.01945
C 4.87245 2.83696 0.01416
C 6.1633 2.1893 0.03542
C 6.1549 9.33658 -0.0014
C 22.19514 0.02984 -0.0055
C 24.6251 32.75613 0.01515
C 25.8374 31.9064 -0.00225
C 33.22384 23.43735 0.01927
C 33.22551 22.04155 0.01574
C 32.04056 21.29443 -0.02383
C 31.97293 19.87023 -0.01429
C 33.23592 19.21752 -0.0136
C 33.21332 17.8068 0.00594
C 31.97089 17.0755 -0.02474
C 31.91555 15.67753 0.00369
C 33.20558 14.98118 0.00455
C 33.28054 13.589 -0.00644
C 31.98969 12.89317 -0.01839
C 31.98375 11.45576 0.00137
C 33.17853 10.74728 0.00199
C 33.10241 9.34152 0.04381
C 31.93331 8.57428 0.02806
C 31.95473 24.16482 0.03794
C 31.94306 25.61271 -0.01779
C 33.15541 26.28796 0.00682
C 33.10093 27.66636 0.00026
C 30.71729 10.74318 -0.00944
C 30.63194 9.34141 -0.03735
C 29.49255 8.51194 -0.00971
C 29.3984 7.05181 0.01518
C 30.59762 6.43106 0.01908
C 30.6969 4.97283 0.07705
C 29.49227 4.23916 0.0103
C 31.85361 7.11269 0.01504
C 29.48379 2.82947 0.02108
C 30.68354 0.69956 0.00307
C 29.48045 34.03625 0.00346
C 31.96459 32.66663 0.01713
C 33.16456 31.96345 -0.01694
C 33.14549 30.50237 0.01428
C 31.94616 29.84086 -0.02142
C 31.88138 28.42009 0.0544
C 30.71784 2.09583 0.00716
C 29.4717 11.41935 -0.02155
C 33.12882 6.37569 -0.00069
C 31.93153 4.10738 -0.03838
C 0.01499 15.6823 0.02114
C 1.25266 14.92551 -0.02957
C 1.27954 13.52011 0.00343
C 0.01052 12.85033 -0.02656
C 34.40263 11.4172 -0.02442
C 1.23436 10.69725 -0.00027
C 1.21275 9.24827 -0.00583
C 34.36818 8.57209 -0.02302
C 34.3586 7.08011 -0.02849
C 1.11695 6.42613 0.02931
C 1.18552 5.03364 0.00628
C 34.38268 4.29495 -0.0345
C 34.40493 2.84453 -0.00931
C 1.20263 2.10613 -0.00939
C 1.24845 0.67913 -0.00468
C 0.01605 17.0954 0.00648
C 1.18491 17.8054 0.01223
C 1.30706 19.18818 -0.01678
C 0.03078 19.94165 0.01951
C 31.96101 2.78687 0.00349
C 33.1989 2.10486 -0.00323
C 33.22488 0.66931 -0.00841
C 31.98862 34.06185 0.0001
C 34.42059 32.66799 -0.02927
C 1.25888 31.91116 -0.01404
C 1.13887 30.51377 0.01027
C 33.17501 4.96524 0.04926
C 34.36597 29.78305 0.01831
C 1.1867 27.69777 -0.00439
C 1.1722 26.23605 -0.00598
C 34.39117 25.51652 -0.05239
C 0.00749 24.15121 0.03076
C 1.24264 23.47172 0.00723
C 1.28337 22.06797 0.02712
C 0.032 21.41215 -0.02213
C 34.34423 28.45744 -0.01037
C 29.50803 12.84775 -0.01461
C 30.75244 13.55776 -0.01303
C 30.77298 14.95269 -0.0405
C 25.79607 4.91991 -0.01199
C 24.5491 4.23448 -0.00229
C 24.56481 2.84891 -0.00938
C 25.76101 2.13711 -0.0264
C 25.82241 0.79424 -0.01154
C 24.56778 0.05072 0.00684
C 27.02162 32.66115 -0.01052
C 28.25764 31.96383 -0.01679
C 28.20657 30.54997 0.00367
C 26.99021 29.76452 0.04306
C 26.97779 28.38379 0.00996
C 28.25177 27.69126 0.00195
C 28.27397 26.22889 -0.00802
C 27.0507 25.5716 -0.00218
C 26.99663 24.1131 -0.01654
C 25.74887 6.40744 -0.009
C 24.54881 7.12273 -0.00285
C 24.56253 8.55459 0.01423
C 25.75458 9.22221 0.02555
C 25.79407 30.49946 0.00071
C 24.51967 29.77661 -0.01107
C 24.5409 28.39129 -0.01586
C 25.82194 27.70038 -0.01971
C 25.87882 26.3487 -0.02118
C 24.61622 25.66035 0.00733
C 24.68174 24.26361 -0.00178
C 28.26721 23.4201 -0.00037
C 25.7085 23.48049 0.00768
C 25.84511 19.13809 0.03005
C 25.78263 17.74439 -0.04078
C 25.92017 14.83926 0.02117
C 25.65874 13.59648 0.02737
C 24.62684 12.77199 -0.00498
C 24.67229 11.37077 0.00135
C 25.83183 10.61936 0.03102
C 25.88483 22.1119 -0.0276
C 28.25198 21.99139 -0.0032
C 27.01034 21.31862 0.00622
C 26.90076 19.85972 -0.02815
C 30.69937 31.94174 0.04266
C 30.62689 30.53853 0.01324
C 29.46143 29.82896 0.0014
C 29.41779 28.40773 0.00924
C 30.64857 27.69218 0.02326
C 30.71899 26.25769 0.00261
C 29.52344 25.60076 0.03265
C 29.43753 32.66391 0.01177
C 29.54812 24.14953 -0.02049
C 30.7319 21.94889 -0.01415
C 29.43014 21.25078 -0.03039
C 29.47312 19.87687 0.01836
C 30.72281 19.18557 0.03531
C 30.6623 17.73996 -0.00669
C 29.45127 17.04538 0.0101
C 29.52869 15.56393 0.01705
C 30.73072 23.44291 -0.01854
C 3.71634 31.91134 -0.02896
C 26.98303 0.0681 -0.00416
C 28.34187 2.13224 0.01799
C 28.11045 19.15251 -0.00942
C 28.13601 17.67953 0.00487
C 26.89274 16.99008 0.00826
C 27.02503 15.60287 -0.00294
C 28.23519 14.90371 0.00152
C 28.28272 13.4709 0.01257
C 27.10745 12.73991 0.02316
C 28.30498 0.72832 0.01699
C 27.0495 11.38771 0.04185
C 28.28362 9.21748 -0.00621
C 26.99077 8.50117 0.02611
C 26.89017 7.06339 0.02198
C 28.20751 6.36494 0.01094
C 28.27471 5.00663 0.00235
C 26.98787 4.21584 0.01495
C 27.0645 2.82413 0.01259
C 28.24064 10.67725 0.00194
C 2.44448 32.62659 -0.01004
