440
Graphene
C 0.05752 0.01843 0.01295
C 12.18102 20.01649 -0.01634
C 13.50493 19.19843 -0.00334
C 13.46532 17.79859 0.02339
C 12.23541 17.13866 0.01641
C 12.32067 15.64423 -0.00719
C 13.47693 14.82371 0.01364
C 13.47971 13.45306 -0.01062
C 12.24632 12.72103 -0.00033
C 12.26126 11.34165 0.03589
C 13.5456 10.64183 -0.02759
C 13.57102 9.21029 0.0402
C 12.30529 8.54697 0.00572
C 12.35681 7.15967 0.03592
C 13.55519 6.41475 0.00406
C 13.50267 4.88798 0.00943
C 12.27298 4.19568 0.02841
C 12.28409 2.75293 -0.01111
C 13.51538 2.08782 -0.01275
C 13.46128 0.62913 0.00985
C 12.24276 34.03382 -0.02245
C 14.78486 32.6559 -0.00428
C 16.00123 31.9512 0.03101
C 15.947 30.49949 -0.01536
C 12.29567 21.35616 0.00057
C 13.51606 22.03688 0.00093
C 13.4334 23.48349 0.01291
C 12.2832 24.15885 0.00438
C 9.83681 15.62785 -0.00095
C 11.07645 14.95643 0.01572
C 11.04401 13.53771 -0.04848
C 9.81054 12.873 -0.00892
C 9.80762 11.44146 -0.01362
C 11.03867 10.62196 -0.0008
C 11.09574 9.15922 0.0288
C 9.83612 8.5502 0.00393
C 9.88518 7.09085 0.00895
C 11.15273 6.36087 0.00685
C 11.06565 4.92148 0.02888
C 14.75359 29.79324 -0.02689
C 9.86619 4.3029 -0.00482
C 11.02737 2.1299 0.03693
C 11.02351 0.6492 0.01745
C 9.73058 0.02844 0.00488
C 12.23832 32.60959 -0.01004
C 13.535 31.94111 -0.02896
C 13.50655 30.56197 -0.00131
C 12.23238 29.86059 -0.01118
C 12.29388 28.53639 -0.014
C 13.47136 27.75847 0.02147
C 13.51539 26.31928 0.00373
C 12.28872 25.60077 -0.00191
C 9.8148 2.89548 -0.01384
C 9.83644 17.06554 0.03007
C 14.76647 28.36366 -0.01046
C 16.00461 26.28108 0.02819
C 17.21895 29.79904 0.02058
C 17.23546 28.45095 -0.01957
C 18.49093 27.67647 -0.0108
C 18.42478 26.2259 -0.00368
C 17.17057 25.51315 -0.02696
C 17.24628 24.10978 -0.00114
C 18.43224 23.40093 0.00228
C 18.42869 22.01177 0.00798
C 17.18127 21.30293 0.00422
C 17.14149 19.83148 0.0351
C 18.34063 19.17035 -0.03113
C 18.35686 17.80502 0.02098
C 17.18415 17.03626 0.01848
C 17.21911 15.64915 -0.00619
C 18.43535 14.97322 -0.02162
C 18.40488 13.58578 0.00889
C 17.17407 12.85388 -0.00481
C 17.20385 11.39706 0.00979
C 18.42557 10.68645 0.01443
C 18.40911 9.23183 0.03505
C 17.2298 8.51702 -0.02815
C 17.20692 7.12222 -0.04147
C 18.40118 6.40711 -0.05302
C 18.45725 30.54691 0.01965
C 18.468 31.97988 -0.03682
C 17.16909 32.63694 0.00052
C 14.73661 34.06301 0.00374
C 14.79147 25.60088 0.00165
C 14.75563 24.16426 -0.02971
C 16.01947 23.39597 0.02894
C 15.98894 21.99496 -0.01789
C 14.70685 21.33249 0.00444
C 14.6951 19.93028 -0.00925
C 15.90882 19.19554 0.01877
C 15.90947 17.77291 0.01363
C 14.6761 17.03042 -0.02162
C 14.68943 15.63374 0.00415
C 15.98551 14.93698 -0.0014
C 15.99069 27.67412 -0.00891
C 15.97172 13.47995 0.02162
C 14.71239 11.44413 0.01241
C 16.01555 10.68773 -0.01454
C 16.0362 9.25939 0.01945
C 14.81607 8.52463 0.01416
C 14.76946 7.12416 0.03542
C 16.01219 6.37386 0.02299
C 15.9547 4.94749 0.00244
C 14.73892 4.23598 -0.01717
C 14.69322 2.78618 0.05265
C 15.89265 2.15528 -0.01952
C 15.93386 0.76253 -0.02813
C 14.70608 12.77412 0.0076
C 18.38429 4.94927 0.00213
C 11.06745 17.86256 0.00054
C 9.77651 19.91232 -0.00562
C 3.72986 0.76621 0.04421
C 2.53152 0.04083 0.00088
C 4.99387 32.6588 0.00828
C 6.20276 31.97741 -0.02375
C 6.13843 30.55101 0.00558
C 4.92478 29.79426 -0.0059
C 5.05077 28.36881 -0.01386
C 6.18141 27.68468 -0.02805
C 6.18942 26.29728 0.00081
C 4.94478 25.60808 0.00245
C 4.93615 24.11997 0.02728
C 6.15362 23.45161 -0.00039
C 6.15713 22.04004 0.0064
C 4.96524 21.29291 0.00211
C 4.86241 19.82056 -0.00449
C 6.11883 19.09664 -0.01979
C 6.12826 17.71017 0.02784
C 4.8865 17.07584 -0.01977
C 4.83077 15.65761 -0.00561
C 6.06548 14.9292 0.00208
C 6.02959 13.52348 0.01707
C 4.83729 12.77797 0.02769
C 4.85856 11.41551 -0.03291
C 3.69767 2.16625 -0.00177
C 2.48701 2.83374 0.03278
C 2.47693 4.29267 0.01138
C 3.70906 5.03131 -0.00407
C 3.75258 30.496 0.01116
C 2.48257 29.79543 -0.0005
C 2.42179 28.38811 -0.00018
C 3.70796 27.74391 0.01073
C 3.63178 26.32836 0.01984
C 2.37262 25.54798 0.00535
C 2.44014 24.17885 -0.00198
C 3.6191 23.48596 -0.00012
C 3.69503 21.99528 -0.04306
C 2.48415 21.26281 -0.03672
C 2.43565 19.9387 0.01913
C 6.07553 10.75403 -0.04999
C 3.61233 19.10291 0.00267
C 2.35158 16.96209 0.02426
C 2.36766 15.57248 0.01218
C 3.6123 14.87045 -0.01471
C 3.65124 13.48396 -0.02827
C 2.44723 12.80501 0.01078
C 2.42659 11.34806 -0.00112
C 3.62483 10.6916 0.03345
C 3.62547 9.26308 0.00748
C 2.44163 8.51681 0.00662
C 2.47364 7.10946 -0.0154
C 3.71273 6.45925 -0.01299
C 3.58804 17.7285 0.00787
C 11.00786 19.24457 -0.00494
C 6.15864 9.31552 0.04505
C 4.92316 7.21271 -0.04307
C 8.60191 10.7548 -0.00725
C 8.6342 9.33952 -0.05697
C 7.44578 8.61762 0.01087
C 7.44061 7.18932 -0.01343
C 8.613 6.42602 0.00988
C 8.62104 5.00789 0.0276
C 7.3477 4.32407 0.01305
C 7.37397 2.90392 -0.00077
C 8.62651 2.24661 0.03368
C 8.58282 0.74523 -0.02929
C 7.33774 0.02933 -0.00966
C 9.74842 32.68454 -0.03337
C 11.04101 31.97889 0.01227
C 11.02538 30.60441 0.00873
C 9.73671 29.88207 -0.00049
C 9.82568 28.46539 0.00848
C 11.15199 27.77626 -0.01303
C 11.10833 26.342 -0.01378
C 9.87423 25.5606 0.02635
C 9.83343 24.20396 0.0127
C 11.04681 23.48301 0.01396
C 11.05964 22.11458 0.01849
C 9.78534 21.40131 -0.01142
C 7.29807 11.39454 0.02322
C 7.2709 12.84776 -0.00094
C 8.54848 13.49346 -0.02566
C 8.60092 14.89821 -0.03113
C 6.15249 6.52454 0.03189
C 6.1461 5.09722 0.00031
C 4.89833 4.35287 -0.003
C 4.95687 2.92308 0.01402
C 6.2042 2.17142 0.02379
C 6.13901 0.77477 0.00907
C 4.92995 0.00763 0.00643
C 7.34123 32.70003 -0.01509
C 8.55613 31.98359 0.03267
C 8.53848 30.59338 0.02374
C 7.39398 29.80113 0.00402
C 4.88325 8.61844 0.03284
C 7.41798 28.34967 0.0073
C 8.63179 26.26888 0.03828
C 7.42322 25.5364 0.01226
C 7.41065 24.15341 -0.00279
C 8.66659 23.42627 0.01996
C 8.51103 22.03702 -0.03996
C 7.35623 21.3215 0.01465
C 7.31674 19.88723 -0.00074
C 8.57516 19.18384 -0.00518
C 8.5793 17.75807 0.0086
C 7.3844 16.99003 -0.00643
C 7.34508 15.63261 0.017
C 8.67026 27.68715 0.0174
C 17.14183 4.28789 -0.00066
C 17.11797 2.94085 -0.00289
C 18.36087 2.16159 0.00028
C 30.74228 14.8007 -0.0405
C 30.77244 13.36741 -0.01303
C 29.45464 12.7477 -0.01461
C 29.43897 11.34429 -0.02155
C 30.69092 10.60568 -0.00944
C 30.72137 9.25427 -0.03735
C 29.46481 8.43972 -0.00971
C 29.51496 7.00012 0.01518
C 30.80993 6.27325 0.01908
C 30.81537 4.87258 0.07705
C 29.59489 4.22516 0.0103
C 29.48149 2.77537 0.02108
C 30.6972 2.03494 0.00716
C 30.75417 0.64826 0.00307
C 29.53603 34.00504 0.00346
C 31.97458 32.64228 0.01713
C 33.27228 32.00548 -0.01694
C 33.23864 30.56621 0.01428
C 31.99561 29.9682 -0.02142
C 31.86813 28.52702 0.0544
C 33.1254 27.76909 0.00026
C 33.14778 26.31601 0.00682
C 31.9371 25.61916 -0.01779
C 29.52759 15.53869 0.01705
C 29.52421 17.03054 0.0101
C 30.74148 17.81615 -0.00669
C 30.7132 19.21972 0.03531
C 28.2934 14.94762 0.00194
C 28.22914 13.50289 -0.00621
C 27.07974 12.82971 0.02611
C 27.02835 11.32851 0.02198
C 28.22389 10.56905 0.01094
C 28.23958 9.1563 0.00235
C 27.05097 8.48132 0.01495
C 27.07231 7.06102 0.01259
C 28.27747 6.3385 0.01799
C 28.39629 4.92725 0.01699
C 27.12232 4.23268 -0.00416
C 31.93747 24.1766 0.03794
C 27.04657 2.76382 0.01177
C 28.23996 0.44929 0.01324
C 26.97007 33.99446 0.0014
C 29.42722 28.41477 0.00924
C 30.73349 27.74132 0.02326
C 30.71039 26.32514 0.00261
C 29.44782 25.63357 0.03265
C 29.444 24.13721 -0.02049
C 30.73681 23.44874 -0.01854
C 30.69653 22.02402 -0.01415
C 29.51436 21.34867 -0.03039
C 29.51528 19.95443 0.01836
C 28.31741 1.95763 0.04266
C 27.10916 15.7077 0.04185
C 33.14238 23.44811 0.01927
C 31.96819 21.3107 -0.02383
C 34.37324 24.14539 0.03076
C 1.23312 23.4823 0.00723
C 1.28245 22.019 0.02712
C 0.05517 21.25551 -0.02213
C 34.38322 19.86596 0.01951
C 1.20201 19.15268 -0.01678
C 1.15734 17.66231 0.01223
C 34.34177 16.93883 0.00648
C 34.34847 15.56091 0.02114
C 1.18053 14.81333 -0.02957
C 1.21359 13.42411 0.00343
C 34.39154 12.66912 -0.02656
C 0.0191 11.30429 -0.02442
C 1.27015 10.60587 -0.00027
C 1.21671 9.18504 -0.00583
C 0.01077 8.46248 -0.02302
C 0.06249 7.05672 -0.02849
C 1.27761 6.3713 0.02931
C 1.23154 4.98742 0.00628
C 0.05593 4.18465 -0.0345
C 0.06567 2.7791 -0.00931
C 1.26626 2.12563 -0.00939
C 1.32117 0.73747 -0.00468
C 34.35527 25.55131 -0.05239
C 1.16979 26.27405 -0.00598
C 1.23191 27.67971 -0.00439
C 34.40095 28.49323 -0.01037
C 31.97838 19.8598 -0.01429
C 33.12176 19.15645 -0.0136
C 33.07354 17.71015 0.00594
C 31.95641 17.00495 -0.02474
C 31.95317 15.54925 0.00369
C 33.1563 14.86653 0.00455
C 33.19256 13.44742 -0.00644
C 31.97427 12.72965 -0.01839
C 31.93917 11.26163 0.00137
C 33.20794 10.56982 0.00199
C 33.23821 9.16673 0.04381
C 33.1707 22.04327 0.01574
C 32.01196 8.49574 0.02806
C 33.2861 6.33243 -0.00069
C 33.24693 4.93568 0.04926
C 32.00984 4.17791 -0.03838
C 32.0081 2.79786 0.00349
C 33.24295 2.04258 -0.00323
C 33.20622 0.63213 -0.00841
C 31.98345 34.0716 0.0001
C 0.0196 32.69849 -0.02927
C 1.26736 31.98667 -0.01404
C 1.26312 30.49506 0.01027
C 34.37883 29.83413 0.01831
C 31.96762 7.07666 0.01504
C 26.9942 17.07755 0.02316
C 28.30769 17.74866 0.01257
C 28.32064 19.1732 0.00152
C 20.91875 4.93875 -0.00703
C 19.64874 4.27684 -0.04076
C 19.60231 2.85072 -0.00652
C 20.85665 2.18808 0.0058
C 20.83806 0.77236 -0.00865
C 19.63121 0.10128 0.00675
C 22.10621 32.76832 -0.00311
C 23.36269 32.03266 0.00742
C 23.33929 30.57553 -0.01594
C 22.11046 29.87207 0.0106
C 22.1498 28.37645 -0.01154
C 23.32673 27.64135 -0.01721
C 23.32228 26.23461 -0.02422
C 22.1812 25.51527 0.01277
C 22.11978 24.0924 0.00096
C 23.40676 23.51803 -0.01527
C 23.30956 21.99893 0.01087
C 22.16687 21.31662 0.00199
C 22.13309 19.94095 0.01511
C 23.28691 19.14553 -0.00478
C 23.33312 17.71168 -0.01662
C 22.04631 17.04001 -0.01185
C 22.10234 15.60001 0.01126
C 20.92215 6.41064 0.00654
C 19.64814 7.08126 -0.04422
C 19.64045 8.50958 -0.02957
C 20.86267 9.1663 -0.00831
C 18.35925 0.73038 -0.02213
C 17.18248 0.01005 0.03698
C 19.65038 32.71014 -0.00109
C 20.8772 32.01002 -0.00491
C 20.83728 30.58049 0.03338
C 19.69218 29.78327 -0.0258
C 19.73394 28.36981 -0.0331
C 20.93785 27.69159 -0.00316
C 20.94366 26.25107 0.02188
C 19.68902 25.50037 -0.01979
C 19.5859 24.07492 0.02691
C 23.28786 14.88652 0.01852
C 20.91736 23.39394 -0.01581
C 19.63775 21.25648 0.04892
C 19.61152 19.86857 -0.00111
C 20.87207 19.21966 -0.03557
C 20.81971 17.82846 0.03754
C 19.52181 17.07274 0.01739
C 19.60174 15.63883 0.00755
C 20.87048 14.90972 -0.0054
C 20.88498 13.51753 0.00667
C 19.65347 12.79095 0.00143
C 19.64122 11.36147 -0.017
C 20.83169 10.65324 0.00364
C 20.92686 21.98131 0.01452
C 23.35237 13.48758 -0.00381
C 22.12776 12.78403 0.03046
C 22.05394 11.34581 0.0296
C 25.86208 14.97442 -0.009
C 25.85397 13.48026 -0.01199
C 24.54644 12.8102 -0.00229
C 24.62475 11.40867 -0.00938
C 25.76081 10.63979 -0.0264
C 25.81343 9.19307 -0.01154
C 24.52999 8.50185 0.00684
C 24.52851 7.12134 -0.01052
C 25.81001 6.39358 -0.01679
C 25.7794 4.98129 0.00367
C 24.63032 4.25208 0.04306
C 24.56869 15.57926 -0.00285
C 24.60814 2.83055 0.00996
C 25.79264 0.72019 -0.00802
C 24.62542 34.07061 -0.00218
C 26.97978 28.49134 -0.01654
C 28.14284 27.75953 -0.00037
C 28.23979 26.3114 -0.0032
C 27.01586 25.5443 0.00622
C 26.99638 24.14652 -0.02815
C 28.20962 23.46562 -0.00942
C 28.22595 22.01152 0.00487
C 27.09736 21.21842 0.00826
C 27.04226 19.79044 -0.00294
C 25.83354 2.09369 0.00195
C 3.72666 31.85589 -0.0213
C 24.55219 17.04943 0.01423
C 25.75648 19.08038 0.03102
C 23.31853 10.68207 0.03374
C 23.34668 9.28434 -0.02845
C 22.10528 8.49556 -0.03213
C 22.12189 7.17549 0.02239
C 23.36656 6.44251 0.01153
C 23.34931 4.99519 0.02734
C 22.17362 4.26467 -0.0055
C 22.12737 2.86573 0.01515
C 23.37285 2.12704 -0.00225
C 23.36735 0.74649 0.00071
C 22.09928 0.04116 -0.01107
C 25.72977 17.72983 0.02555
C 24.71206 32.5732 -0.01586
C 25.83808 30.53077 -0.02118
C 24.56657 29.95621 0.00733
C 24.54391 28.44825 -0.00178
C 25.71799 27.74303 0.00768
C 25.76751 26.29952 -0.0276
C 24.60605 25.55417 0.03005
C 24.6579 24.11698 -0.04078
C 25.81347 23.39137 0.02117
C 25.85093 21.94751 0.02737
C 24.57774 21.24392 -0.00498
C 24.53809 19.78599 0.00135
C 25.88535 31.89324 -0.01971
C 2.46084 32.64985 -0.00374
