446
Graphene
C 0.01452 0.01859 0.01295
C 13.59404 17.73112 0.00438
C 12.2512 17.09228 0.01291
C 12.31767 15.64705 0.00093
C 13.54907 14.89226 0.00057
C 13.56178 13.53657 -0.01634
C 12.33476 12.80599 -0.00334
C 12.27583 11.35827 0.02339
C 13.5155 10.66081 0.01641
C 13.53803 9.17598 -0.00719
C 12.28933 8.52691 0.01364
C 12.3499 7.15945 -0.01062
C 13.54074 6.37444 -0.00033
C 13.53624 4.95814 0.03589
C 12.3213 4.23348 -0.02759
C 12.28466 2.89999 0.0402
C 13.52026 2.10741 0.00572
C 13.50264 0.6907 0.03592
C 12.25044 34.06864 0.00406
C 14.78332 32.60579 0.00943
C 15.94613 31.95358 0.02841
C 15.96298 30.54659 -0.01111
C 14.764 29.83027 -0.01275
C 14.7425 28.43521 0.00985
C 13.48627 19.22949 -0.00191
C 12.31525 19.91349 0.00373
C 12.30547 21.31538 0.02147
C 13.52498 22.01996 -0.014
C 11.06923 13.47889 -0.00562
C 9.83273 12.75464 -0.00494
C 9.85957 11.34572 0.00054
C 11.08551 10.64418 0.03007
C 11.07868 9.26278 -0.00095
C 9.79484 8.53922 0.01572
C 9.79442 7.13344 -0.04848
C 11.09368 6.34494 -0.00892
C 11.05523 4.96493 -0.01362
C 9.84062 4.30678 -0.0008
C 9.8974 2.83707 0.0288
C 15.96623 27.66621 -0.02245
C 11.07434 2.17385 0.00393
C 9.84708 34.07652 0.00685
C 12.26216 32.63023 0.02888
C 13.5358 31.94218 -0.00482
C 13.55841 30.51061 -0.01384
C 12.30529 29.82997 0.03693
C 12.30055 28.39147 0.01745
C 13.48637 27.757 0.00488
C 13.48 26.2976 -0.01004
C 12.27319 25.55367 -0.02896
C 12.30609 24.14401 -0.00131
C 13.54922 23.43741 -0.01118
C 11.07575 0.7056 0.00895
C 15.94818 26.29475 -0.00428
C 14.74157 25.5807 0.03101
C 14.75319 24.10912 -0.01536
C 18.48776 27.71843 0.00374
C 18.4317 26.23875 0.00052
C 17.24955 25.57767 -0.03682
C 17.23085 24.14032 0.01965
C 18.472 23.37427 0.02058
C 18.39861 22.01385 -0.01957
C 17.20395 21.29435 -0.0108
C 17.24131 19.85514 -0.00368
C 18.46676 19.12362 -0.02696
C 18.44235 17.76053 -0.00114
C 17.18516 17.05681 0.00228
C 17.18276 28.39407 -0.02813
C 17.17567 15.64003 0.00798
C 18.44652 13.49598 0.0351
C 17.19279 12.76537 -0.03113
C 17.23424 11.32593 0.02098
C 18.46229 10.62961 0.01848
C 18.464 9.25114 -0.00619
C 17.20978 8.56308 -0.02162
C 17.23483 7.12512 0.00889
C 18.42463 6.40703 -0.00481
C 18.4333 4.9361 0.00979
C 17.21178 4.26133 0.01443
C 17.19775 2.82114 0.03505
C 18.4325 14.9578 0.00422
C 11.08121 14.92064 -0.01142
C 17.18087 29.80338 -0.01952
C 18.42781 31.9622 -0.01717
C 15.97841 23.42118 -0.02689
C 15.97727 22.0356 -0.01046
C 14.79542 21.30826 -0.00891
C 14.80132 19.86376 0.02819
C 15.9789 19.17647 0.00165
C 15.98645 17.73105 -0.02971
C 14.7326 17.0214 0.02894
C 14.75614 15.62449 -0.01789
C 15.94977 14.8919 0.00444
C 15.99336 13.47936 -0.00925
C 14.78994 12.78935 0.01877
C 18.44449 30.5462 0.05265
C 14.79007 11.33499 0.01363
C 15.94444 9.24297 0.00415
C 14.75887 8.53254 -0.0014
C 14.77382 7.13587 0.02162
C 15.997 6.33254 0.0076
C 15.97028 4.97635 0.01241
C 14.74417 4.25058 -0.01454
C 14.72489 2.84823 0.01945
C 15.97003 2.16484 0.01416
C 15.97334 0.74727 0.03542
C 14.80828 34.0454 0.02299
C 17.23118 32.67349 0.00244
C 16.00184 10.6393 -0.02162
C 9.85421 15.64936 0.01849
C 9.79786 17.07419 0.01396
C 11.08173 17.78222 0.0127
C 3.66149 0.68867 -0.0154
C 2.43167 34.05604 -0.01299
C 4.92235 32.67189 -0.00407
C 6.20184 31.90467 0.01138
C 6.22266 30.53009 0.03278
C 4.89881 29.79437 -0.00177
C 4.96237 28.39965 0.04421
C 6.15516 27.68431 0.00088
C 6.1151 26.2679 0.00828
C 4.88872 25.65268 -0.02375
C 4.93946 24.13802 0.00558
C 3.71618 2.08723 0.00662
C 6.12956 23.4576 -0.0059
C 4.94029 21.28128 -0.02805
C 4.90888 19.85649 0.00081
C 6.18121 19.15104 0.00245
C 6.10296 17.72208 0.02728
C 4.88303 17.08978 -0.00039
C 4.8707 15.63466 0.0064
C 6.14385 14.90132 0.00211
C 6.18754 13.49535 -0.00449
C 4.93341 12.70761 -0.01979
C 4.92268 11.36593 0.02784
C 6.13821 10.67462 -0.01977
C 6.1717 22.0132 -0.01386
C 6.14106 9.21805 -0.00561
C 2.45228 2.77097 0.00748
C 3.68766 4.94529 -0.00112
C 3.72198 30.56015 0.02438
C 2.44952 29.7983 -0.02419
C 2.4663 28.41638 -0.03951
C 3.69555 27.73656 -0.00141
C 3.65667 26.26666 -0.00374
C 2.49328 25.5333 -0.0213
C 2.5097 24.1578 0.01116
C 3.72336 23.46501 -0.0005
C 3.64986 21.94512 -0.00018
C 2.44355 21.27544 0.01073
C 2.43976 19.87824 0.01984
C 2.44584 4.19937 0.03345
C 3.70753 19.16076 0.00535
C 2.45813 17.09489 -0.00012
C 2.45436 15.62083 -0.04306
C 3.69396 14.85234 -0.03672
C 3.67725 13.51375 0.01913
C 2.45611 12.79644 0.00267
C 2.47723 11.41104 0.00787
C 3.66077 10.63997 0.02426
C 3.71403 9.2488 0.01218
C 2.47975 8.52702 -0.01471
C 2.44 7.1014 -0.02827
C 3.67549 6.41661 0.01078
C 3.72625 17.7478 -0.00198
C 18.44784 2.15397 -0.02815
C 4.92832 8.54346 0.00208
C 6.18856 6.45649 0.02769
C 8.57255 9.30379 0.017
C 7.38069 8.53718 -0.03113
C 7.39819 7.11444 -0.02566
C 8.55813 6.39125 -0.00094
C 8.59612 4.97308 0.02322
C 7.4069 4.22197 -0.00725
C 7.38245 2.83638 -0.05697
C 8.59282 2.17368 0.01087
C 8.59245 0.73388 -0.01343
C 7.37776 0.01245 0.00988
C 9.77489 32.68412 0.0276
C 8.57768 10.67301 -0.00643
C 11.05794 31.94785 0.01305
C 9.85172 29.82694 0.03368
C 9.83316 28.41463 -0.02929
C 11.05483 27.71054 -0.00966
C 11.07861 26.30544 -0.03337
C 9.8479 25.53698 0.01227
C 9.87206 24.17924 0.00873
C 11.04848 23.41867 -0.00049
C 11.0688 22.00568 0.00848
C 9.85045 21.32838 -0.01303
C 9.79221 19.91171 -0.01378
C 11.05514 19.17048 0.02635
C 11.0437 30.51459 -0.00077
C 4.9354 7.14315 0.01707
C 7.37733 11.36533 0.0086
C 8.61486 13.51407 -0.00074
C 6.18949 4.92921 -0.03291
C 4.93467 4.25166 -0.04999
C 4.93118 2.84264 0.04505
C 6.1617 2.10625 0.03284
C 6.1443 0.72198 -0.04307
C 4.88921 34.0463 0.03189
C 7.3729 32.66442 0.00031
C 8.59035 31.97432 -0.003
C 8.55394 30.5792 0.01402
C 7.4052 29.8348 0.02379
C 7.39167 28.40152 0.00907
C 7.43146 12.76632 -0.00518
C 8.60086 27.7121 0.00643
C 7.38294 25.55918 0.03267
C 7.40822 24.15896 0.02374
C 8.64118 23.42704 0.00402
C 8.61458 22.00432 0.0073
C 7.36504 21.32015 0.0174
C 7.39119 19.89709 0.03828
C 8.62645 19.11471 0.01226
C 8.58316 17.76076 -0.00279
C 7.39765 17.05585 0.01996
C 7.3738 15.64435 -0.03996
C 8.62473 14.88372 0.01465
C 8.55784 26.28672 -0.01509
C 18.49326 0.7048 -0.04147
C 17.18886 34.07898 -0.05302
C 19.64697 32.66606 0.00213
C 29.48146 17.01996 0.0101
C 29.49325 15.62856 0.01705
C 30.77118 14.92568 -0.0405
C 30.75337 13.45982 -0.01303
C 29.52351 12.78419 -0.01461
C 29.53198 11.38319 -0.02155
C 30.79188 10.61715 -0.00944
C 30.74169 9.21799 -0.03735
C 29.50747 8.52356 -0.00971
C 29.54953 7.0817 0.01518
C 30.73273 6.40297 0.01908
C 30.76404 17.71561 -0.00669
C 30.74884 4.98701 0.07705
C 29.51361 2.86039 0.02108
C 30.75912 2.15535 0.00716
C 30.74111 0.69694 0.00307
C 29.53978 0.01104 0.00346
C 31.92654 32.66932 0.01713
C 33.21148 31.95238 -0.01694
C 33.20721 30.52045 0.01428
C 32.01188 29.83294 -0.02142
C 32.01955 28.39326 0.0544
C 33.19187 27.67727 0.00026
C 33.18746 26.28987 0.00682
C 29.49471 4.25661 0.0103
C 31.98654 25.58699 -0.01779
C 30.71027 19.10827 0.03531
C 29.52812 21.30307 -0.03039
C 27.03399 12.75738 0.02316
C 27.10313 11.34493 0.04185
C 28.25622 10.62824 0.00194
C 28.25212 9.24927 -0.00621
C 27.0582 8.50684 0.02611
C 27.0348 7.09682 0.02198
C 28.2998 6.3465 0.01094
C 28.29196 5.00623 0.00235
C 27.04932 4.27687 0.01495
C 27.06166 2.85174 0.01259
C 28.2911 2.11164 0.01799
C 29.49388 19.8415 0.01836
C 28.24136 0.70841 0.01699
C 29.49015 32.67046 0.01177
C 30.78951 31.90073 0.04266
C 30.74355 30.52184 0.01324
C 29.49204 29.83524 0.0014
C 29.51987 28.40007 0.00924
C 30.76132 27.70254 0.02326
C 30.70359 26.27018 0.00261
C 29.48911 25.53247 0.03265
C 29.51368 24.11051 -0.02049
C 30.76256 23.44491 -0.01854
C 30.75225 22.03568 -0.01415
C 27.0438 34.04773 -0.00416
C 28.28255 13.49323 0.01257
C 31.9736 24.16332 0.03794
C 33.20714 22.04076 0.01574
C 0.00109 25.55436 -0.05239
C 34.42293 24.13221 0.03076
C 1.19473 23.44336 0.00723
C 1.20801 22.03965 0.02712
C 0.01668 21.29932 -0.02213
C 34.38873 19.85076 0.01951
C 1.22373 19.18283 -0.01678
C 1.23356 17.74415 0.01223
C 34.429 16.98044 0.00648
C 34.40286 15.62231 0.02114
C 1.24553 14.88368 -0.02957
C 1.25109 26.26486 -0.00598
C 1.25379 13.51085 0.00343
C 34.40104 11.36112 -0.02442
C 1.23101 10.64877 -0.00027
C 1.2255 9.20959 -0.00583
C 34.40114 8.51565 -0.02302
C 34.4327 7.1013 -0.02849
C 1.24065 6.34896 0.02931
C 1.21375 4.971 0.00628
C 34.38893 4.22696 -0.0345
C 34.4028 2.81712 -0.00931
C 1.25693 2.10088 -0.00939
C 1.23049 0.71468 -0.00468
C 0.02927 12.74085 -0.02656
C 33.23913 23.41392 0.01927
C 1.17495 27.6678 -0.00439
C 34.38262 29.77861 0.01831
C 32.01234 21.30326 -0.02383
C 31.97793 19.87475 -0.01429
C 33.22792 19.14853 -0.0136
C 33.20845 17.73141 0.00594
C 32.00065 17.04291 -0.02474
C 31.99065 15.59885 0.00369
C 33.23162 14.84595 0.00455
C 33.20524 13.45518 -0.00644
C 31.94479 12.80323 -0.01839
C 31.99425 11.30207 0.00137
C 33.23236 10.6195 0.00199
C 34.4211 28.39745 -0.01037
C 33.17667 9.23173 0.04381
C 31.96446 7.12414 0.01504
C 33.19788 6.38271 -0.00069
C 33.22925 4.97987 0.04926
C 31.95763 4.25818 -0.03838
C 31.98288 2.88096 0.00349
C 33.22329 2.11028 -0.00323
C 33.23471 0.69591 -0.00841
C 31.99541 0.02565 0.0001
C 34.43034 32.6781 -0.02927
C 1.24985 31.91627 -0.01404
C 1.22276 30.52504 0.01027
C 31.9988 8.51846 0.02806
C 3.67285 32.01368 0.00297
C 28.26407 14.89542 0.00152
C 27.04263 17.05122 0.00826
C 19.66511 0.0321 -0.02957
C 22.12649 32.66273 -0.04422
C 23.38647 31.99244 0.00654
C 23.33749 30.54392 -0.00703
C 22.1533 29.78925 -0.04076
C 22.1877 28.44698 -0.00652
C 23.39666 27.68394 0.0058
C 23.39096 26.24569 -0.00865
C 22.1106 25.54084 0.00675
C 22.14598 24.157 -0.00311
C 23.36189 23.40678 0.00742
C 21.01031 0.74647 -0.00831
C 23.36631 21.99067 -0.01594
C 22.13414 19.89038 -0.01154
C 23.35939 19.1592 -0.01721
C 23.28542 17.75392 -0.02422
C 22.08909 17.02562 0.01277
C 22.07806 15.583 0.00096
C 23.32488 14.91457 -0.01527
C 23.40018 13.43982 0.01087
C 22.08659 12.74009 0.00199
C 22.1156 11.34892 0.01511
C 23.3456 10.66316 -0.00478
C 23.32903 9.21405 -0.01662
C 22.12495 21.29794 0.0106
C 22.1229 8.51279 -0.01185
C 20.91769 2.15644 0.00364
C 19.67928 4.25487 0.00143
C 20.9027 31.89034 -0.00066
C 20.92419 30.53066 -0.00289
C 19.71257 29.80756 0.00028
C 19.69694 28.39326 -0.02213
C 20.95724 27.74701 0.03698
C 20.90391 26.23202 -0.00109
C 19.64282 25.49681 -0.00491
C 19.64885 24.11314 0.03338
C 20.91408 23.45279 -0.0258
C 20.87093 22.00922 -0.0331
C 19.64634 21.31158 -0.00316
C 19.71095 2.85548 -0.017
C 19.69336 19.8889 0.02188
C 20.90058 17.78428 0.02691
C 19.66418 17.0136 -0.01581
C 20.91107 13.51451 0.01452
C 19.69 12.77096 0.04892
C 19.68035 11.35595 -0.00111
C 20.87442 10.61689 -0.03557
C 20.92676 9.21796 0.03754
C 19.67329 8.49792 0.01739
C 19.66749 7.09071 0.00755
C 20.93657 6.36758 -0.0054
C 20.89225 5.00946 0.00667
C 20.95847 19.18729 -0.01979
C 27.01441 15.63552 -0.00294
C 22.17417 7.05738 0.01126
C 23.37117 4.96422 -0.00381
C 24.59719 8.55829 0.01423
C 24.61314 7.06428 -0.00285
C 25.81673 6.36204 -0.009
C 25.89035 4.94723 -0.01199
C 24.55012 4.3114 -0.00229
C 24.62969 2.87036 -0.00938
C 25.81829 2.16275 -0.0264
C 25.85509 0.71605 -0.01154
C 24.59266 34.05011 0.00684
C 27.01799 32.6008 -0.01052
C 28.34969 31.93179 -0.01679
C 25.79939 9.19168 0.02555
C 28.24426 30.5592 0.00367
C 27.03888 28.3979 0.00996
C 28.25978 27.69756 0.00195
C 28.30429 26.27557 -0.00802
C 27.02602 25.54273 -0.00218
C 27.0314 24.14428 -0.01654
C 28.27975 23.43413 -0.00037
C 28.31857 22.05583 -0.0032
C 27.03085 21.23897 0.00622
C 27.07621 19.85473 -0.02815
C 28.28456 19.19479 -0.00942
C 28.26431 17.73699 0.00487
C 27.068 29.86715 0.04306
C 23.36323 6.34751 0.01852
C 25.83746 10.61919 0.03102
C 24.6365 12.80449 -0.00498
C 22.13518 4.24667 0.03046
C 22.15405 2.8233 0.0296
C 23.38008 2.12626 0.03374
C 23.36449 0.69163 -0.02845
C 22.1424 0.0068 -0.03213
C 24.58468 32.70057 0.02239
C 25.82193 31.9709 0.01153
C 25.77296 30.48591 0.02734
C 24.54191 29.80212 -0.0055
C 24.55615 28.41192 0.01515
C 25.80261 27.70011 -0.00225
C 24.62046 11.42543 0.00135
C 25.79086 26.2937 0.00071
C 24.61221 24.15363 -0.01586
C 25.81335 23.42623 -0.01971
C 25.82196 21.96499 -0.02118
C 24.56841 21.31822 0.00733
C 24.57921 19.87137 -0.00178
C 25.82768 19.17143 0.00768
C 25.86689 17.77722 -0.0276
C 24.6148 17.06821 0.03005
C 24.55767 15.5815 -0.04078
C 25.86496 14.90249 0.02117
C 25.88178 13.46046 0.02737
C 24.63793 25.58703 -0.01107
C 2.42955 32.61999 -0.00605
