385
Graphene
C 34.43066 0.09247 0.01295
C 11.06463 2.16334 0.02162
C 11.07309 0.77049 0.0076
C 9.84596 0.09282 0.01241
C 12.33686 32.71945 -0.01454
C 13.60597 31.97882 0.01945
C 13.55145 30.51188 0.01416
C 12.29789 29.81299 0.03542
C 12.25194 28.37305 0.02299
C 13.50023 27.63026 0.00244
C 9.81243 2.85022 -0.0014
C 13.55679 26.15041 -0.01717
C 12.39017 24.19239 -0.01952
C 12.36965 12.67356 -0.02813
C 12.25793 11.35137 0.00374
C 13.5527 10.68261 0.00052
C 13.45214 9.18537 -0.03682
C 12.2676 8.41825 0.01965
C 12.28195 7.04054 0.02058
C 13.57265 6.29324 -0.01957
C 13.50922 4.86474 -0.0108
C 12.29705 25.5546 0.05265
C 12.2012 4.31744 -0.00368
C 9.85972 4.29331 0.00415
C 11.03232 6.39683 0.01363
C 9.87591 29.87585 0.00943
C 9.86538 28.42788 0.02841
C 11.06273 27.73044 -0.01111
C 11.06686 26.2573 -0.01275
C 9.81634 25.60008 0.00985
C 9.81985 24.20267 -0.02245
C 11.16626 23.46723 -0.00428
C 10.95448 22.13443 0.03101
C 9.92882 21.28309 -0.01536
C 11.00136 5.04605 -0.02162
C 9.86859 19.8021 -0.02689
C 9.94961 15.6642 -0.00891
C 11.09752 14.90906 0.02819
C 11.29622 13.52586 0.00165
C 9.84791 12.76514 -0.02971
C 9.88717 11.37633 0.02894
C 11.07349 10.58837 -0.01789
C 11.05279 9.19326 0.00444
C 9.80903 8.5321 -0.00925
C 9.80655 7.159 0.01877
C 9.79504 17.05135 -0.01046
C 11.0914 30.57561 0.00406
C 12.2628 2.89314 -0.02696
C 13.50139 0.73049 0.00228
C 17.19783 29.75488 0.03338
C 17.17395 28.35462 -0.0258
C 18.39506 27.69698 -0.0331
C 18.50019 26.2368 -0.00316
C 17.16039 11.327 0.02188
C 18.3879 10.81171 -0.01979
C 18.54799 9.16846 0.02691
C 17.26072 8.5697 -0.01581
C 17.28577 7.10469 0.01452
C 18.37803 30.52813 -0.00491
C 18.4963 6.40797 0.04892
C 17.23375 4.25671 -0.03557
C 17.16802 2.78235 0.03754
C 18.39597 2.08213 0.01739
C 18.4522 0.67282 0.00755
C 17.20437 34.02752 -0.0054
C 19.65179 32.6645 0.00667
C 20.85256 31.97644 0.00143
C 20.8365 30.55146 -0.017
C 19.60235 29.79549 0.00364
C 18.43987 4.93849 -0.00111
C 13.45213 2.17364 -0.00114
C 18.44805 31.97344 -0.00109
C 14.72716 0.0523 -0.02213
C 12.28605 0.0371 0.00798
C 14.85043 32.69014 0.00422
C 15.97437 31.9664 0.0351
C 15.98085 30.51151 -0.03113
C 14.73353 29.77278 0.02098
C 14.70039 28.32444 0.01848
C 15.98185 27.63868 -0.00619
C 15.91403 26.23368 -0.02162
C 14.92674 25.67479 0.00889
C 17.24813 32.60257 0.03698
C 14.68442 11.38261 -0.00481
C 15.96991 9.17807 0.01443
C 14.74226 8.52696 0.03505
C 14.77773 7.06987 -0.02815
C 16.00112 6.34897 -0.04147
C 15.97751 4.8821 -0.05302
C 14.72572 4.19396 0.00213
C 14.73658 2.77543 -0.00066
C 15.95261 2.07202 -0.00289
C 15.96964 0.67439 0.00028
C 15.95918 10.73575 0.00979
C 11.13068 31.97582 0.03592
C 9.87779 32.7685 0.00572
C 7.40625 34.07186 0.0402
C 3.60414 4.98083 -0.03113
C 2.40031 4.29594 -0.02566
C 2.49412 2.87426 -0.00094
C 3.67356 2.13955 0.02322
C 3.60316 0.71995 -0.00725
C 2.40648 34.0616 -0.05697
C 4.84449 32.6845 0.01087
C 6.09136 32.03772 -0.01343
C 6.14167 30.59837 0.00988
C 3.67884 6.35693 0.017
C 4.90621 29.8912 0.0276
C 6.09617 27.72004 -0.00077
C 6.08345 26.34961 0.03368
C 4.89397 25.63733 -0.02929
C 4.86986 24.16246 -0.00966
C 6.15193 23.46135 -0.03337
C 6.13517 21.9956 0.01227
C 4.85117 21.2939 0.00873
C 5.01149 19.87719 -0.00049
C 6.30736 19.18384 0.00848
C 4.8804 28.46086 0.01305
C 6.20136 17.7818 -0.01303
C 2.43645 7.06278 -0.00643
C 3.67179 9.21644 -0.00518
C 3.6447 30.62883 0.03189
C 2.44032 29.82842 0.00031
C 2.47498 28.38055 -0.003
C 3.71952 27.69536 0.01402
C 3.64202 26.30216 0.02379
C 2.43788 25.50176 0.00907
C 2.395 24.13004 0.00643
C 3.67455 23.46234 -0.01509
C 3.62291 22.04181 0.03267
C 2.41135 8.49344 0.0086
C 2.40989 21.30629 0.02374
C 3.76961 19.13976 0.0073
C 3.74749 17.74743 0.0174
C 2.49706 17.07215 0.03828
C 2.44063 15.68887 0.01226
C 3.75241 14.93888 -0.00279
C 3.64779 13.51131 0.01996
C 2.42905 12.75972 -0.03996
C 2.43124 11.31651 0.01465
C 3.67958 10.62446 -0.00074
C 2.50623 19.91935 0.00402
C 4.98757 17.08377 -0.01378
C 4.89517 15.72315 0.02635
C 6.07648 14.95624 0.0127
C 7.41287 21.2918 -0.00131
C 7.47205 19.95062 -0.01118
C 8.6857 19.10828 -0.014
C 8.62193 17.65671 0.02147
C 7.37321 16.94959 0.00373
C 7.3213 15.54882 -0.00191
C 8.50966 14.89044 0.00438
C 8.63001 13.44996 0.01291
C 7.32349 12.77993 0.00093
C 8.60416 22.05491 -0.02896
C 7.37095 11.37106 0.00057
C 8.59542 9.29238 -0.00334
C 7.40641 8.56362 0.02339
C 7.40185 7.14008 0.01641
C 8.61243 6.43532 -0.00719
C 8.61246 5.02402 0.01364
C 7.34409 4.28401 -0.01062
C 7.33691 2.89909 -0.00033
C 8.59034 2.16828 0.03589
C 8.60463 0.76492 -0.02759
C 8.6446 10.66993 -0.01634
C 8.62904 23.52589 -0.01004
C 7.36227 24.2349 0.00488
C 7.34492 25.68937 0.01745
C 6.13293 13.5588 0.01396
C 4.88259 12.80009 0.01849
C 4.88919 11.39477 -0.01142
C 6.14977 10.66899 -0.00562
C 6.14396 9.28011 -0.00494
C 4.88524 8.53042 0.00054
C 4.888 7.12906 0.03007
C 6.1347 6.48302 -0.00095
C 6.14302 5.00787 0.01572
C 4.87715 4.27809 -0.04848
C 4.83258 2.83957 -0.00892
C 6.14356 2.14322 -0.01362
C 6.17004 0.66935 -0.0008
C 4.87167 0.02963 0.0288
C 7.36366 32.65304 0.00393
C 8.61139 32.00039 0.00895
C 8.62528 30.52812 0.00685
C 7.35019 29.88122 0.02888
C 7.35018 28.4352 -0.00482
C 8.61939 27.77459 -0.01384
C 8.56718 26.33535 0.03693
C 19.59788 28.42361 -0.00831
C 3.6144 32.04978 -0.04307
C 20.8296 27.6457 -0.02957
C 19.57679 25.76479 0.00654
C 29.51076 4.28139 0.0103
C 29.48278 2.81592 0.02108
C 30.71275 2.1273 0.00716
C 30.70786 0.70897 0.00307
C 29.4894 0.02215 0.00346
C 32.00586 32.68101 0.01713
C 33.2219 32.00911 -0.01694
C 33.16153 30.57246 0.01428
C 31.92495 29.84163 -0.02142
C 30.72706 4.93134 0.07705
C 31.90496 28.4088 0.0544
C 33.21908 26.3263 0.00682
C 32.00931 25.54862 -0.01779
C 32.00417 24.08614 0.03794
C 33.24582 23.44794 0.01927
C 33.2142 22.06797 0.01574
C 31.97275 21.30673 -0.02383
C 31.9751 19.90034 -0.01429
C 33.19121 19.15042 -0.0136
C 33.19809 17.7284 0.00594
C 33.20235 27.74124 0.00026
C 31.98457 17.05255 -0.02474
C 30.74319 6.33619 0.01908
C 29.47526 8.50314 -0.00971
C 30.73145 31.95143 0.0014
C 30.686 30.53343 0.00924
C 29.43808 29.82425 0.02326
C 29.57509 28.37693 0.00261
C 30.75454 27.64631 0.03265
C 30.71847 26.23974 -0.02049
C 29.41694 25.58022 -0.01854
C 29.49192 24.1237 -0.01415
C 30.70154 23.39302 -0.03039
C 29.49744 7.05488 0.01518
C 30.83014 22.06614 0.01836
C 30.75008 17.84422 -0.00669
C 29.5705 16.9995 0.0101
C 29.53551 15.51932 0.01705
C 30.76799 14.86057 -0.0405
C 30.78311 13.44673 -0.01303
C 29.50974 12.76823 -0.01461
C 29.49703 11.3548 -0.02155
C 30.71846 10.69453 -0.00944
C 30.68782 9.22305 -0.03735
C 30.7665 19.24548 0.03531
C 29.50317 32.67616 0.01324
C 31.99417 15.62307 0.00369
C 33.14941 13.44244 -0.00644
C 34.41283 21.28771 -0.02213
C 0.02617 19.86494 0.01951
C 1.26493 19.16794 -0.01678
C 1.26017 17.77074 0.01223
C 34.40226 17.07447 0.00648
C 34.41449 15.59318 0.02114
C 1.24648 14.98037 -0.02957
C 1.21899 13.49201 0.00343
C 34.39459 12.79666 -0.02656
C 1.20062 22.00446 0.02712
C 34.41069 11.29658 -0.02442
C 1.19531 9.24346 -0.00583
C 34.38609 8.51813 -0.02302
C 34.3472 7.08679 -0.02849
C 1.1817 6.38441 0.02931
C 1.1716 4.94122 0.00628
C 34.37625 4.29435 -0.0345
C 34.39119 2.82354 -0.00931
C 1.22298 2.19687 -0.00939
C 1.20824 0.80151 -0.00468
C 1.22648 10.59019 -0.00027
C 33.18463 14.89372 0.00455
C 1.18313 23.43385 0.00723
C 34.39618 25.54042 -0.05239
C 32.00381 12.71296 -0.01839
C 31.95244 11.36652 0.00137
C 33.18646 10.67394 0.00199
C 33.19108 9.27871 0.04381
C 31.92242 8.61731 0.02806
C 31.95258 7.14968 0.01504
C 33.12087 6.4187 -0.00069
C 33.18179 4.98308 0.04926
C 31.96111 4.26583 -0.03838
C 34.42671 24.18731 0.03076
C 31.9388 2.77998 0.00349
C 33.17459 0.74494 -0.00841
C 31.94607 34.06312 0.0001
C 0.02159 32.74358 -0.02927
C 1.17853 31.89189 -0.01404
C 1.17253 30.48152 0.01027
C 34.38923 29.83765 0.01831
C 0.04143 28.39866 -0.01037
C 1.25731 27.7065 -0.00439
C 1.20673 26.24065 -0.00598
C 33.17074 2.12788 -0.00323
C 26.9929 34.07175 0.04266
C 28.29973 0.70474 0.01177
C 28.26566 2.13883 -0.00416
C 22.13249 11.37799 -0.00381
C 23.34957 10.63633 0.03046
C 23.32462 9.19592 0.0296
C 22.15049 8.4873 0.03374
C 22.13365 7.04635 -0.02845
C 23.39283 6.38217 -0.03213
C 23.34802 4.88478 0.02239
C 22.11095 4.21921 0.01153
C 22.12887 2.8448 0.02734
C 22.28014 12.85617 0.01852
C 23.33398 2.04906 -0.0055
C 22.08571 34.02206 -0.00225
C 24.61938 32.60248 0.00071
C 25.81431 31.92008 -0.01107
C 25.82073 30.50812 -0.01586
C 24.60766 29.80667 -0.01971
C 24.53587 28.41504 -0.02118
C 25.77883 27.64184 0.00733
C 25.80264 26.25318 -0.00178
C 24.61373 25.50565 0.00768
C 23.30207 0.6297 0.01515
C 24.6036 24.04681 -0.0276
C 23.32714 13.35968 0.01126
C 22.29718 24.13342 -0.01662
C 19.71624 11.18602 -0.00703
C 20.91032 10.62368 -0.04076
C 20.88934 9.15489 -0.00652
C 19.75305 8.45554 0.0058
C 19.75817 7.03856 -0.00865
C 20.9348 6.28152 0.00675
C 20.92632 4.89204 -0.00311
C 19.66998 4.22733 0.00742
C 19.61304 2.83891 -0.01594
C 23.30917 23.61784 -0.01185
C 20.86578 2.11531 0.0106
C 19.66342 34.07252 -0.01721
C 22.16062 32.63309 -0.02422
C 23.37743 31.96538 0.01277
C 23.42479 30.57937 0.00096
C 22.14321 29.80896 -0.01527
C 22.06711 28.36665 0.01087
C 23.3198 27.66331 0.00199
C 23.3916 26.2556 0.01511
C 22.10187 25.56847 -0.00478
C 20.85579 0.67929 -0.01154
C 25.89939 23.42582 0.03005
C 25.53344 22.14563 -0.04078
C 24.7171 21.25369 0.02117
C 28.38706 27.71018 0.00622
C 28.23544 26.32104 -0.02815
C 27.06337 25.59401 -0.00942
C 27.13468 24.12827 0.00487
C 28.32891 23.44495 0.00826
C 28.35419 17.62229 -0.00294
C 27.08894 17.04359 0.00152
C 27.04411 15.60405 0.01257
C 28.28391 14.9009 0.02316
C 27.1255 28.39867 -0.0032
C 28.23298 13.47835 0.04185
C 27.04789 11.3491 -0.00621
C 28.25657 10.62618 0.02611
C 28.19629 9.22645 0.02198
C 26.92775 8.54761 0.01094
C 27.03166 7.1386 0.00235
C 28.26341 6.36784 0.01495
C 28.19065 4.91933 0.01259
C 26.99806 4.22975 0.01799
C 27.02192 2.8322 0.01699
C 27.0469 12.78625 0.00194
C 27.0752 29.83702 -0.00037
C 28.24161 30.55611 -0.01654
C 28.22964 31.94411 -0.00218
C 24.78108 19.94699 0.02737
C 25.60921 19.05284 -0.00498
C 25.77336 17.68698 0.00135
C 24.68323 16.81731 0.03102
C 24.59952 15.67194 0.02555
C 25.81574 14.95236 0.01423
C 25.8746 13.56843 -0.00285
C 24.66077 12.79918 -0.009
C 24.56794 11.37446 -0.01199
C 25.85706 10.64154 -0.00229
C 25.7334 9.24039 -0.00938
C 24.59433 8.52261 -0.0264
C 24.56783 7.08977 -0.01154
C 25.84187 6.38803 0.00684
C 25.81785 5.02302 -0.01052
C 24.52876 4.25873 -0.01679
C 24.53063 2.79014 0.00367
C 25.75511 2.10984 0.04306
C 25.82626 0.72369 0.00996
C 24.58908 34.03555 0.00195
C 26.9899 32.63416 -0.00802
C 20.85938 26.21095 -0.04422
C 2.37084 32.68695 0.03284
