362
Graphene
C 0.01982 0.0346 0.01295
C 12.35129 32.62731 0.01965
C 13.49097 31.98544 0.02058
C 13.51787 30.56273 -0.01957
C 12.31955 29.80193 -0.0108
C 12.34704 28.43964 -0.00368
C 13.54566 27.69033 -0.02696
C 13.48065 26.23343 -0.00114
C 12.25948 25.55526 0.00228
C 9.8209 33.98704 -0.03682
C 12.28144 24.11832 0.00798
C 13.58095 22.02171 0.0351
C 12.32784 21.2489 -0.03113
C 12.33167 19.85174 0.02098
C 13.57293 19.14296 0.01848
C 13.49622 17.82318 -0.00619
C 12.30316 17.02402 -0.02162
C 12.27984 15.5722 0.00889
C 13.47866 14.87583 -0.00481
C 13.5596 23.37972 0.00422
C 11.01377 0.68006 0.00052
C 11.05891 2.15097 0.00374
C 9.84143 2.78752 -0.02813
C 9.80198 28.45529 0.00444
C 10.99051 27.75 -0.00925
C 11.0867 26.31585 0.01877
C 9.87425 25.5711 0.01363
C 9.85152 24.14554 -0.02162
C 11.07037 23.43833 0.00415
C 11.06433 22.02584 -0.0014
C 9.85598 21.29374 0.02162
C 9.8633 19.89055 0.0076
C 11.07983 19.23521 0.01241
C 11.04831 17.74714 -0.01454
C 9.80983 17.11518 0.01945
C 9.85049 15.58761 0.01416
C 11.0738 14.90307 0.03542
C 11.10684 13.51057 0.02299
C 9.94864 12.77794 0.00244
C 11.09302 6.35384 -0.01717
C 11.05896 4.99157 0.05265
C 9.83892 4.21044 -0.01952
C 13.43972 13.47818 0.00979
C 9.84892 29.8277 -0.01789
C 12.39289 12.79479 0.01443
C 13.48538 10.63392 -0.02815
C 16.01664 17.74428 0.01739
C 14.71157 17.11445 0.00755
C 14.73803 15.65273 -0.0054
C 14.72061 7.03941 0.00667
C 16.03509 4.89476 0.00143
C 14.77051 4.31838 -0.017
C 14.77525 2.84114 0.00364
C 15.95773 2.14643 -0.00831
C 15.98297 19.1967 0.03754
C 16.00014 0.69911 -0.02957
C 17.26159 32.72838 0.00654
C 18.43736 31.90352 -0.00703
C 18.47485 30.51968 -0.04076
C 17.2513 29.81863 -0.00652
C 17.24712 28.35776 0.0058
C 18.40127 27.67792 -0.00865
C 18.43887 26.24739 0.00675
C 17.23476 25.52006 -0.00311
C 14.77514 34.0543 -0.04422
C 14.73867 19.90168 -0.03557
C 14.73254 21.29294 -0.00111
C 15.96202 22.01306 0.04892
C 13.48824 9.31384 -0.04147
C 12.23787 7.12769 -0.05302
C 13.50119 6.41535 0.00213
C 13.54618 4.92636 -0.00066
C 12.32155 4.25777 -0.00289
C 12.33594 2.85737 0.00028
C 13.55185 2.16585 -0.02213
C 13.56478 0.72895 0.03698
C 12.29526 34.06503 -0.00109
C 14.75398 32.6031 -0.00491
C 15.95279 31.92129 0.03338
C 15.99518 30.52046 -0.0258
C 14.78906 29.84278 -0.0331
C 14.71236 28.41229 -0.00316
C 15.95245 27.70467 0.02188
C 15.96316 26.28869 -0.01979
C 14.75645 25.56498 0.02691
C 14.7081 24.15117 -0.01581
C 15.98313 23.45092 0.01452
C 12.3598 11.33048 0.03505
C 11.04336 30.51607 0.02894
C 11.06324 31.90304 -0.02971
C 9.80973 32.64792 0.00165
C 3.70398 6.36997 0.02635
C 3.66177 4.95799 0.0127
C 2.48102 4.24685 0.01396
C 2.52382 2.8729 0.01849
C 3.67261 2.18106 -0.01142
C 3.7065 0.66259 -0.00562
C 2.44523 34.06452 -0.00494
C 4.91661 32.6633 0.00054
C 2.47397 7.16712 -0.01378
C 6.16459 31.88036 0.03007
C 4.87616 29.84685 0.01572
C 4.86854 28.42474 -0.04848
C 6.11394 27.68939 -0.00892
C 6.12775 26.28438 -0.01362
C 4.89913 25.62588 -0.0008
C 4.93977 24.1041 0.0288
C 6.16442 23.47334 0.00393
C 6.16629 22.04549 0.00895
C 6.16144 30.51951 -0.00095
C 2.41413 8.58985 -0.01303
C 3.71346 9.25121 0.00848
C 3.68951 10.63245 -0.00049
C 3.65244 30.54632 0.017
C 2.42619 29.84139 -0.03113
C 2.50001 28.34667 -0.02566
C 3.72542 27.70519 -0.00094
C 3.66042 26.2519 0.02322
C 2.53708 25.51604 -0.00725
C 2.46627 24.13446 -0.05697
C 3.63483 23.42541 0.01087
C 3.66392 22.09358 -0.01343
C 2.44675 21.32098 0.00988
C 2.476 19.885 0.0276
C 3.66577 19.20177 0.01305
C 3.72963 17.75522 -0.00077
C 2.43806 17.01393 0.03368
C 2.51223 15.59893 -0.02929
C 3.6182 14.86882 -0.00966
C 3.65428 13.55948 -0.03337
C 2.42443 12.82788 0.01227
C 2.46863 11.3888 0.00873
C 4.95172 21.35105 0.00685
C 4.92155 19.80008 0.02888
C 6.18554 19.17527 -0.00482
C 6.15986 17.7727 -0.01384
C 7.36317 25.59037 0.03589
C 7.36949 24.14031 -0.02759
C 8.57238 23.38203 0.0402
C 8.58964 21.98799 0.00572
C 7.39582 21.31803 0.03592
C 7.3778 19.86353 0.00406
C 8.60071 19.19834 0.00943
C 8.60011 17.82075 0.02841
C 7.3354 17.04946 -0.01111
C 7.43386 15.63338 -0.01275
C 8.66674 14.92188 0.00985
C 8.63441 13.5106 -0.02245
C 7.30725 12.69791 -0.00428
C 8.58938 4.93711 0.03101
C 7.32829 4.2725 -0.01536
C 7.33143 2.78596 -0.02689
C 8.6211 2.13057 -0.01046
C 8.6257 0.73237 -0.00891
C 7.3812 0.02712 0.02819
C 8.63438 26.22439 -0.00033
C 17.20851 24.15763 0.00742
C 8.59644 27.73926 -0.01062
C 7.42709 29.85124 -0.00719
C 4.90799 17.02427 0.03693
C 4.91754 15.60924 0.01745
C 6.17405 14.95868 0.00488
C 6.12318 13.50103 -0.01004
C 4.85996 12.85086 -0.02896
C 4.98204 11.36047 -0.00131
C 6.16804 10.68649 -0.01118
C 4.88262 8.56262 -0.014
C 4.96967 7.16322 0.02147
C 6.1092 6.47027 0.00373
C 6.13311 5.04232 -0.00191
C 4.95049 4.27932 0.00438
C 4.85813 2.85252 0.01291
C 6.15649 2.15615 0.00093
C 6.17283 0.7026 0.00057
C 4.93973 34.07144 -0.01634
C 7.36599 32.70253 -0.00334
C 8.58622 32.01433 0.02339
C 8.63738 30.56544 0.01641
C 7.32014 28.41349 0.01364
C 18.42394 23.43441 -0.01594
C 18.45665 21.96489 0.0106
C 17.23208 21.29025 -0.01154
C 29.45936 0.03363 0.00346
C 31.93539 32.67597 0.01713
C 33.24545 32.00202 -0.01694
C 33.2159 30.48888 0.01428
C 31.97211 29.82838 -0.02142
C 31.94701 28.3913 0.0544
C 33.22055 27.70433 0.00026
C 33.16585 26.31374 0.00682
C 30.66861 0.69859 0.00307
C 31.9198 25.56606 -0.01779
C 33.19541 23.37707 0.01927
C 33.22015 22.04055 0.01574
C 31.94539 21.3066 -0.02383
C 31.98549 19.9252 -0.01429
C 33.20447 19.14425 -0.0136
C 33.18973 17.75097 0.00594
C 31.97291 17.06527 -0.02474
C 32.03022 15.60758 0.00369
C 32.00299 24.18994 0.03794
C 30.72688 2.10667 0.00716
C 29.50646 2.84841 0.02108
C 29.49156 4.24651 0.0103
C 29.45931 24.15743 -0.02049
C 30.79042 23.44105 -0.01854
C 30.76539 21.99194 -0.01415
C 29.58376 21.28243 -0.03039
C 29.50824 19.88829 0.01836
C 30.73622 19.18366 0.03531
C 30.76189 17.74166 -0.00669
C 29.49603 17.02272 0.0101
C 29.52138 15.60324 0.01705
C 30.75071 14.94677 -0.0405
C 30.78987 13.54329 -0.01303
C 29.49107 12.70567 -0.01461
C 29.57826 11.32637 -0.02155
C 30.76063 10.65728 -0.00944
C 30.72737 9.27046 -0.03735
C 29.52862 8.47999 -0.00971
C 29.4605 7.12252 0.01518
C 30.80306 6.35521 0.01908
C 30.70712 4.93479 0.07705
C 33.18622 14.90447 0.00455
C 33.18884 13.44983 -0.00644
C 31.92716 12.8099 -0.01839
C 31.95298 11.35762 0.00137
C 0.01105 19.82795 0.01951
C 1.26661 19.16991 -0.01678
C 1.22783 17.77478 0.01223
C 0.05278 17.0041 0.00648
C 34.42789 15.54107 0.02114
C 1.24295 14.91232 -0.02957
C 1.2629 13.47294 0.00343
C 34.40277 12.7525 -0.02656
C 34.42463 11.33709 -0.02442
C 1.22234 10.68805 -0.00027
C 1.21566 9.24801 -0.00583
C 0.00899 8.58619 -0.02302
C 34.41101 7.10436 -0.02849
C 1.25492 6.43039 0.02931
C 1.18667 4.97807 0.00628
C 34.43022 4.2426 -0.0345
C 0.00522 2.81222 -0.00931
C 1.30035 2.1819 -0.00939
C 1.28156 0.70851 -0.00468
C 34.40158 21.25488 -0.02213
C 29.49758 25.56516 0.03265
C 1.21312 22.03726 0.02712
C 0.02002 24.21188 0.03076
C 33.14288 10.57197 0.00199
C 33.15304 9.20928 0.04381
C 31.95897 8.51426 0.02806
C 32.01966 7.11274 0.01504
C 33.14305 6.36079 -0.00069
C 33.15257 4.9791 0.04926
C 31.9588 4.2303 -0.03838
C 31.9482 2.846 0.00349
C 33.18844 2.07353 -0.00323
C 33.20205 0.74819 -0.00841
C 31.97262 0.03994 0.0001
C 0.0065 32.66343 -0.02927
C 1.23853 31.94342 -0.01404
C 1.18684 30.49989 0.01027
C 34.37584 29.83 0.01831
C 0.01148 28.42755 -0.01037
C 1.27309 27.63069 -0.00439
C 1.25135 26.24945 -0.00598
C 34.39294 25.62454 -0.05239
C 1.22805 23.4747 0.00723
C 3.68387 32.00875 -0.00643
C 30.70115 26.27386 0.00261
C 29.4882 28.37915 0.00924
C 20.93014 0.74023 0.01515
C 19.68427 0.00688 -0.00225
C 22.14122 32.69676 0.00071
C 23.34045 31.90836 -0.01107
C 23.35207 30.51504 -0.01586
C 22.11504 29.84271 -0.01971
C 22.10586 28.46769 -0.02118
C 23.35147 27.64009 0.00733
C 20.88987 19.14475 -0.0055
C 23.31514 26.23974 -0.00178
C 22.13066 24.17495 -0.0276
C 23.38591 23.43619 0.03005
C 23.28678 21.94149 -0.04078
C 22.08756 21.30917 0.02117
C 22.16347 19.8672 0.02737
C 23.39111 19.16169 -0.00498
C 22.07371 0.06 0.00135
C 24.61539 32.61316 0.03102
C 22.13285 25.55136 0.00768
C 19.68663 19.87033 0.02734
C 19.67811 21.28113 0.01153
C 20.92011 21.98891 0.02239
C 17.18719 19.86603 -0.01721
C 18.39228 19.1452 -0.02422
C 18.4051 17.71656 0.01277
C 17.2768 17.01444 0.00096
C 17.14628 4.32332 -0.01527
C 17.18271 2.8277 0.01087
C 18.37486 2.07926 0.00199
C 18.43862 0.65076 0.01511
C 17.17787 0.01938 -0.00478
C 19.70415 32.64102 -0.01662
C 20.92137 31.94173 -0.01185
C 20.82977 30.52387 0.01126
C 19.61799 29.74065 0.01852
C 19.68752 28.36751 -0.00381
C 20.90987 27.66023 0.03046
C 20.94001 26.22622 0.0296
C 19.71232 25.50418 0.03374
C 19.70638 24.11183 -0.02845
C 20.8993 23.43931 -0.03213
C 25.83643 31.87643 0.02555
C 25.78359 30.49245 0.01423
C 24.58104 29.83022 -0.00285
C 24.63956 28.34474 -0.009
C 27.12744 21.25973 0.00152
C 27.04069 19.84249 0.01257
C 28.26822 19.14325 0.02316
C 28.3062 17.7507 0.04185
C 27.0425 17.00725 0.00194
C 27.1124 15.64972 -0.00621
C 28.2443 14.90041 0.02611
C 28.29618 13.51523 0.02198
C 28.35986 6.35662 0.01094
C 28.32568 5.00461 0.00235
C 27.0782 4.24001 0.01495
C 27.07763 2.9307 0.01259
C 28.30963 2.05187 0.01799
C 28.26778 0.70394 0.01699
C 27.06324 0.016 -0.00416
C 29.47145 32.71559 0.01177
C 30.71868 31.93753 0.04266
C 30.74699 30.54657 0.01324
C 29.48324 29.83763 0.0014
C 28.27888 22.00594 -0.00294
C 30.78696 27.6907 0.02326
C 28.24961 23.48244 0.00826
C 27.04606 25.51529 -0.00942
C 25.8657 27.7321 -0.01199
C 25.85716 26.28823 -0.00229
C 24.64941 25.54661 -0.00938
C 24.53436 24.11731 -0.0264
C 25.85303 23.45765 -0.01154
C 25.81093 21.98939 0.00684
C 24.7057 21.31749 -0.01052
C 24.59135 19.89686 -0.01679
C 25.82742 19.15974 0.00367
C 25.86683 17.76406 0.04306
C 25.69793 0.70271 0.00996
C 24.55146 0.02169 0.00195
C 27.01042 32.66018 -0.00802
C 28.25227 31.96501 -0.00218
C 28.30245 30.50208 -0.01654
C 26.97366 29.77672 -0.00037
C 27.06486 28.40913 -0.0032
C 28.2464 27.69633 0.00622
C 28.24828 26.22197 -0.02815
C 27.01882 24.16333 0.00487
C 2.47012 32.66469 0.0086
