385
Graphene
C 0.01486 0.0239 0.01295
C 9.88854 4.24653 0.02162
C 9.80407 2.86657 0.0076
C 11.05972 2.15073 0.01241
C 11.09091 0.66978 -0.01454
C 9.86366 0.04127 0.01945
C 12.30137 32.6996 0.01416
C 13.47911 31.92565 0.03542
C 13.53485 30.51692 0.02299
C 12.28814 29.73698 0.00244
C 11.07315 4.96423 -0.0014
C 12.34474 28.41875 -0.01717
C 13.53819 26.22021 -0.01952
C 12.31142 25.53789 -0.02813
C 12.33056 24.11175 0.00374
C 13.4903 23.47897 0.00052
C 13.55531 22.00295 -0.03682
C 12.30598 21.25442 0.01965
C 12.26588 19.83447 0.02058
C 13.56021 19.12081 -0.01957
C 13.49151 17.73752 -0.0108
C 13.52314 27.69703 0.05265
C 12.31351 17.00649 -0.00368
C 11.02196 6.42778 0.00415
C 9.79792 8.56086 0.01363
C 9.84537 29.83864 0.00943
C 9.84409 28.4256 0.02841
C 11.07426 27.70243 -0.01111
C 11.08442 26.31071 -0.01275
C 9.83486 25.57812 0.00985
C 9.84096 24.14609 -0.02245
C 11.0714 23.46167 -0.00428
C 11.0741 22.06969 0.03101
C 9.80544 21.29265 -0.01536
C 9.82804 7.1347 -0.02162
C 9.84608 19.8321 -0.02689
C 11.11798 17.7376 -0.00891
C 9.87587 17.05546 0.02819
C 9.90155 15.62504 0.00165
C 11.05389 14.88228 -0.02971
C 11.0559 13.50971 0.02894
C 9.84222 12.76965 -0.01789
C 9.78558 11.34908 0.00444
C 11.07021 10.64316 -0.00925
C 11.12684 9.2339 0.01877
C 11.08722 19.2045 -0.01046
C 11.07786 30.55079 0.00406
C 12.27601 15.65605 -0.02696
C 13.52071 13.5256 0.00228
C 14.72664 21.24666 0.03338
C 14.76603 19.85303 -0.0258
C 15.98673 19.19383 -0.0331
C 15.96279 17.74686 -0.00316
C 14.72583 17.05559 0.02188
C 14.77803 15.62861 -0.01979
C 16.00598 14.93047 0.02691
C 14.80287 12.81538 -0.01581
C 14.7582 11.35919 0.01452
C 15.99516 21.98241 -0.00491
C 14.76083 8.49974 0.04892
C 15.99788 6.33003 -0.03557
C 15.96767 4.98017 0.03754
C 14.75052 4.23158 0.01739
C 14.75578 2.79816 0.00755
C 16.01199 2.09955 -0.0054
C 15.96775 0.74264 0.00667
C 14.73666 34.06412 0.00143
C 17.19559 32.66944 -0.017
C 18.41023 32.01497 0.00364
C 14.78203 7.13902 -0.00111
C 13.51311 14.91862 -0.00114
C 16.007 23.36401 -0.00109
C 14.78739 25.55293 -0.02213
C 12.30162 12.79253 0.00798
C 12.26804 11.41065 0.00422
C 13.56916 10.64158 0.0351
C 13.52138 9.2094 -0.03113
C 12.29906 8.47493 0.02098
C 12.27929 7.05972 0.01848
C 13.52925 6.3959 -0.00619
C 13.55654 5.00627 -0.02162
C 12.27274 4.27481 0.00889
C 14.73138 24.15341 0.03698
C 12.24503 2.86637 -0.00481
C 13.53553 0.71505 0.01443
C 12.24971 34.06847 0.03505
C 14.74973 32.66847 -0.02815
C 16.02994 31.95513 -0.04147
C 15.96443 30.54356 -0.05302
C 14.74653 29.76656 0.00213
C 14.72117 28.37333 -0.00066
C 15.99579 27.6747 -0.00289
C 15.99578 26.25656 0.00028
C 13.5238 2.11043 0.00979
C 11.08073 31.98732 0.03592
C 9.80571 32.70114 0.00572
C 7.39953 34.0637 0.0402
C 3.67782 4.97162 -0.03113
C 2.45324 4.27097 -0.02566
C 2.46199 2.87963 -0.00094
C 3.68239 2.06378 0.02322
C 3.68758 0.69518 -0.00725
C 2.43275 0.02285 -0.05697
C 4.89205 32.67445 0.01087
C 6.14874 31.95299 -0.01343
C 6.13395 30.57549 0.00988
C 3.69602 6.374 0.017
C 4.89968 29.8677 0.0276
C 6.14957 27.72267 -0.00077
C 6.15605 26.29469 0.03368
C 4.89905 25.59418 -0.02929
C 4.93404 24.1664 -0.00966
C 6.12534 23.41029 -0.03337
C 6.1346 22.00868 0.01227
C 4.92147 21.34643 0.00873
C 4.95835 19.83556 -0.00049
C 6.18833 19.17935 0.00848
C 4.89529 28.41134 0.01305
C 6.22814 17.74159 -0.01303
C 2.45894 7.08652 -0.00643
C 3.66681 9.21844 -0.00518
C 3.64918 30.57694 0.03189
C 2.45775 29.82159 0.00031
C 2.47568 28.40174 -0.003
C 3.65637 27.71856 0.01402
C 3.72264 26.27921 0.02379
C 2.44583 25.55743 0.00907
C 2.48912 24.13628 0.00643
C 3.60955 23.40018 -0.01509
C 3.68696 22.05017 0.03267
C 2.46206 8.55329 0.0086
C 2.46078 21.32458 0.02374
C 3.72755 19.19831 0.0073
C 3.68388 17.69821 0.0174
C 2.47262 17.03812 0.03828
C 2.48382 15.64112 0.01226
C 3.65259 14.9639 -0.00279
C 3.68912 13.4989 0.01996
C 2.43237 12.74477 -0.03996
C 2.4577 11.34631 0.01465
C 3.7174 10.65359 -0.00074
C 2.50443 19.86013 0.00402
C 4.92873 17.09188 -0.01378
C 4.93708 15.66403 0.02635
C 6.12637 14.92828 0.0127
C 7.42354 21.31519 -0.00131
C 7.43634 19.86065 -0.01118
C 8.61412 19.1969 -0.014
C 8.57787 17.67685 0.02147
C 7.37553 17.03361 0.00373
C 7.35402 15.65427 -0.00191
C 8.59972 14.86947 0.00438
C 8.59305 13.49672 0.01291
C 7.38294 12.79803 0.00093
C 8.58324 22.06124 -0.02896
C 7.40412 11.31271 0.00057
C 8.61743 9.26718 -0.00334
C 7.38348 8.555 0.02339
C 7.41212 7.1348 0.01641
C 8.62445 6.3935 -0.00719
C 8.61523 4.99166 0.01364
C 7.41592 4.32575 -0.01062
C 7.36387 2.85085 -0.00033
C 8.56624 2.15884 0.03589
C 8.63577 0.69168 -0.02759
C 8.61759 10.701 -0.01634
C 8.56969 23.46504 -0.01004
C 7.37987 24.18313 0.00488
C 7.33855 25.60252 0.01745
C 6.13774 13.51095 0.01396
C 4.94078 12.81349 0.01849
C 4.89922 11.37006 -0.01142
C 6.14741 10.65831 -0.00562
C 6.1624 9.19092 -0.00494
C 4.94429 8.49835 0.00054
C 4.89961 7.11084 0.03007
C 6.13344 6.41254 -0.00095
C 6.1348 4.98885 0.01572
C 4.84756 4.24748 -0.04848
C 4.89094 2.85604 -0.00892
C 6.1242 2.11572 -0.01362
C 6.15441 0.72396 -0.0008
C 4.89707 0.036 0.0288
C 7.36635 32.69411 0.00393
C 8.64701 32.00374 0.00895
C 8.61821 30.51269 0.00685
C 7.3775 29.81863 0.02888
C 7.33973 28.39727 -0.00482
C 8.59885 27.66982 -0.01384
C 8.59976 26.29224 0.03693
C 18.4008 30.54039 -0.00831
C 3.63913 31.94039 -0.04307
C 17.19748 29.79474 -0.02957
C 18.45007 27.74899 0.00654
C 29.45765 4.24965 0.0103
C 29.5226 2.87658 0.02108
C 30.74642 2.09139 0.00716
C 30.74221 0.69288 0.00307
C 29.5112 34.07428 0.00346
C 31.98133 32.65271 0.01713
C 33.22367 31.98509 -0.01694
C 33.19555 30.51773 0.01428
C 31.97297 29.81319 -0.02142
C 30.7363 4.97636 0.07705
C 31.95461 28.43614 0.0544
C 33.22252 26.27299 0.00682
C 31.97745 25.51789 -0.01779
C 32.02169 24.12797 0.03794
C 33.21516 23.43563 0.01927
C 33.21105 22.0151 0.01574
C 32.01107 21.3119 -0.02383
C 31.96606 19.88297 -0.01429
C 33.20043 19.16464 -0.0136
C 33.16889 17.7775 0.00594
C 33.24203 27.73803 0.00026
C 31.98125 16.99673 -0.02474
C 30.77914 6.38027 0.01908
C 29.51965 8.52845 -0.00971
C 29.50921 29.8351 0.0014
C 29.52058 28.34851 0.00924
C 30.72947 27.67702 0.02326
C 30.75611 26.22349 0.00261
C 29.47642 25.50372 0.03265
C 29.48493 24.10548 -0.02049
C 30.72985 23.42545 -0.01854
C 30.71546 22.05578 -0.01415
C 29.53614 21.32111 -0.03039
C 29.52374 7.05996 0.01518
C 29.54742 19.85638 0.01836
C 30.75612 17.75686 -0.00669
C 29.5444 17.01996 0.0101
C 29.52068 15.55756 0.01705
C 30.78323 14.9276 -0.0405
C 30.77324 13.47584 -0.01303
C 29.48107 12.75576 -0.01461
C 29.54885 11.37799 -0.02155
C 30.74604 10.63718 -0.00944
C 30.72904 9.26248 -0.03735
C 30.75622 19.20643 0.03531
C 30.72858 30.52956 0.01324
C 32.02831 15.63421 0.00369
C 33.1971 13.4901 -0.00644
C 34.4278 21.29938 -0.02213
C 34.42811 19.87796 0.01951
C 1.28071 19.21653 -0.01678
C 1.24737 17.73676 0.01223
C 34.41251 16.98505 0.00648
C 34.41895 15.62925 0.02114
C 1.23035 14.9181 -0.02957
C 1.25425 13.54266 0.00343
C 34.40534 12.6998 -0.02656
C 1.18539 22.00974 0.02712
C 34.4044 11.36398 -0.02442
C 1.28043 9.22554 -0.00583
C 34.38042 8.49895 -0.02302
C 34.38782 7.10969 -0.02849
C 1.203 6.33924 0.02931
C 1.1975 4.94875 0.00628
C 34.42654 4.19189 -0.0345
C 0.0065 2.8688 -0.00931
C 1.25911 2.17431 -0.00939
C 1.25429 0.71169 -0.00468
C 1.22165 10.66766 -0.00027
C 33.18666 14.86607 0.00455
C 1.18388 23.4597 0.00723
C 34.43114 25.59983 -0.05239
C 31.98594 12.74789 -0.01839
C 31.96802 11.33281 0.00137
C 33.1578 10.67165 0.00199
C 33.18623 9.25774 0.04381
C 31.97268 8.55542 0.02806
C 31.93815 7.13067 0.01504
C 33.17431 6.39358 -0.00069
C 33.2049 4.99799 0.04926
C 31.98907 4.26624 -0.03838
C 0.00152 24.15524 0.03076
C 31.96254 2.842 0.00349
C 33.18658 0.68283 -0.00841
C 31.96467 0.00973 0.0001
C 34.41782 32.71181 -0.02927
C 1.23106 31.92211 -0.01404
C 1.23134 30.50199 0.01027
C 34.38264 29.80888 0.01831
C 0.00661 28.43595 -0.01037
C 1.26184 27.66711 -0.00439
C 1.19432 26.22994 -0.00598
C 33.17437 2.11583 -0.00323
C 30.77581 31.93378 0.04266
C 29.47937 32.62045 0.01177
C 27.03264 34.07906 -0.00416
C 19.70561 24.09301 -0.00381
C 20.91755 23.41007 0.03046
C 20.93747 22.01922 0.0296
C 19.65321 21.27143 0.03374
C 19.69594 19.82296 -0.02845
C 20.88969 19.14151 -0.03213
C 19.63451 4.31366 0.02239
C 19.70763 2.84479 0.01153
C 20.90294 2.0845 0.02734
C 19.65792 25.56152 0.01852
C 20.84087 0.70025 -0.0055
C 22.0775 32.65391 -0.00225
C 23.34568 31.93403 0.00071
C 23.33093 30.53099 -0.01107
C 22.16882 29.80281 -0.01586
C 22.15155 28.40965 -0.01971
C 23.28403 27.69365 -0.02118
C 23.29956 26.23823 0.00733
C 22.14362 25.51824 -0.00178
C 22.11182 24.12277 0.00768
C 19.69461 34.04974 0.01515
C 23.38986 23.4219 -0.0276
C 20.95681 26.24003 0.01126
C 19.65329 28.40964 -0.01662
C 18.44981 26.19814 -0.00703
C 17.20777 25.53156 -0.04076
C 17.23466 24.16662 -0.00652
C 18.48852 23.38436 0.0058
C 18.49689 21.97415 -0.00865
C 17.21447 21.27347 0.00675
C 17.20378 19.87028 -0.00311
C 18.46583 19.16488 0.00742
C 18.4495 17.68044 -0.01594
C 20.92703 27.69103 -0.01185
C 17.21883 17.02445 0.0106
C 17.20887 4.27895 -0.01721
C 17.22824 2.83147 -0.02422
C 18.48883 2.12852 0.01277
C 18.44233 0.71296 0.00096
C 17.20208 0.03554 -0.01527
C 19.71277 32.58283 0.01087
C 20.90098 31.93345 0.00199
C 20.91399 30.53097 0.01511
C 19.65945 29.86601 -0.00478
C 18.4361 4.97287 -0.01154
C 23.3628 22.03904 0.03005
C 22.08729 21.308 -0.04078
C 22.11326 19.86478 0.02117
C 28.3019 31.95622 0.00622
C 28.27375 30.55449 -0.02815
C 27.05779 29.77655 -0.00942
C 27.06293 28.4273 0.00487
C 28.29833 27.6862 0.00826
C 28.30864 26.26172 -0.00294
C 27.00641 25.5247 0.00152
C 27.08728 24.1653 0.01257
C 28.25355 23.3867 0.02316
C 27.17316 32.71318 -0.0032
C 28.27051 22.01691 0.04185
C 27.06035 19.88179 -0.00621
C 28.30248 19.17023 0.02611
C 28.21884 17.74988 0.02198
C 26.99808 17.0603 0.01094
C 28.26648 6.38101 0.00235
C 28.24727 4.96357 0.01495
C 27.07297 4.25755 0.01259
C 28.23089 2.09603 0.01799
C 28.26317 0.71128 0.01699
C 27.03033 21.31133 0.00194
C 24.57036 34.03297 -0.00037
C 24.57016 4.29691 -0.01654
C 25.81938 4.97795 -0.00218
C 23.38001 19.1772 0.02737
C 22.16675 4.29783 -0.00498
C 22.15322 2.80003 0.00135
C 23.38352 2.11932 0.03102
C 23.35282 0.67306 0.02555
C 22.1264 34.07944 0.01423
C 24.66615 32.70395 -0.00285
C 25.83844 31.94975 -0.009
C 25.8104 30.469 -0.01199
C 24.56274 29.82117 -0.00229
C 24.60968 28.44664 -0.00938
C 25.78294 27.71656 -0.0264
C 25.84886 26.27033 -0.01154
C 24.61989 25.58764 0.00684
C 24.61425 24.12138 -0.01052
C 25.848 23.42847 -0.01679
C 25.80252 21.98675 0.00367
C 24.60558 21.3459 0.04306
C 24.58588 19.88619 0.00996
C 25.79901 19.15563 0.00195
C 25.83664 17.73636 -0.00802
C 17.21244 28.39866 -0.04422
C 2.42707 32.635 0.03284
