373
Graphene
C 0.0138 0.01667 0.01295
C 9.88261 8.49584 0.00244
C 9.82083 7.1368 -0.01717
C 11.08196 6.39084 0.05265
C 11.06577 4.93103 -0.01952
C 9.85097 4.27443 -0.02813
C 9.85543 2.83996 0.00374
C 11.01797 2.10166 0.00052
C 11.07356 0.71807 -0.03682
C 9.82903 34.02469 0.01965
C 12.30203 32.62036 0.02058
C 13.54653 31.96955 -0.01957
C 13.54642 30.51624 -0.0108
C 12.33179 29.81134 -0.00368
C 12.32912 28.35643 -0.02696
C 13.5122 27.72767 -0.00114
C 13.53453 26.27358 0.00228
C 12.29445 25.51319 0.00798
C 12.22839 24.14895 0.00422
C 13.5723 23.36935 0.0351
C 11.08164 9.21499 0.02299
C 13.5051 22.00318 -0.03113
C 11.05808 10.6244 0.03542
C 9.81027 12.81711 0.01945
C 9.78649 32.68524 -0.02689
C 11.10376 31.99537 -0.01046
C 11.12486 30.53416 -0.00891
C 9.86871 29.82362 0.02819
C 9.85474 28.42064 0.00165
C 11.06356 27.71435 -0.02971
C 11.07058 26.25887 0.02894
C 9.84291 25.5945 -0.01789
C 9.83609 24.18266 0.00444
C 11.04201 23.43698 -0.00925
C 11.05931 22.04674 0.01877
C 9.86799 21.26438 0.01363
C 9.8525 19.85284 -0.02162
C 11.05735 19.19103 0.00415
C 11.12447 17.75302 -0.0014
C 9.8361 17.01629 0.02162
C 9.83416 15.61609 0.0076
C 11.07396 14.88392 0.01241
C 11.04137 13.45355 -0.01454
C 9.83554 11.38497 0.01416
C 12.33724 21.2919 0.02098
C 12.30223 19.87149 0.01848
C 13.55126 19.18856 -0.00619
C 14.74033 25.60198 -0.01581
C 14.74661 24.17284 0.01452
C 14.7486 21.24183 0.04892
C 14.78487 19.87415 -0.00111
C 15.9814 19.17863 -0.03557
C 16.01324 17.73867 0.03754
C 14.74952 17.03261 0.01739
C 14.73076 15.62635 0.00755
C 16.01 14.8872 -0.0054
C 16.01123 13.53046 0.00667
C 14.77197 12.74766 0.00143
C 14.77553 11.35495 -0.017
C 16.00484 10.67854 0.00364
C 16.02675 9.22383 -0.00831
C 14.7339 8.53873 -0.02957
C 14.74323 7.10518 -0.04422
C 15.99287 6.39516 0.00654
C 15.98757 4.92357 -0.00703
C 14.76707 4.2715 -0.04076
C 15.97094 27.72513 0.02691
C 14.76804 28.39648 -0.01979
C 14.71771 29.84828 0.02188
C 15.9505 30.57103 -0.00316
C 13.51193 17.77892 -0.02162
C 12.31038 17.0344 0.00889
C 12.28211 15.63019 -0.00481
C 13.51181 14.91617 0.00979
C 13.54518 13.52779 0.01443
C 12.30897 12.77041 0.03505
C 12.29154 11.35859 -0.02815
C 13.54889 10.64717 -0.04147
C 13.50777 9.24298 -0.05302
C 7.35739 34.06073 -0.01536
C 12.31452 8.52204 0.00213
C 13.51096 6.39251 -0.00289
C 13.5543 4.97736 0.00028
C 12.29528 4.26579 -0.02213
C 12.2901 2.84163 0.03698
C 13.49105 2.08418 -0.00109
C 13.5207 0.69262 -0.00491
C 12.2997 34.06175 0.03338
C 14.75651 32.6544 -0.0258
C 15.97452 31.90334 -0.0331
C 12.26554 7.0789 -0.00066
C 8.61214 0.70058 0.03101
C 8.56638 2.1346 -0.00428
C 7.38779 2.84237 -0.02245
C 3.72242 4.99723 0.03368
C 2.46945 4.27214 -0.02929
C 2.4804 2.82787 -0.00966
C 3.656 2.13125 -0.03337
C 3.6827 0.72132 0.01227
C 2.50196 0.05468 0.00873
C 4.93539 32.61764 -0.00049
C 6.13107 31.95395 0.00848
C 6.15768 30.54941 -0.01303
C 4.90537 29.8545 -0.01378
C 4.93164 28.39873 0.02635
C 6.15378 27.73615 0.0127
C 6.16406 26.23289 0.01396
C 4.93587 25.60319 0.01849
C 4.95836 24.16208 -0.01142
C 6.14254 23.41674 -0.00562
C 6.11792 22.01202 -0.00494
C 4.94578 21.30674 0.00054
C 4.91291 19.84544 0.03007
C 3.66424 6.40689 -0.00077
C 2.43011 7.13404 0.01305
C 2.4541 8.51581 0.0276
C 3.70873 9.24935 0.00988
C 3.67175 30.52718 0.0174
C 2.4833 29.79557 0.03828
C 2.47635 28.37885 0.01226
C 3.61136 27.71121 -0.00279
C 3.68722 26.33027 0.01996
C 2.46271 25.56456 -0.03996
C 2.49012 24.12873 0.01465
C 3.67781 23.44251 -0.00074
C 3.73906 22.00883 -0.00518
C 6.13738 19.13346 -0.00095
C 2.52212 21.29813 0.0086
C 3.63317 19.16682 0.017
C 3.69311 17.78489 -0.03113
C 2.44481 17.065 -0.02566
C 2.44047 15.63139 -0.00094
C 3.69013 14.90851 0.02322
C 3.70722 13.41562 -0.00725
C 2.47621 12.80107 -0.05697
C 2.47268 11.40556 0.01087
C 3.69243 10.66303 -0.01343
C 2.4465 19.87611 -0.00643
C 14.76906 2.82163 -0.00652
C 6.11225 17.75039 0.01572
C 4.9499 15.61109 -0.00892
C 8.61574 23.43211 -0.01634
C 8.63521 22.03752 -0.00334
C 7.39427 21.35304 0.02339
C 7.36819 19.90222 0.01641
C 8.66845 19.17562 -0.00719
C 8.63569 17.76793 0.01364
C 7.40942 17.11008 -0.01062
C 7.34746 15.56803 -0.00033
C 8.58481 14.89737 0.03589
C 8.57799 13.48662 -0.02759
C 7.35075 12.75942 0.0402
C 7.36742 11.35264 0.00572
C 8.57372 10.69128 0.03592
C 8.58773 9.25662 0.00406
C 7.38504 8.47692 0.00943
C 7.35406 7.13334 0.02841
C 8.59152 6.39905 -0.01111
C 8.62881 5.02314 -0.01275
C 7.37934 4.25818 0.00985
C 7.38945 24.13406 0.00057
C 7.41761 25.58085 0.00093
C 8.58414 26.287 0.01291
C 8.6231 27.71143 0.00438
C 6.14833 14.90665 -0.01362
C 6.14317 13.54717 -0.0008
C 4.93029 12.7957 0.0288
C 4.94982 11.40777 0.00393
C 6.13163 10.7047 0.00895
C 6.13342 9.27001 0.00685
C 4.93437 8.50893 0.02888
C 4.88039 7.10114 -0.00482
C 6.13491 6.38541 -0.01384
C 4.89504 17.02412 -0.04848
C 6.16902 4.95549 0.03693
C 4.8813 2.87353 0.00488
C 6.09275 2.1678 -0.01004
C 6.14668 0.74902 -0.02896
C 4.89218 0.02389 -0.00131
C 7.37137 32.65677 -0.01118
C 8.58937 31.93439 -0.014
C 8.61488 30.52309 0.02147
C 7.35724 29.8605 0.00373
C 7.36785 28.43954 -0.00191
C 4.93697 4.27468 0.01745
C 3.70868 31.92436 0.0073
C 15.99067 2.13287 0.0058
C 14.74888 34.07905 0.00675
C 30.75145 2.11194 0.00716
C 30.73654 0.71462 0.00307
C 29.47018 34.05697 0.00346
C 31.92228 32.65507 0.01713
C 33.19395 31.9173 -0.01694
C 33.21546 30.55369 0.01428
C 31.95485 29.8041 -0.02142
C 32.00556 28.41781 0.0544
C 33.21055 27.68743 0.00026
C 33.18464 26.26882 0.00682
C 31.96328 25.56267 -0.01779
C 32.00421 24.15325 0.03794
C 33.23457 23.44309 0.01927
C 33.20697 21.98578 0.01574
C 31.99811 21.31189 -0.02383
C 31.96747 19.88625 -0.01429
C 33.17373 19.20856 -0.0136
C 33.20612 17.75906 0.00594
C 31.98554 17.02707 -0.02474
C 29.55603 2.83757 0.02108
C 31.99409 15.60518 0.00369
C 29.4833 4.26226 0.0103
C 30.75934 6.41186 0.01908
C 30.70948 26.25492 0.00261
C 29.50341 25.52539 0.03265
C 29.50114 24.09895 -0.02049
C 30.77819 23.46867 -0.01854
C 30.74294 21.99356 -0.01415
C 29.56933 21.29739 -0.03039
C 29.53044 19.86786 0.01836
C 30.73205 19.17749 0.03531
C 30.75992 17.70199 -0.00669
C 29.47303 17.04656 0.0101
C 29.54757 15.584 0.01705
C 30.75921 14.89557 -0.0405
C 30.73081 13.50675 -0.01303
C 29.47848 12.77494 -0.01461
C 29.51609 11.38035 -0.02155
C 30.74467 10.63118 -0.00944
C 30.74879 9.23547 -0.03735
C 29.52159 8.49605 -0.00971
C 29.52697 7.12878 0.01518
C 30.78629 4.97276 0.07705
C 33.216 14.84684 0.00455
C 33.23506 13.47857 -0.00644
C 31.97826 12.77328 -0.01839
C 34.40949 19.88065 0.01951
C 1.25148 19.17422 -0.01678
C 1.22144 17.74572 0.01223
C 34.42778 17.01627 0.00648
C 34.43297 15.64727 0.02114
C 1.21707 14.90807 -0.02957
C 1.25505 13.53124 0.00343
C 34.41579 12.76279 -0.02656
C 34.41487 11.37437 -0.02442
C 1.21612 10.67812 -0.00027
C 1.25773 9.24885 -0.00583
C 0.00895 8.52075 -0.02302
C 34.41109 7.07712 -0.02849
C 1.21044 6.38295 0.02931
C 1.22304 4.95775 0.00628
C 0.02021 4.26042 -0.0345
C 34.419 2.78549 -0.00931
C 1.23683 2.13015 -0.00939
C 1.25138 0.70678 -0.00468
C 0.02754 21.29651 -0.02213
C 1.17755 22.0062 0.02712
C 1.19852 23.45595 0.00723
C 34.41505 24.12762 0.03076
C 31.94742 11.33427 0.00137
C 33.1782 10.61062 0.00199
C 33.17922 9.27315 0.04381
C 31.98834 8.53074 0.02806
C 31.95621 7.12064 0.01504
C 33.19918 6.38756 -0.00069
C 33.17878 4.95493 0.04926
C 31.9445 4.27153 -0.03838
C 31.98304 2.88204 0.00349
C 30.79001 27.63918 0.02326
C 33.20016 2.11048 -0.00323
C 31.9553 0.02556 0.0001
C 34.43074 32.66909 -0.02927
C 1.22822 32.00084 -0.01404
C 1.22019 30.5309 0.01027
C 34.40354 29.8116 0.01831
C 0.00769 28.44461 -0.01037
C 1.2412 27.65912 -0.00439
C 1.25235 26.27296 -0.00598
C 34.41797 25.57065 -0.05239
C 33.18928 0.68061 -0.00841
C 29.50761 28.39033 0.00924
C 29.50877 29.85058 0.0014
C 30.74152 30.49942 0.01324
C 19.68098 15.65388 0.02239
C 20.91583 14.91134 0.01153
C 19.64436 2.81749 0.02734
C 20.90718 2.12612 -0.0055
C 20.8643 0.69 0.01515
C 19.6437 0.00113 -0.00225
C 22.12509 32.69683 0.00071
C 23.3576 31.90821 -0.01107
C 23.35285 30.53256 -0.01586
C 22.15615 29.81589 -0.01971
C 23.35606 27.67967 -0.02118
C 22.11891 19.89311 0.00733
C 23.34773 19.12869 -0.00178
C 23.34529 17.71967 0.00768
C 22.12802 17.05436 -0.0276
C 22.0971 15.62336 0.03005
C 23.33479 2.10667 -0.04078
C 23.37457 0.71238 0.02117
C 22.14231 0.03353 0.02737
C 19.63087 17.02506 -0.03213
C 20.86752 17.72777 -0.02845
C 20.90535 19.11835 0.03374
C 19.67067 29.83041 0.0296
C 17.23016 32.64985 -0.00311
C 18.47001 31.94201 0.00742
C 18.41995 30.48617 -0.01594
C 17.18836 29.76755 0.0106
C 17.22727 19.88531 -0.01154
C 18.42293 19.16518 -0.01721
C 18.43844 17.72619 -0.02422
C 17.24159 16.99914 0.01277
C 17.20616 15.58376 0.00096
C 24.62208 32.69829 -0.00498
C 18.44832 14.88047 -0.01527
C 17.21082 12.75223 0.00199
C 17.18571 4.26186 0.01511
C 17.24638 2.81196 -0.00478
C 18.47286 2.11129 -0.01662
C 18.42162 0.679 -0.01185
C 17.24225 34.04882 0.01126
C 19.66999 32.6396 0.01852
C 20.91383 31.92274 -0.00381
C 20.93161 30.51664 0.03046
C 18.42881 13.44884 0.01087
C 15.98355 0.71186 -0.00865
C 25.85268 31.96639 0.00135
C 24.60868 29.80398 0.02555
C 27.05683 25.57727 0.00826
C 27.04467 24.17923 -0.00294
C 28.30173 23.37165 0.00152
C 28.2898 22.0213 0.01257
C 27.05184 21.28787 0.02316
C 27.04841 19.89938 0.04185
C 28.27399 19.16798 0.00194
C 28.28767 17.77605 -0.00621
C 27.05157 17.06897 0.02611
C 27.04762 15.60522 0.02198
C 28.32635 14.90867 0.01094
C 28.28666 13.53138 0.00235
C 28.26683 4.9317 0.01495
C 27.06863 2.88286 0.01259
C 28.31155 2.12156 0.01799
C 28.3029 0.68468 0.01699
C 27.01999 34.05118 -0.00416
C 29.49745 32.66952 0.01177
C 30.75501 31.91166 0.04266
C 28.35199 26.27907 0.00487
C 28.2729 27.6967 -0.00942
C 27.05858 28.36753 -0.02815
C 27.0504 29.80472 0.00622
C 24.54389 28.41076 0.01423
C 25.79706 27.67981 -0.00285
C 25.79726 26.26845 -0.009
C 24.60334 25.51583 -0.01199
C 24.58414 24.16005 -0.00229
C 25.80323 23.42917 -0.00938
C 25.80621 22.02169 -0.0264
C 24.60868 21.32391 -0.01154
C 24.56203 19.8683 0.00684
C 25.80808 30.53248 0.03102
C 25.81125 19.13722 -0.01052
C 24.57912 17.04323 0.00367
C 24.62564 15.6423 0.04306
C 25.80743 14.8722 0.00996
C 25.85294 2.1353 0.00195
C 25.82557 0.71322 -0.00802
C 24.60506 0.02506 -0.00218
C 27.09563 32.70701 -0.01654
C 28.28681 31.93969 -0.00037
C 28.28433 30.51083 -0.0032
C 25.85497 17.71968 -0.01679
C 2.49939 32.68302 0.00402
