323
Graphene
C 0.02302 0.03649 0.01295
C 9.88917 25.53812 -0.00289
C 9.81081 24.20022 0.00028
C 11.08076 23.46753 -0.02213
C 11.09207 21.98506 0.03698
C 9.89119 21.31845 -0.00109
C 9.85987 19.88505 -0.00491
C 11.01383 19.10889 0.03338
C 11.04259 26.24801 -0.00066
C 11.02074 17.63211 -0.0258
C 9.82765 15.59449 -0.00316
C 11.13021 14.9421 0.02188
C 11.11535 13.47291 -0.01979
C 9.88521 12.76338 0.02691
C 9.88363 11.35099 -0.01581
C 11.05655 10.72308 0.01452
C 11.0573 9.19727 0.04892
C 9.82668 16.95952 -0.0331
C 9.77868 8.49351 -0.00111
C 11.11891 27.62486 0.00213
C 9.78658 29.81058 -0.04147
C 7.34612 12.8165 -0.00114
C 7.37515 11.33226 0.00228
C 8.57245 10.71067 0.00798
C 8.50815 9.30365 0.00422
C 7.38723 8.54915 0.0351
C 7.40932 7.10671 -0.03113
C 8.63468 6.39632 0.02098
C 9.85594 28.41052 -0.05302
C 8.59654 4.98252 0.01848
C 7.39036 2.84668 -0.02162
C 8.6274 2.16933 0.00889
C 8.59904 0.80143 -0.00481
C 7.34635 0.00424 0.00979
C 9.82488 32.73617 0.01443
C 11.07881 31.88751 0.03505
C 11.07353 30.51313 -0.02815
C 7.4062 4.29136 -0.00619
C 9.91362 7.07655 -0.03557
C 11.06623 6.32394 0.03754
C 11.05701 4.98457 0.01739
C 12.3003 15.58022 -0.01721
C 12.20716 12.6784 -0.02422
C 12.3181 11.37954 0.01277
C 13.58708 9.20224 0.00096
C 12.31597 8.54887 -0.01527
C 12.31961 7.09732 0.01087
C 13.49399 6.47359 0.00199
C 12.30812 17.05918 -0.01154
C 13.50342 4.89694 0.01511
C 12.29052 2.79591 -0.01662
C 13.5306 2.16516 -0.01185
C 13.53655 0.66329 0.01126
C 12.26794 0.00489 0.01852
C 14.73882 32.67198 -0.00381
C 14.75793 29.79026 0.03046
C 14.82035 28.46858 0.0296
C 12.2911 4.21024 -0.00478
C 13.53943 17.73421 0.0106
C 13.58973 19.11265 -0.01594
C 12.331 19.81631 0.00742
C 9.78391 4.25323 0.00755
C 9.82497 2.81879 -0.0054
C 11.08506 2.07327 0.00667
C 11.08562 0.67367 0.00143
C 9.81925 0.05647 -0.017
C 12.24927 32.65687 0.00364
C 13.50586 31.97974 -0.00831
C 13.47478 30.58516 -0.02957
C 12.28094 29.86615 -0.04422
C 12.28364 28.41986 0.00654
C 13.55227 27.6571 -0.00703
C 13.55119 26.26317 -0.04076
C 12.32313 25.58755 -0.00652
C 12.31612 24.17982 0.0058
C 13.57561 23.45155 -0.00865
C 13.53233 22.01911 0.00675
C 12.31117 21.24858 -0.00311
C 8.58756 13.45466 -0.02696
C 15.97577 27.67968 0.03374
C 8.64487 14.92815 -0.00368
C 7.35162 17.03095 -0.01957
C 3.66065 9.2334 0.00057
C 2.41476 8.54993 -0.01634
C 2.44964 7.09905 -0.00334
C 3.63837 6.40999 0.02339
C 3.69752 5.00916 0.01641
C 2.51953 4.25885 -0.00719
C 2.44844 2.85109 0.01364
C 3.68636 10.58298 0.00093
C 3.65856 2.13457 -0.01062
C 2.46558 34.06566 0.03589
C 4.88146 32.63557 -0.02759
C 6.17923 31.92825 0.0402
C 6.18697 30.54504 0.00572
C 4.87269 29.89454 0.03592
C 4.93025 28.37591 0.00406
C 6.12597 27.70669 0.00943
C 3.66695 0.73176 -0.00033
C 6.15124 26.31549 0.02841
C 2.47158 11.30269 0.01291
C 3.67375 13.52188 -0.00191
C 3.64583 30.5753 0.00393
C 2.42987 29.82258 0.00895
C 2.45215 28.4099 0.00685
C 3.68403 27.73731 0.02888
C 3.70199 26.21658 -0.00482
C 2.47187 25.58136 -0.01384
C 2.47086 24.16282 0.03693
C 2.48503 12.78684 0.00438
C 3.62486 23.49015 0.01745
C 2.45316 21.34374 -0.01004
C 2.43818 19.87974 -0.02896
C 3.65523 19.17655 -0.00131
C 3.6609 17.77983 -0.01118
C 2.49239 16.98846 -0.014
C 2.50986 15.63975 0.02147
C 3.6761 14.91183 0.00373
C 3.74056 22.00351 0.00488
C 4.92445 25.56054 -0.01111
C 4.8455 24.13312 -0.01275
C 6.10428 23.53083 0.00985
C 4.90711 0.00563 0.01241
C 7.40708 32.63371 -0.01454
C 8.60069 31.9832 0.01945
C 8.64865 30.54007 0.01416
C 7.35302 29.77811 0.03542
C 7.43486 28.37979 0.02299
C 8.54067 27.63808 0.00244
C 6.12209 0.77385 0.0076
C 8.56759 26.28895 -0.01717
C 7.3581 24.13753 -0.01952
C 8.64457 23.45802 -0.02813
C 8.61764 21.91866 0.00374
C 7.40727 21.31832 0.00052
C 7.41601 19.92658 -0.03682
C 8.61092 19.19835 0.01965
C 8.59071 17.73376 0.02058
C 7.34036 25.50395 0.05265
C 6.147 2.12079 0.02162
C 4.96285 2.85268 -0.0014
C 4.92617 4.23682 0.00415
C 6.14494 22.06086 -0.02245
C 4.92698 21.37667 -0.00428
C 4.87999 19.89334 0.03101
C 6.20451 19.16367 -0.01536
C 6.20879 17.75639 -0.02689
C 4.95552 17.09011 -0.01046
C 4.90115 15.51343 -0.00891
C 6.14616 14.88347 0.02819
C 6.09976 13.50278 0.00165
C 4.85783 12.73519 -0.02971
C 4.91263 11.35524 0.02894
C 6.13088 10.6824 -0.01789
C 6.1234 9.25812 0.00444
C 4.94384 8.46394 -0.00925
C 4.90306 7.1259 0.01877
C 6.13968 6.41042 0.01363
C 6.17803 4.98666 -0.02162
C 7.37103 15.60785 -0.0108
C 3.69219 31.96302 0.0288
C 16.0098 26.29824 -0.02845
C 14.75263 24.16278 0.02239
C 33.14754 26.32919 0.00682
C 32.0302 25.48991 -0.01779
C 32.00652 24.25663 0.03794
C 33.1987 23.4558 0.01927
C 33.23805 22.04995 0.01574
C 31.96688 21.40074 -0.02383
C 31.91661 19.9543 -0.01429
C 33.24273 27.71455 0.00026
C 33.13716 19.17952 -0.0136
C 32.0042 17.06941 -0.02474
C 31.9965 15.5928 0.00369
C 33.22839 14.86947 0.00455
C 33.19142 13.50853 -0.00644
C 31.92398 12.83496 -0.01839
C 31.98569 11.36767 0.00137
C 33.12369 10.64342 0.00199
C 33.14375 17.79823 0.00594
C 33.1922 9.19868 0.04381
C 31.9892 28.36657 0.0544
C 33.14466 30.58137 0.01428
C 30.71467 14.91398 -0.01303
C 30.79208 13.6091 -0.01461
C 29.56639 11.30461 -0.02155
C 30.73082 10.67321 -0.00944
C 30.67098 9.22116 -0.03735
C 29.53007 8.51806 -0.00971
C 29.47909 7.16046 0.01518
C 31.90578 29.80757 -0.02142
C 30.69917 6.40455 0.01908
C 29.4831 4.20871 0.0103
C 29.51173 2.86952 0.02108
C 30.68885 2.12745 0.00716
C 30.75953 0.74051 0.00307
C 29.52358 34.02926 0.00346
C 31.96594 32.66232 0.01713
C 33.19321 31.98319 -0.01694
C 30.77739 4.97683 0.07705
C 31.98581 8.56671 0.02806
C 31.94427 7.10159 0.01504
C 33.17728 6.39934 -0.00069
C 34.40822 17.03567 0.00648
C 34.37459 15.66769 0.02114
C 1.27283 14.91068 -0.02957
C 1.25774 13.44326 0.00343
C 0.05965 12.74267 -0.02656
C 34.40153 11.37819 -0.02442
C 1.20414 10.69103 -0.00027
C 1.24079 17.74609 0.01223
C 1.20166 9.23101 -0.00583
C 34.41486 7.07989 -0.02849
C 1.20255 6.40841 0.02931
C 1.27818 4.99685 0.00628
C 0.00657 4.16873 -0.0345
C 0.03784 2.77788 -0.00931
C 1.26422 2.14929 -0.00939
C 1.23703 0.75558 -0.00468
C 34.42936 8.47159 -0.02302
C 1.19046 19.18799 -0.01678
C 0.03384 19.8333 0.01951
C 34.39074 21.2451 -0.02213
C 33.17273 4.99065 0.04926
C 31.94184 4.25515 -0.03838
C 31.93147 2.87068 0.00349
C 33.18105 2.12781 -0.00323
C 33.21511 0.64391 -0.00841
C 32.00425 34.06347 0.0001
C 0.00575 32.69928 -0.02927
C 1.28896 31.93777 -0.01404
C 1.22127 30.45664 0.01027
C 0.00371 29.83119 0.01831
C 0.04591 28.37919 -0.01037
C 1.20524 27.67034 -0.00439
C 1.24468 26.24437 -0.00598
C 34.41744 25.59152 -0.05239
C 34.41091 24.17791 0.03076
C 1.24405 23.51606 0.00723
C 1.19006 22.03346 0.02712
C 29.59598 17.10165 -0.0405
C 14.72826 25.59034 -0.03213
C 30.75679 17.76612 0.01705
C 30.76646 27.66542 -0.00669
C 18.47716 4.99952 0.03102
C 17.25046 4.25408 0.02555
C 17.18696 2.78872 0.01423
C 18.44253 2.16464 -0.00285
C 18.4466 0.71848 -0.009
C 17.2604 0.07048 -0.01199
C 19.61547 32.59627 -0.00229
C 17.23779 21.35685 0.00135
C 20.88973 31.97071 -0.00938
C 19.79494 29.81294 -0.01154
C 19.60746 28.38318 0.00684
C 20.86798 27.70629 -0.01052
C 19.67112 25.46748 -0.01679
C 19.62114 24.22811 0.00367
C 20.91521 4.89813 0.04306
C 19.67593 4.35998 0.00996
C 20.8961 30.58194 -0.0264
C 19.67934 2.83596 0.00195
C 18.39138 21.98476 -0.00498
C 17.15242 24.11832 0.02117
C 15.93101 23.44594 0.01153
C 15.97614 22.00644 0.02734
C 14.78456 21.2289 -0.0055
C 14.75096 19.88587 0.01515
C 14.74087 7.13091 -0.00225
C 15.91562 6.47158 0.00071
C 15.97974 5.03992 -0.01107
C 18.45043 23.44425 0.02737
C 14.72216 4.25408 -0.01586
C 15.97858 2.16506 -0.02118
C 16.00771 0.70306 0.00733
C 14.78704 34.04941 -0.00178
C 17.16853 28.34327 0.00768
C 18.383 27.71021 -0.0276
C 18.43295 26.29582 0.03005
C 17.19098 25.62825 -0.04078
C 14.75499 2.79329 -0.01971
C 20.91395 2.11656 -0.00802
C 20.85743 0.69939 -0.00218
C 19.66549 0.01862 -0.01654
C 27.0869 32.65734 0.01699
C 28.21358 31.89383 -0.00416
C 28.23818 30.49443 0.01177
C 27.08275 29.81232 0.04266
C 27.03297 7.01893 0.01324
C 28.23281 6.40597 0.0014
C 28.3189 4.91218 0.00924
C 24.60614 34.06441 0.01799
C 27.08039 4.26133 0.02326
C 28.24996 2.09107 0.03265
C 28.30569 0.62122 -0.02049
C 27.03376 34.05263 -0.01854
C 29.47377 32.63282 -0.01415
C 30.75405 31.9509 -0.03039
C 30.77204 30.48955 0.01836
C 29.51363 29.86181 0.03531
C 26.96584 2.81681 0.00261
C 25.75911 0.6817 0.01259
C 25.79828 2.06273 0.01495
C 24.56121 2.83492 0.00235
C 22.18881 32.6378 -0.00037
C 23.40245 31.93486 -0.0032
C 23.27429 30.53174 0.00622
C 22.07139 29.72811 -0.02815
C 22.09764 28.34836 -0.00942
C 23.36275 4.91992 0.00487
C 22.16897 4.22943 0.00826
C 22.17503 2.7796 -0.00294
C 23.40024 2.11663 0.00152
C 23.355 0.70487 0.01257
C 22.14848 34.0088 0.02316
C 24.57464 32.62505 0.04185
C 25.80784 31.98456 0.00194
C 25.88892 30.44829 -0.00621
C 24.66912 29.81348 0.02611
C 25.82738 4.92088 0.02198
C 24.5957 4.26568 0.01094
C 30.75245 19.16952 0.0101
C 2.45883 32.64993 -0.0008
