351
Graphene
C 34.43312 34.04726 0.01295
C 12.32969 2.77093 0.00228
C 13.55127 2.1848 0.00798
C 13.58819 0.70464 0.00422
C 12.29078 0.06509 0.0351
C 14.7101 32.72247 -0.03113
C 15.94225 32.03794 0.02098
C 16.02042 30.58635 0.01848
C 14.83743 29.83423 -0.00619
C 12.42047 4.26973 -0.00114
C 14.76617 28.39856 -0.02162
C 16.09596 26.22493 -0.00481
C 14.79185 25.52144 0.00979
C 14.7664 24.11316 0.01443
C 16.02379 23.32774 0.03505
C 15.93387 21.91531 -0.02815
C 14.80086 21.10418 -0.04147
C 14.90114 19.55503 -0.05302
C 16.19209 18.82057 0.00213
C 15.99642 27.62983 0.00889
C 16.07656 5.22658 -0.00066
C 13.41367 4.90862 -0.02696
C 12.30099 19.83486 -0.0108
C 9.74815 19.91346 0.0076
C 9.68668 4.3352 0.01241
C 9.8615 2.86508 -0.01454
C 11.04013 2.16224 0.01945
C 10.99168 0.78887 0.01416
C 9.82114 0.01637 0.03542
C 12.34721 32.7667 0.02299
C 13.49256 31.96384 0.00244
C 13.3778 19.30385 -0.00368
C 13.55932 30.5523 -0.01717
C 12.33171 28.38188 -0.01952
C 13.5467 27.66357 -0.02813
C 13.54738 26.17014 0.00374
C 12.28326 25.46913 0.00052
C 12.3369 24.07459 -0.03682
C 13.58073 23.33629 0.01965
C 13.56051 21.85317 0.02058
C 12.27983 21.33942 -0.01957
C 12.27746 29.79964 0.05265
C 9.82767 21.41141 0.02162
C 14.81675 4.54944 -0.00289
C 15.92873 2.29897 -0.02213
C 17.1575 2.87466 0.00364
C 18.47569 2.12685 -0.00831
C 18.44266 0.71069 -0.02957
C 17.2472 0.00789 -0.04422
C 19.6559 32.71567 0.00654
C 20.84818 31.98705 -0.00703
C 20.97776 30.64729 -0.04076
C 19.81104 29.79344 -0.00652
C 17.20574 4.27963 -0.017
C 19.6378 28.3942 0.0058
C 19.65075 24.17968 0.00675
C 20.88428 22.06462 -0.00311
C 19.65648 21.35053 0.00742
C 19.63549 19.90145 -0.01594
C 20.79757 19.10394 0.0106
C 20.76098 17.72747 -0.01154
C 19.48224 17.11489 -0.01721
C 19.57209 15.67057 -0.02422
C 19.64723 25.34621 -0.00865
C 14.74523 3.04339 0.00028
C 18.45965 4.96232 0.00143
C 16.97369 6.75806 -0.0054
C 16.03128 0.81856 0.03698
C 14.81116 0.036 -0.00109
C 17.20003 32.6208 -0.00491
C 18.4754 31.96339 0.03338
C 18.48141 30.52609 -0.0258
C 17.23365 29.8039 -0.0331
C 17.19516 28.39423 -0.00316
C 18.4855 27.61739 0.02188
C 18.3326 6.36375 0.00667
C 18.585 26.22106 -0.01979
C 17.33917 24.05985 -0.01581
C 18.47027 23.28704 0.01452
C 18.39373 21.91539 0.04892
C 17.2471 21.23011 -0.00111
C 17.19634 19.82352 -0.03557
C 18.44601 19.22856 0.03754
C 18.32409 17.80164 0.01739
C 16.88303 17.36631 0.00755
C 17.34189 25.52382 0.02691
C 20.8306 14.96036 0.01277
C 11.16589 22.05876 -0.0014
C 9.85937 24.10547 -0.02162
C 2.53974 7.08007 0.01572
C 3.74554 6.39444 -0.04848
C 3.73054 4.99117 -0.00892
C 2.47229 4.26926 -0.01362
C 2.46098 2.84798 -0.0008
C 3.72118 2.11796 0.0288
C 3.68549 0.74505 0.00393
C 2.48501 34.07215 0.00895
C 2.56685 8.49635 -0.00095
C 4.9082 32.66342 0.00685
C 6.13634 30.64984 -0.00482
C 4.85496 29.84968 -0.01384
C 4.87023 28.49441 0.03693
C 6.12045 27.82028 0.01745
C 6.12998 26.30877 0.00488
C 4.88062 25.56977 -0.01004
C 4.86755 24.17782 -0.02896
C 6.17635 23.42896 -0.00131
C 6.16231 32.02001 0.02888
C 6.15228 22.0304 -0.01118
C 3.76895 9.3239 0.03007
C 2.31817 11.37819 -0.00494
C 3.61966 30.5671 0.01305
C 2.40868 29.82133 -0.00077
C 2.37567 28.40818 0.03368
C 3.63254 27.72844 -0.02929
C 3.64211 26.21063 -0.00966
C 2.38047 25.61013 -0.03337
C 2.39552 24.19506 0.01227
C 3.70683 23.44232 0.00873
C 3.62217 10.68461 0.00054
C 3.65846 21.98717 -0.00049
C 2.40866 19.89348 -0.01303
C 3.67194 19.24937 -0.01378
C 3.66808 17.77881 0.02635
C 2.42165 17.06231 0.0127
C 2.47649 15.55717 0.01396
C 3.81304 14.73284 0.01849
C 3.68937 13.38017 -0.01142
C 2.30932 12.75109 -0.00562
C 2.45384 21.28456 0.00848
C 11.04434 23.43087 0.00415
C 4.90409 21.30337 -0.014
C 6.094 19.14523 0.00373
C 8.56367 22.06144 -0.01275
C 7.35331 21.27789 0.00985
C 7.29479 19.84785 -0.02245
C 8.68819 19.30503 -0.00428
C 8.65185 4.92752 0.03101
C 7.23675 4.29668 -0.01536
C 7.39664 2.92304 -0.02689
C 8.68611 2.2567 -0.01046
C 8.60564 23.47303 -0.01111
C 8.69394 0.84209 -0.00891
C 9.8897 32.72131 0.00165
C 11.10646 32.0436 -0.02971
C 11.02602 30.59198 0.02894
C 9.80646 29.84532 -0.01789
C 9.79442 28.45081 0.00444
C 11.06707 27.69428 -0.00925
C 11.06348 26.27068 0.01877
C 9.80438 25.58829 0.01363
C 7.39587 0.07242 0.02819
C 4.89545 19.88702 0.02147
C 7.36816 24.20115 0.02841
C 8.54951 26.31447 0.00406
C 6.2153 17.72115 -0.00191
C 5.04207 17.02196 0.00438
C 4.6997 15.74737 0.01291
C 4.78033 8.4837 0.00093
C 5.00527 7.11744 0.00057
C 6.15919 6.33995 -0.01634
C 6.04965 5.00215 -0.00334
C 4.83964 4.26147 0.02339
C 7.37353 25.57283 0.00943
C 4.92521 2.8497 0.01641
C 6.14078 0.79354 0.01364
C 4.92317 0.01407 -0.01062
C 7.43652 32.78259 -0.00033
C 8.61062 32.01446 0.03589
C 8.62221 30.59014 -0.02759
C 7.41438 29.97274 0.0402
C 7.33291 28.56136 0.00572
C 8.53319 27.77109 0.03592
C 6.18577 2.17622 -0.00719
C 3.66864 31.95008 0.0276
C 20.85467 13.55501 0.00096
C 19.69591 11.55666 0.01087
C 33.21915 31.9063 -0.01694
C 33.17252 30.47012 0.01428
C 31.88723 29.92644 -0.02142
C 31.84085 28.49507 0.0544
C 33.01141 27.72121 0.00026
C 33.02127 26.32859 0.00682
C 31.72719 25.68601 -0.01779
C 31.84909 24.35445 0.03794
C 31.99269 32.65638 0.01713
C 33.08165 23.52858 0.01927
C 31.93002 21.4119 -0.02383
C 31.98409 19.99179 -0.01429
C 33.11399 19.20223 -0.0136
C 33.12385 17.77976 0.00594
C 31.91117 17.10886 -0.02474
C 31.86491 15.58013 0.00369
C 33.1377 14.93978 0.00455
C 33.19167 13.49133 -0.00644
C 33.17604 22.13199 0.01574
C 31.97743 12.78928 -0.01839
C 29.50359 34.03163 0.00346
C 30.76013 2.08309 0.00716
C 29.61111 21.36667 -0.03039
C 29.53239 19.95591 0.01836
C 30.73739 19.23687 0.03531
C 30.68899 17.79244 -0.00669
C 29.43696 17.0312 0.0101
C 29.42057 15.60205 0.01705
C 30.74139 14.86735 -0.0405
C 30.73165 13.43645 -0.01303
C 30.79247 0.60912 0.00307
C 29.50633 12.73492 -0.01461
C 30.80512 10.61849 -0.00944
C 30.76626 9.22322 -0.03735
C 29.46782 8.48791 -0.00971
C 29.55312 7.04764 0.01518
C 30.7406 6.37978 0.01908
C 30.81279 4.96417 0.07705
C 29.50113 4.23503 0.0103
C 29.61382 2.8574 0.02108
C 29.54674 11.2696 -0.02155
C 30.73 22.17315 -0.01415
C 32.01495 11.30177 0.00137
C 33.22405 9.17537 0.04381
C 1.15447 19.2173 -0.01678
C 1.17538 17.81448 0.01223
C 34.4263 17.09001 0.00648
C 34.32548 15.63376 0.02114
C 1.14938 14.95565 -0.02957
C 1.17075 13.55806 0.00343
C 0.00532 12.76845 -0.02656
C 34.39668 11.37882 -0.02442
C 34.31097 19.9466 0.01951
C 1.17929 10.60257 -0.00027
C 0.054 8.42928 -0.02302
C 34.40839 7.09008 -0.02849
C 1.26754 6.36608 0.02931
C 1.25374 4.93475 0.00628
C 0.02819 4.23891 -0.0345
C 34.42901 2.81388 -0.00931
C 1.23246 2.10371 -0.00939
C 1.23655 0.68909 -0.00468
C 1.28896 9.14489 -0.00583
C 33.23959 10.62323 0.00199
C 34.34396 21.37822 -0.02213
C 1.20115 23.53897 0.00723
C 32.00192 8.4793 0.02806
C 31.94237 7.12755 0.01504
C 33.16718 6.41517 -0.00069
C 33.18745 4.97055 0.04926
C 32.00414 4.24001 -0.03838
C 31.99695 2.80306 0.00349
C 33.22012 2.14349 -0.00323
C 33.22506 0.66508 -0.00841
C 1.16955 22.08704 0.02712
C 32.02881 0.0605 0.0001
C 1.26111 31.96799 -0.01404
C 1.19882 30.50781 0.01027
C 34.41931 29.80974 0.01831
C 34.2646 28.3828 -0.01037
C 1.11213 27.72194 -0.00439
C 1.14431 26.2601 -0.00598
C 34.35773 25.62508 -0.05239
C 34.35715 24.19535 0.03076
C 34.40142 32.62799 -0.02927
C 19.6939 12.67753 -0.01527
C 30.70824 23.47031 -0.01854
C 30.58664 27.73608 0.03265
C 22.02845 11.37788 -0.01971
C 23.30775 10.72821 -0.02118
C 23.32966 9.32775 0.00733
C 22.07489 8.58017 -0.00178
C 22.09918 7.13208 0.00768
C 23.35637 6.39909 -0.0276
C 23.38036 4.97611 0.03005
C 22.11497 4.28677 -0.04078
C 22.10898 12.75717 -0.01586
C 22.18234 2.85236 0.02117
C 23.40702 0.68789 -0.00498
C 22.08756 0.05799 0.00135
C 24.58674 32.56157 0.03102
C 25.85136 32.03877 0.02555
C 24.59539 19.89606 0.01423
C 25.77266 19.2008 -0.00285
C 25.82283 17.80171 -0.009
C 24.56776 17.01079 -0.01199
C 23.39605 2.09608 0.02737
C 24.59934 15.59387 -0.00229
C 23.29125 13.3931 -0.01107
C 22.06907 15.57974 -0.00225
C 20.82588 10.64126 0.00199
C 20.7874 9.21925 0.01511
C 19.65202 8.53162 -0.00478
C 19.52859 7.09731 -0.01662
C 20.83233 6.44617 -0.01185
C 20.9704 5.04098 0.01126
C 19.6583 4.32127 0.01852
C 19.69364 2.86586 -0.00381
C 23.30605 14.86502 0.00071
C 20.90388 2.14656 0.03046
C 19.65539 34.07868 0.03374
C 22.14668 32.69823 -0.02845
C 23.27906 31.94986 -0.03213
C 21.70136 21.16529 0.02239
C 22.0957 19.81048 0.01153
C 23.3909 19.211 0.02734
C 23.30989 17.78065 -0.0055
C 22.07169 17.02507 0.01515
C 20.89807 0.72342 0.0296
C 30.53851 26.46976 -0.02049
C 25.79717 14.8077 -0.00938
C 24.58908 12.75166 -0.01154
C 28.28722 13.52156 0.00194
C 27.07461 12.78168 -0.00621
C 27.0803 11.3535 0.02611
C 28.2925 10.60181 0.02198
C 28.23616 9.20978 0.01094
C 27.06155 8.51403 0.00235
C 27.05691 7.11216 0.01495
C 28.32077 6.3855 0.01259
C 28.28026 14.86793 0.04185
C 28.29918 4.9157 0.01799
C 27.11595 2.82754 -0.00416
C 28.34388 2.12275 0.01177
C 28.32288 0.67449 0.04266
C 27.0922 33.94155 0.01324
C 29.55376 32.66073 0.0014
C 30.73374 31.97161 0.00924
C 30.6451 30.51565 0.02326
C 29.36106 29.78652 0.00261
C 27.07249 4.28417 0.01699
C 25.80093 13.4587 -0.0264
C 26.99609 15.61411 0.02316
C 28.24237 17.75329 0.00152
C 24.57628 11.34981 0.00684
C 25.84615 10.60546 -0.01052
C 25.8113 9.23654 -0.01679
C 24.53279 8.52937 0.00367
C 24.60759 7.09717 0.04306
C 25.85234 6.39356 0.00996
C 25.82115 4.93357 0.00195
C 24.62956 4.29133 -0.00802
C 26.97352 17.11714 0.01257
C 24.61165 2.82431 -0.00218
C 25.84131 0.61918 -0.00037
C 24.60956 34.00077 -0.0032
C 27.20577 32.48369 0.00622
C 28.41857 31.72004 -0.02815
C 28.18447 21.98978 -0.00942
C 27.23308 21.25445 0.00487
C 27.01299 19.9021 0.00826
C 28.22173 19.27621 -0.00294
C 25.89206 2.13385 -0.01654
C 2.45011 32.68189 0.00988
