345
Graphene
C 34.38106 0.0485 0.01295
C 18.286 9.18109 0.02098
C 16.97825 8.34728 0.01848
C 17.09195 6.82089 -0.00619
C 18.3971 6.3254 -0.02162
C 18.39666 4.92188 0.00889
C 17.12904 4.29766 -0.00481
C 17.10154 2.91749 0.00979
C 18.33141 2.2389 0.01443
C 18.45403 0.88847 0.03505
C 17.18561 0.1703 -0.02815
C 19.71755 32.73618 -0.04147
C 20.91524 31.91246 -0.05302
C 20.95515 30.4832 0.00213
C 19.64655 29.8031 -0.00066
C 19.63069 28.36881 -0.00289
C 20.84354 27.7308 0.00028
C 20.79899 26.26035 -0.02213
C 18.3626 10.61312 -0.03113
C 17.16973 11.35037 0.0351
C 17.29718 12.77059 0.00422
C 18.48816 13.51033 0.00798
C 15.96195 10.53922 0.03542
C 15.78792 9.14308 0.02299
C 15.90531 5.11084 0.00244
C 14.70119 4.49622 -0.01717
C 14.71009 3.06179 0.05265
C 15.86797 2.21656 -0.01952
C 15.88526 0.77644 -0.02813
C 14.68185 0.03014 0.00374
C 19.68144 25.38358 0.03698
C 17.21954 32.78693 0.00052
C 18.41575 30.61959 0.01965
C 18.19831 21.95274 0.02058
C 17.02759 20.03448 -0.01957
C 18.37168 19.20132 -0.0108
C 18.43636 17.85136 -0.00368
C 17.29022 17.10628 -0.02696
C 17.22145 15.64893 -0.00114
C 18.44407 14.90864 0.00228
C 18.45419 32.01761 -0.03682
C 14.94268 11.6064 0.01416
C 19.60187 24.14804 -0.00109
C 20.80958 21.90768 0.03338
C 23.39545 31.80788 0.00654
C 23.3484 30.39758 -0.00703
C 22.05199 29.72934 -0.04076
C 22.15722 28.32505 -0.00652
C 23.4365 27.70427 0.0058
C 23.31223 26.26043 -0.00865
C 21.98772 25.56286 0.00675
C 22.04098 24.14436 -0.00311
C 23.29033 23.48123 0.00742
C 23.27573 22.09465 -0.01594
C 22.03599 21.35051 0.0106
C 22.03833 19.91128 -0.01154
C 23.27434 19.24278 -0.01721
C 23.41322 17.76041 -0.02422
C 22.12016 17.05749 0.01277
C 22.14448 15.62979 0.00096
C 23.34254 14.94557 -0.01527
C 22.16272 32.63478 -0.04422
C 19.65816 0.08221 -0.02957
C 20.92768 0.69297 -0.00831
C 20.91115 2.05276 0.00364
C 19.40013 21.32186 -0.0258
C 19.56766 19.90968 -0.0331
C 20.78427 19.15322 -0.00316
C 20.87187 17.78587 0.02188
C 19.62364 17.11279 -0.01979
C 19.63569 15.61925 0.02691
C 20.83757 14.90554 -0.01581
C 20.89506 13.46834 0.01452
C 20.8133 23.31696 -0.00491
C 19.69467 12.74016 0.04892
C 20.90689 10.56391 -0.03557
C 20.85092 9.16137 0.03754
C 19.53654 8.55306 0.01739
C 19.60645 7.10086 0.00755
C 20.84133 6.33006 -0.0054
C 20.83346 4.89211 0.00667
C 19.55411 4.27013 0.00143
C 19.6108 2.87649 -0.017
C 19.60994 11.25189 -0.00111
C 14.82421 13.08652 0.01945
C 16.08062 13.63808 -0.01454
C 16.0072 14.95858 0.01241
C 6.22524 30.45661 0.00393
C 4.87982 29.81126 0.00895
C 4.84633 28.37167 0.00685
C 5.96926 27.70914 0.02888
C 5.94312 10.64174 -0.00482
C 6.01868 9.33595 -0.01384
C 4.88757 8.45672 0.03693
C 4.8975 7.12483 0.01745
C 6.17836 6.45569 0.00488
C 6.18322 5.0623 -0.01004
C 4.9285 4.29249 -0.02896
C 4.87373 2.91493 -0.00131
C 6.10183 2.24017 -0.01118
C 6.10381 0.67394 -0.014
C 4.91524 33.99726 0.02147
C 7.34942 32.61821 0.00373
C 8.55154 31.93828 -0.00191
C 6.19239 31.89037 0.0288
C 4.98426 32.55905 -0.0008
C 2.4758 0.02557 -0.01362
C 3.71199 0.71472 -0.00892
C 3.65677 30.49068 0.01227
C 2.34675 29.79702 0.00873
C 2.28103 28.46615 -0.00049
C 3.60676 27.71298 0.00848
C 3.65595 26.31769 -0.01303
C 2.41172 25.59442 -0.01378
C 2.20277 24.21229 0.02635
C 2.41614 12.58642 0.0127
C 8.84083 30.52173 0.00438
C 2.57288 11.26506 0.01396
C 3.69235 9.21802 -0.01142
C 2.43777 8.42929 -0.00562
C 2.50089 7.02373 -0.00494
C 3.71699 6.33231 0.00054
C 3.67783 4.9811 0.03007
C 2.41061 4.25807 -0.00095
C 2.50484 2.84192 0.01572
C 3.73959 2.13509 -0.04848
C 3.88435 10.60038 0.01849
C 7.4971 29.78157 0.01291
C 7.1715 28.40411 0.00093
C 8.22766 10.78642 0.00057
C 9.79367 0.00442 -0.01536
C 12.13881 32.4769 -0.02689
C 13.38163 32.0211 -0.01046
C 14.74604 18.51264 -0.00891
C 13.67243 13.85703 0.02819
C 12.37436 11.57008 0.00165
C 13.6286 11.10789 -0.02971
C 12.26122 4.38693 0.02894
C 11.01601 0.74143 0.03101
C 12.26766 2.91056 -0.01789
C 13.47594 0.74936 -0.00925
C 12.20359 34.02931 0.01877
C 14.72629 32.53828 0.01363
C 16.1157 31.91153 -0.02162
C 15.94023 19.17454 0.00415
C 16.10251 17.77537 -0.0014
C 14.80216 16.75938 0.02162
C 14.67577 15.58645 0.0076
C 13.47148 2.15861 0.00444
C 23.30415 13.55565 0.01087
C 11.03489 2.24907 -0.00428
C 9.82025 4.34205 0.00985
C 8.48088 9.30992 -0.01634
C 7.26277 8.6191 -0.00334
C 7.34034 7.21041 0.02339
C 8.71792 6.44653 0.01641
C 8.55852 5.08514 -0.00719
C 7.423 4.39188 0.01364
C 7.38031 2.89546 -0.01062
C 8.62295 2.15592 -0.00033
C 9.80622 2.92927 -0.02245
C 8.55259 0.76518 0.03589
C 9.74555 32.65878 0.0402
C 10.83099 31.72821 0.00572
C 10.38725 30.59785 0.03592
C 11.315 10.79097 0.00406
C 10.59963 9.65524 0.00943
C 9.66429 8.56851 0.02841
C 9.94416 7.15501 -0.01111
C 11.1239 5.0533 -0.01275
C 7.33326 0.00075 -0.02759
C 3.72768 31.93072 -0.03337
C 22.05836 12.79847 0.00199
C 23.32401 10.68243 -0.00478
C 31.95034 29.7854 -0.02142
C 31.96788 28.41715 0.0544
C 33.14366 27.62307 0.00026
C 33.13508 26.23488 0.00682
C 31.87188 25.53584 -0.01779
C 31.91013 24.13116 0.03794
C 33.12971 23.46971 0.01927
C 33.1429 22.07844 0.01574
C 31.90824 21.27529 -0.02383
C 31.96505 19.91011 -0.01429
C 33.23168 19.17327 -0.0136
C 33.31091 17.71298 0.00594
C 31.95744 17.06857 -0.02474
C 31.94599 15.71058 0.00369
C 33.1284 14.88494 0.00455
C 33.24316 13.48796 -0.00644
C 31.99592 12.80174 -0.01839
C 33.11452 30.5419 0.01428
C 33.16298 31.94579 -0.01694
C 32.01026 32.70039 0.01713
C 29.52275 0.03282 0.00346
C 30.74741 19.24427 0.03531
C 30.72349 17.82566 -0.00669
C 29.52419 17.11506 0.0101
C 29.50162 15.76622 0.01705
C 30.69499 14.97717 -0.0405
C 30.72001 13.54047 -0.01303
C 29.47959 12.78408 -0.01461
C 29.50414 11.36294 -0.02155
C 31.9408 11.37353 0.00137
C 30.69928 10.63184 -0.00944
C 29.44837 8.57467 -0.00971
C 29.43144 7.11924 0.01518
C 30.65394 6.35702 0.01908
C 30.72443 4.91169 0.07705
C 29.53553 4.24484 0.0103
C 29.43619 2.76991 0.02108
C 30.7542 2.14758 0.00716
C 30.69494 0.73499 0.00307
C 30.72537 9.14155 -0.03735
C 29.48693 19.963 0.01836
C 33.23821 10.72176 0.00199
C 31.95887 8.47229 0.02806
C 1.20392 17.77248 0.01223
C 0.00983 16.99647 0.00648
C 34.37438 15.53656 0.02114
C 1.1233 14.77373 -0.02957
C 1.32984 13.39714 0.00343
C 0.07389 12.78861 -0.02656
C 0.07786 11.34701 -0.02442
C 1.25356 10.62059 -0.00027
C 1.15692 9.22267 -0.00583
C 34.30626 8.5486 -0.02302
C 34.40765 7.06795 -0.02849
C 1.21932 6.37605 0.02931
C 1.25064 5.01452 0.00628
C 0.01785 4.30187 -0.0345
C 0.02075 2.82497 -0.00931
C 1.20152 2.16908 -0.00939
C 1.17942 0.77421 -0.00468
C 1.07819 19.13935 -0.01678
C 34.40998 19.92331 0.01951
C 34.38624 21.35443 -0.02213
C 1.23768 21.91155 0.02712
C 31.95486 7.02252 0.01504
C 33.15794 6.34131 -0.00069
C 33.17413 4.93326 0.04926
C 31.96119 4.23458 -0.03838
C 32.0033 2.7972 0.00349
C 33.25921 2.09895 -0.00323
C 33.16598 0.73806 -0.00841
C 31.96335 0.02478 0.0001
C 33.16775 9.27074 0.04381
C 0.05035 32.62531 -0.02927
C 1.19744 30.5714 0.01027
C 34.3765 29.88552 0.01831
C 34.40929 28.30517 -0.01037
C 1.13115 27.6465 -0.00439
C 1.18319 26.27397 -0.00598
C 34.41918 25.55417 -0.05239
C 34.35534 24.16178 0.03076
C 1.15538 23.39242 0.00723
C 1.2893 31.96219 -0.01404
C 29.461 21.30421 -0.03039
C 30.71856 21.96853 -0.01415
C 30.7396 23.42773 -0.01854
C 24.51572 19.89298 -0.00178
C 25.78706 19.22282 0.00768
C 25.84965 17.82479 -0.0276
C 24.61145 17.1004 0.03005
C 24.59677 15.74283 -0.04078
C 25.81582 14.92721 0.02117
C 25.7882 13.51121 0.02737
C 24.56252 12.81405 -0.00498
C 24.59487 11.38338 0.00135
C 25.81828 10.6363 0.03102
C 25.86304 9.22057 0.02555
C 24.59296 8.52214 0.01423
C 24.55304 7.13622 -0.00285
C 25.76272 6.34744 -0.009
C 25.81789 4.9548 -0.01199
C 24.5917 4.21768 -0.00229
C 24.48765 2.78646 -0.00938
C 24.53395 21.21504 0.00733
C 25.7517 22.02817 -0.02118
C 25.74706 23.45638 -0.01971
C 24.52587 24.19586 -0.01586
C 23.39154 9.23409 -0.01662
C 22.10441 8.48906 -0.01185
C 22.08886 7.09607 0.01126
C 23.36144 6.39646 0.01852
C 23.29286 4.97041 -0.00381
C 22.0581 4.26353 0.03046
C 22.08433 2.8228 0.0296
C 23.30972 2.07055 0.03374
C 25.78699 2.12287 -0.0264
C 23.37147 0.67359 -0.02845
C 24.65297 32.58898 0.02239
C 25.82316 31.91728 0.01153
C 25.90716 30.50035 0.02734
C 24.61058 29.78109 -0.0055
C 24.66296 28.36544 0.01515
C 25.79213 27.64609 -0.00225
C 25.78316 26.25572 0.00071
C 24.54101 25.58367 -0.01107
C 22.17312 0.00212 -0.03213
C 25.80005 0.66276 -0.01154
C 24.5796 34.04445 0.00684
C 27.14883 32.63226 -0.01052
C 27.01928 8.45875 0.02611
C 26.98688 7.06252 0.02198
C 28.21296 6.39534 0.01094
C 28.27308 4.96236 0.00235
C 27.08657 4.26166 0.01495
C 26.99691 2.85446 0.01259
C 28.19704 2.13735 0.01799
C 28.31876 0.71845 0.01699
C 28.22379 9.30778 -0.00621
C 27.15591 34.003 -0.00416
C 30.73064 31.98179 0.04266
C 30.77185 30.45358 0.01324
C 29.5031 29.83813 0.0014
C 29.48276 28.44012 0.00924
C 30.77935 27.71633 0.02326
C 30.68972 26.26015 0.00261
C 29.5004 25.55837 0.03265
C 29.46773 24.21749 -0.02049
C 29.51178 32.69877 0.01177
C 22.10274 11.36205 0.01511
C 28.26868 10.73356 0.00194
C 26.99855 12.79948 0.02316
C 28.28508 31.91066 -0.01679
C 28.29074 30.50865 0.00367
C 27.08286 29.71501 0.04306
C 27.01168 28.33193 0.00996
C 28.27578 27.69407 0.00195
C 28.24502 26.23053 -0.00802
C 27.0223 25.53937 -0.00218
C 27.00718 24.16622 -0.01654
C 26.99578 11.38665 0.04185
C 28.26094 23.45977 -0.00037
C 27.0605 21.34531 0.00622
C 26.99195 19.89251 -0.02815
C 28.2767 19.18065 -0.00942
C 28.26526 17.80219 0.00487
C 27.03712 17.1309 0.00826
C 27.0064 15.67705 -0.00294
C 28.27195 15.03611 0.00152
C 28.21193 13.51131 0.01257
C 28.24195 22.03003 -0.0032
C 2.50234 32.64387 -0.00966
