332
Graphene
C 34.34732 34.02063 0.01295
C 18.46026 31.91151 0.03505
C 18.48893 30.53723 -0.02815
C 17.19465 29.92858 -0.04147
C 17.17019 28.49024 -0.05302
C 18.45081 27.77623 0.00213
C 18.41234 26.41809 -0.00066
C 18.49952 18.98423 -0.00289
C 17.18415 32.59901 0.01443
C 18.385 17.66136 0.00028
C 17.12113 15.60627 0.03698
C 18.44104 14.86335 -0.00109
C 18.46453 13.38729 -0.00491
C 18.80573 9.91444 0.03338
C 18.59579 6.50391 -0.0258
C 18.36658 5.04773 -0.0331
C 17.24481 4.13097 -0.00316
C 17.17271 17.0177 -0.02213
C 14.79372 33.98729 0.00979
C 16.04384 0.58696 -0.00481
C 15.84437 1.98066 0.00889
C 13.41185 30.59454 -0.03682
C 12.21689 29.84498 0.01965
C 12.20649 28.3795 0.02058
C 13.4381 27.88145 -0.01957
C 12.67859 17.6221 -0.0108
C 13.72647 0.79317 -0.00368
C 12.39354 0.23837 -0.02696
C 14.76958 32.5953 -0.00114
C 15.97055 31.87424 0.00228
C 15.93653 30.4591 0.00798
C 14.73917 29.76959 0.00422
C 14.68595 28.29994 0.0351
C 16.0059 27.72926 -0.03113
C 15.83086 17.68545 0.02098
C 14.67947 16.82756 0.01848
C 14.84534 15.39357 -0.00619
C 15.90844 14.74581 -0.02162
C 17.13961 2.79954 0.02188
C 18.36137 2.0758 -0.01979
C 18.43937 0.70627 0.02691
C 17.27316 34.0662 -0.01581
C 21.0206 10.75847 0.00675
C 21.04936 9.31988 -0.00311
C 19.6046 8.97135 0.00742
C 19.64997 7.32757 -0.01594
C 21.07168 6.45351 0.0106
C 20.86152 5.0289 -0.01154
C 19.55886 4.35729 -0.01721
C 19.56675 2.8131 -0.02422
C 20.76986 2.11423 0.01277
C 20.92986 0.7148 0.00096
C 19.65371 34.05455 -0.01527
C 22.16431 32.65245 0.01087
C 23.37645 31.85754 0.00199
C 23.38628 30.4113 0.01511
C 22.13554 29.83978 -0.00478
C 22.06763 28.36548 -0.01662
C 23.32692 27.68639 -0.01185
C 19.76043 11.14286 -0.00865
C 13.55627 32.02252 0.00052
C 19.56557 12.61028 0.0058
C 20.90647 14.81852 -0.04076
C 19.65936 32.56669 0.01452
C 20.9223 32.00323 0.04892
C 20.91018 30.59908 -0.00111
C 19.7068 29.83118 -0.03557
C 19.67239 28.4209 0.03754
C 20.80592 27.69544 0.01739
C 20.7345 26.30887 0.00755
C 19.53951 25.5696 -0.0054
C 19.68303 24.07905 0.00667
C 20.82791 23.44862 0.00143
C 20.86821 21.97908 -0.017
C 19.68044 21.32131 0.00364
C 19.51766 19.98133 -0.00831
C 20.74776 19.27576 -0.02957
C 20.79003 17.81027 -0.04422
C 19.5892 16.96567 0.00654
C 19.68775 15.57399 -0.00703
C 20.92741 13.43768 -0.00652
C 23.2567 26.26283 0.01126
C 12.27234 32.8416 0.00374
C 11.05648 0.80307 -0.01952
C 2.3714 8.53312 -0.01118
C 2.50681 7.03855 -0.014
C 3.67899 6.39582 0.02147
C 3.74169 4.94413 0.00373
C 2.51416 4.22742 -0.00191
C 2.55872 2.81631 0.00438
C 3.80436 2.10426 0.01291
C 3.5905 9.36639 -0.00131
C 3.65336 0.76781 0.00093
C 4.91869 32.65224 -0.01634
C 6.15296 32.02889 -0.00334
C 6.15028 30.62928 0.02339
C 4.96312 29.90359 0.01641
C 4.87528 28.53724 -0.00719
C 6.1142 27.79736 0.01364
C 6.11392 26.3705 -0.01062
C 2.50143 0.01578 0.00057
C 3.65263 10.6006 -0.02896
C 2.36222 11.42066 -0.01004
C 2.3355 12.82743 0.00488
C 3.71291 30.61356 0.00054
C 2.49649 29.97728 0.03007
C 2.47425 28.49832 -0.00095
C 3.73162 27.81317 0.01572
C 3.67324 26.35302 -0.04848
C 2.46404 25.56328 -0.00892
C 2.4743 24.20836 -0.01362
C 3.7348 23.47211 -0.0008
C 3.75136 22.05814 0.0288
C 2.50487 21.36753 0.00393
C 2.44386 19.93523 0.00895
C 3.6995 19.0912 0.00685
C 3.71706 17.74083 0.02888
C 2.39319 17.02208 -0.00482
C 2.33147 15.65395 -0.01384
C 3.49444 14.88793 0.03693
C 3.65404 13.44288 0.01745
C 4.83685 25.71505 -0.00033
C 4.90062 24.23207 0.03589
C 6.20989 23.47739 -0.02759
C 6.09187 22.2522 0.0402
C 7.38242 19.72115 -0.00925
C 8.46139 18.96668 0.01877
C 8.67661 17.61877 0.01363
C 7.32852 16.79015 -0.02162
C 7.09131 15.46069 0.00415
C 7.74563 2.29783 -0.0014
C 8.44821 0.91728 0.02162
C 7.38229 0.00793 0.0076
C 9.81457 32.8044 0.01241
C 11.04598 32.19596 -0.01454
C 11.05265 30.66757 0.01945
C 9.79198 29.8914 0.01416
C 9.78229 28.46722 0.03542
C 10.94906 27.57908 0.02299
C 10.54409 26.24379 0.00244
C 11.47594 17.00285 -0.01717
C 10.17327 17.35738 0.05265
C 7.51902 25.74307 0.00444
C 9.7653 0.31058 -0.02813
C 8.68324 26.30882 -0.01789
C 7.33969 28.46016 -0.02971
C 4.97952 21.36886 0.00572
C 4.85557 19.91691 0.03592
C 6.00923 19.09177 0.00406
C 6.18488 17.68965 0.00943
C 4.92327 17.03155 0.02841
C 4.77588 15.54402 -0.01111
C 6.08208 14.79393 -0.01275
C 4.79603 12.63712 0.00985
C 4.81559 4.07357 -0.02245
C 5.12517 2.7924 -0.00428
C 6.47091 2.08241 0.03101
C 6.15925 0.71018 -0.01536
C 4.91335 0.04304 -0.02689
C 7.38016 32.64442 -0.01046
C 8.63195 32.05837 -0.00891
C 8.61572 30.65746 0.02819
C 7.39064 29.89102 0.00165
C 8.54336 27.80478 0.02894
C 22.04224 25.59413 0.01852
C 22.09283 24.20218 -0.00381
C 23.35632 23.47449 0.03046
C 33.19804 27.71734 0.00026
C 33.13569 26.3583 0.00682
C 31.97339 25.61603 -0.01779
C 32.01131 24.20282 0.03794
C 33.13145 23.51807 0.01927
C 33.1773 22.11539 0.01574
C 31.9712 21.37352 -0.02383
C 31.94329 28.40055 0.0544
C 31.99463 19.96569 -0.01429
C 33.14067 17.78755 0.00594
C 31.89367 17.09455 -0.02474
C 31.9304 15.691 0.00369
C 33.12734 14.98374 0.00455
C 33.0928 13.52024 -0.00644
C 31.93508 12.76452 -0.01839
C 31.96286 11.34646 0.00137
C 33.20756 19.21312 -0.0136
C 31.96506 29.87955 -0.02142
C 33.12894 30.55957 0.01428
C 33.10869 31.99128 -0.01694
C 30.65794 17.82512 0.01705
C 29.44811 17.01929 -0.0405
C 29.44965 15.63293 -0.01303
C 30.67196 14.9035 -0.01461
C 30.57167 13.47092 -0.02155
C 29.3428 12.64851 -0.00944
C 29.52619 11.2369 -0.03735
C 30.74276 10.49358 -0.00971
C 30.78651 9.10987 0.01518
C 30.87059 6.40998 0.01908
C 30.66551 5.00158 0.07705
C 29.47424 4.20879 0.0103
C 29.54406 2.75885 0.02108
C 30.76342 2.11844 0.00716
C 30.65392 0.62625 0.00307
C 29.44521 33.98746 0.00346
C 31.94333 32.70875 0.01713
C 33.14616 10.65962 0.00199
C 33.2354 9.19381 0.04381
C 32.03311 8.48701 0.02806
C 32.06544 7.10995 0.01504
C 1.14856 17.77667 0.01223
C 34.34112 17.05997 0.00648
C 34.34277 15.65387 0.02114
C 1.05956 14.92489 -0.02957
C 1.10005 13.4984 0.00343
C 34.30678 12.85266 -0.02656
C 34.34775 11.4291 -0.02442
C 1.12648 10.66418 -0.00027
C 1.15577 9.26924 -0.00583
C 34.41286 8.49549 -0.02302
C 0.0209 7.05084 -0.02849
C 1.28821 6.3343 0.02931
C 1.26884 4.95294 0.00628
C 0.00749 4.24312 -0.0345
C 34.42737 2.78729 -0.00931
C 1.26029 2.11873 -0.00939
C 1.16401 0.68877 -0.00468
C 1.20368 19.24647 -0.01678
C 30.72928 19.2498 0.0101
C 0.02252 19.9114 0.01951
C 1.30229 22.09635 0.02712
C 33.19204 6.38397 -0.00069
C 33.19073 4.90805 0.04926
C 31.84649 4.24604 -0.03838
C 31.89882 2.85496 0.00349
C 33.15522 2.1238 -0.00323
C 33.13684 0.69903 -0.00841
C 31.9017 34.06522 0.0001
C 34.39642 32.60422 -0.02927
C 1.23287 31.96642 -0.01404
C 1.2014 30.61466 0.01027
C 34.36287 29.89162 0.01831
C 34.3878 28.4876 -0.01037
C 1.21598 27.85665 -0.00439
C 1.29713 26.3646 -0.00598
C 0.04059 25.63446 -0.05239
C 0.04967 24.23769 0.03076
C 1.29365 23.50893 0.00723
C 34.43072 21.38683 -0.02213
C 29.4565 19.90142 -0.00669
C 29.47619 21.32317 0.03531
C 30.76171 22.11502 0.01836
C 25.77349 30.49439 0.02117
C 24.53232 29.78026 0.02737
C 24.54548 28.42965 -0.00498
C 25.80853 27.64659 0.00135
C 25.75568 26.2372 0.03102
C 24.53819 25.59518 0.02555
C 24.56299 24.16687 0.01423
C 25.73005 23.46671 -0.00285
C 25.77894 21.98849 -0.009
C 24.61837 21.25354 -0.01199
C 24.57627 19.80595 -0.00229
C 25.76183 19.16359 -0.00938
C 25.80358 17.79591 -0.0264
C 24.55746 17.03229 -0.01154
C 24.56675 15.60418 0.00684
C 25.78134 14.86479 -0.01052
C 25.72994 13.44995 -0.01679
C 25.84272 31.96023 -0.04078
C 24.54154 12.7497 0.00367
C 24.62985 32.62873 0.03005
C 23.38446 0.65651 0.00768
C 23.42245 21.97925 0.0296
C 22.17231 21.25729 0.03374
C 22.02839 19.87695 -0.02845
C 23.29572 19.18625 -0.03213
C 23.39628 17.73605 0.02239
C 22.06382 17.0755 0.01153
C 22.21074 15.57012 0.02734
C 23.41498 14.7968 -0.0055
C 23.35004 13.41485 0.01515
C 22.1527 12.77309 -0.00225
C 22.25299 11.40306 0.00071
C 23.37819 10.53794 -0.01107
C 22.33345 8.68859 -0.01586
C 22.22181 7.27991 -0.01971
C 21.99058 4.18482 -0.02118
C 22.05433 2.75691 0.00733
C 23.33754 2.05641 -0.00178
C 22.12659 34.01578 -0.0276
C 3.64989 32.05824 -0.00494
C 24.58925 11.24058 0.04306
C 25.84273 2.21465 0.00195
C 26.93929 12.77307 0.01495
C 26.98696 11.29517 0.01259
C 28.04021 10.59588 0.01799
C 27.16265 2.82822 0.01699
C 28.25674 2.06611 -0.00416
C 28.26499 0.6058 0.01177
C 27.02273 34.05309 0.04266
C 29.50588 32.58299 0.01324
C 30.69647 31.92947 0.0014
C 30.70326 30.53553 0.00924
C 29.45468 29.83981 0.02326
C 29.44529 28.43714 0.00261
C 30.73228 27.70104 0.03265
C 30.76858 26.33836 -0.02049
C 29.49609 25.6095 -0.01854
C 29.49747 24.20334 -0.01415
C 30.75957 23.52587 -0.03039
C 28.12558 13.39599 0.00235
C 24.54009 2.81332 0.00996
C 28.1657 14.87989 0.01094
C 26.98645 17.10854 0.02611
C 25.81282 0.75856 -0.00802
C 24.62744 34.02021 -0.00218
C 27.03482 32.59995 -0.01654
C 28.25203 31.91879 -0.00037
C 28.22714 30.43337 -0.0032
C 27.02821 29.70478 0.00622
C 27.01658 28.2871 -0.02815
C 28.24145 27.5914 -0.00942
C 28.28392 26.21603 0.00487
C 27.02699 25.48214 0.00826
C 27.04046 24.10557 -0.00294
C 28.28564 23.49675 0.00152
C 28.22058 22.04095 0.01257
C 27.02725 21.33269 0.02316
C 27.04643 19.91598 0.04185
C 28.25223 19.19288 0.00194
C 28.26994 17.77703 -0.00621
C 26.95468 15.61641 0.02198
C 2.45975 32.72042 -0.00562
