287
Graphene
C 34.34044 0.08824 0.01295
C 7.39922 2.87614 0.00364
C 8.61335 2.13169 -0.00831
C 8.5893 0.68994 -0.02957
C 7.32062 0.02345 -0.04422
C 9.8366 32.64316 0.00654
C 11.09718 31.76359 -0.00703
C 7.32592 4.2552 -0.017
C 11.15147 30.34927 -0.04076
C 9.79349 28.46939 0.0058
C 11.32041 28.00771 -0.00865
C 11.10657 26.62886 0.00675
C 10.10374 25.63416 -0.00311
C 10.13602 24.13283 0.00742
C 11.17708 23.17629 -0.01594
C 9.75918 29.92911 -0.00652
C 11.17757 21.74273 0.0106
C 8.55651 4.91377 0.00143
C 7.32933 7.14917 -0.0054
C 8.59367 22.03362 -0.0258
C 7.34558 21.25174 -0.0331
C 7.2429 19.90206 -0.00316
C 8.55004 19.0968 0.02188
C 8.61335 17.68158 -0.01979
C 7.29996 17.07138 0.02691
C 8.50066 6.42902 0.00667
C 7.37878 15.63987 -0.01581
C 8.60192 13.54205 0.04892
C 7.40838 12.81987 -0.00111
C 7.30143 11.47183 -0.03557
C 8.54332 10.75963 0.03754
C 8.51238 9.3888 0.01739
C 7.30748 8.59796 0.00755
C 8.62884 14.96895 0.01452
C 8.73089 23.47098 0.03338
C 9.78227 21.29031 -0.01154
C 10.94356 19.1999 -0.02422
C 12.38329 32.60906 0.01153
C 13.63451 32.19459 0.02734
C 11.93188 29.11186 -0.0055
C 12.1 20.03094 0.01515
C 13.3345 19.38608 -0.00225
C 13.76523 18.03749 0.00071
C 9.79315 34.05694 0.02239
C 12.41904 17.21224 -0.01107
C 13.63535 15.04197 -0.01971
C 13.55652 13.5635 -0.02118
C 12.27089 12.90505 0.00733
C 12.30154 11.39478 -0.00178
C 13.50371 10.6688 0.00768
C 13.4752 9.24823 -0.0276
C 12.38952 15.7631 -0.01586
C 9.66263 19.87051 -0.01721
C 11.02063 0.69786 -0.03213
C 9.8459 2.78312 0.03374
C 11.15026 17.81765 0.01277
C 9.84618 17.02498 0.00096
C 9.89549 15.63221 -0.01527
C 11.19038 15.02979 0.01087
C 11.06541 13.61722 0.00199
C 9.80369 12.84948 0.01511
C 11.02277 2.08905 -0.02845
C 9.82069 11.42654 -0.00478
C 11.03224 9.3644 -0.01185
C 9.7866 8.64333 0.01126
C 9.76109 7.15464 0.01852
C 11.06785 6.45502 -0.00381
C 11.06469 5.02239 0.03046
C 9.80151 4.28746 0.0296
C 11.07763 10.74181 -0.01662
C 12.1726 8.59701 0.03005
C 7.47602 24.18186 -0.00491
C 8.75185 26.3662 0.03698
C 2.40167 11.38584 0.01877
C 3.64774 10.69942 0.01363
C 3.58637 9.33498 -0.02162
C 2.40265 8.59732 0.00415
C 2.40098 7.19411 -0.0014
C 3.57381 6.41091 0.02162
C 2.38972 12.79855 -0.00925
C 3.61111 5.00781 0.0076
C 2.31441 2.85757 -0.01454
C 3.61308 2.11044 0.01945
C 3.53881 0.6841 0.01416
C 2.32158 0.02811 0.03542
C 4.92825 32.67402 0.02299
C 6.12893 31.88376 0.00244
C 2.3749 4.34932 0.01241
C 6.13461 30.4822 -0.01717
C 3.592 13.5132 0.00444
C 2.35132 15.58549 0.02894
C 3.66622 30.56008 0.02841
C 2.42356 29.87661 -0.01111
C 2.35079 28.50261 -0.01275
C 3.66332 27.70515 0.00985
C 3.66204 26.29371 -0.02245
C 2.35903 25.61553 -0.00428
C 3.66338 14.97444 -0.01789
C 2.4975 24.20203 0.03101
C 3.63906 21.99866 -0.02689
C 2.38555 21.41098 -0.01046
C 2.4148 19.89284 -0.00891
C 3.65827 19.1082 0.02819
C 3.59582 17.73902 0.00165
C 2.32589 17.08731 -0.02971
C 3.74629 23.42185 -0.01536
C 7.45389 25.62896 -0.00109
C 4.94143 29.86056 0.05265
C 6.1127 27.64869 -0.02813
C 4.85328 7.10408 -0.02162
C 6.10302 6.40749 0.00889
C 6.118 4.9637 -0.00481
C 4.83474 4.29416 0.00979
C 4.84339 2.91314 0.01443
C 6.02904 2.20849 0.03505
C 4.77473 8.57925 -0.00619
C 6.08879 0.78532 -0.02815
C 7.32881 32.70418 -0.05302
C 8.58932 31.99394 0.00213
C 8.59834 30.60428 -0.00066
C 7.407 29.88102 -0.00289
C 7.4096 28.37037 0.00028
C 8.66004 27.76301 -0.02213
C 4.90833 0.06839 -0.04147
C 4.92759 28.39697 -0.01952
C 6.08082 9.31231 0.01848
C 4.81855 11.42112 -0.03113
C 6.15922 26.30632 0.00374
C 4.96791 25.53178 0.00052
C 5.02802 24.18398 -0.03682
C 6.24092 23.46464 0.01965
C 6.17864 21.92194 0.02058
C 4.87852 21.26213 -0.01957
C 6.09554 10.75959 0.02098
C 4.8788 19.86579 -0.0108
C 6.09084 17.72865 -0.02696
C 4.8155 17.04244 -0.00114
C 4.88108 15.70007 0.00228
C 6.06526 14.95908 0.00798
C 6.1263 13.55601 0.00422
C 4.8642 12.85926 0.0351
C 6.06788 19.1319 -0.00368
C 3.64538 31.99154 0.00943
C 12.23021 7.2206 -0.04078
C 13.41848 5.05936 0.02737
C 33.23545 23.45258 -0.0136
C 33.17689 21.96712 0.00594
C 31.95396 21.1834 -0.02474
C 33.18276 19.21061 0.00369
C 33.07794 18.02837 0.00455
C 33.22014 14.64062 -0.00644
C 31.91205 24.06983 -0.01429
C 33.09694 13.44848 -0.01839
C 33.13321 10.68237 0.00199
C 33.06846 9.2843 0.04381
C 31.85597 8.54605 0.02806
C 31.84139 7.13859 0.01504
C 33.11843 6.47557 -0.00069
C 33.0339 5.06382 0.04926
C 31.86035 11.41536 0.00137
C 31.83954 4.3202 -0.03838
C 31.7817 25.39494 -0.02383
C 32.93002 27.65463 0.01927
C 29.7757 8.66269 0.0103
C 29.42348 7.2804 0.02108
C 30.64944 6.39482 0.00716
C 30.55807 4.96127 0.00307
C 29.34897 4.2706 0.00346
C 29.34701 2.86589 0.01713
C 32.95421 26.24327 0.01574
C 30.66556 2.15579 -0.01694
C 29.41017 0.02651 -0.02142
C 31.98341 32.70582 0.0544
C 33.18508 32.04318 0.00026
C 33.08789 30.64919 0.00682
C 31.93882 29.82376 -0.01779
C 31.88238 28.61487 0.03794
C 30.67632 0.74839 0.01428
C 30.78821 9.51511 0.07705
C 31.89996 2.91298 0.00349
C 33.12853 0.85341 -0.00841
C 1.09829 14.86758 -0.02957
C 1.14902 13.49108 0.00343
C 34.41747 12.71685 -0.02656
C 34.34378 11.37646 -0.02442
C 1.12789 10.68969 -0.00027
C 1.18493 9.25427 -0.00583
C 34.30301 15.60108 0.02114
C 34.33789 8.51082 -0.02302
C 1.15839 6.44217 0.02931
C 1.07594 5.01104 0.00628
C 34.27588 4.28727 -0.0345
C 34.33068 2.9135 -0.00931
C 1.14093 2.20552 -0.00939
C 1.09903 0.73975 -0.00468
C 34.39399 7.10343 -0.02849
C 33.15599 2.2593 -0.00323
C 34.25984 17.05528 0.00648
C 1.07968 19.19956 -0.01678
C 31.9397 0.11586 0.0001
C 34.34737 32.77995 -0.02927
C 1.21474 32.06901 -0.01404
C 1.21305 30.60013 0.01027
C 34.31265 29.85105 0.01831
C 34.25786 28.46027 -0.01037
C 1.01147 17.73818 0.01223
C 1.08095 27.69201 -0.00439
C 34.29898 25.7007 -0.05239
C 0.00053 24.21354 0.03076
C 1.2813 23.54499 0.00723
C 1.16264 22.15758 0.02712
C 0.00285 21.38513 -0.02213
C 34.36034 20.02598 0.01951
C 1.14477 26.36722 -0.00598
C 13.44323 6.49535 0.02117
C 30.86512 22.94396 0.01908
C 29.60334 32.55996 -0.00971
C 14.71233 4.31823 0.00195
C 14.69533 2.90295 -0.00802
C 15.90974 2.16852 -0.00218
C 15.95802 0.83002 -0.01654
C 14.72939 0.22407 -0.00037
C 17.28118 11.38574 -0.0032
C 15.89732 5.05034 0.00996
C 18.31016 10.73589 0.00622
C 17.22126 8.52262 -0.00942
C 17.18039 7.08719 0.00487
C 18.40533 6.31934 0.00826
C 18.41599 4.96647 -0.00294
C 17.14378 4.33722 0.00152
C 17.0938 2.93211 0.01257
C 18.64414 9.35982 -0.02815
C 18.23659 2.11994 0.02316
C 15.95058 6.42597 0.04306
C 14.7807 8.50048 -0.01679
C 12.24396 4.31678 -0.00498
C 12.23042 2.91549 0.00135
C 13.44948 2.16554 0.03102
C 13.46828 0.8164 0.02555
C 12.30176 0.01339 0.01423
C 14.61861 32.88941 -0.00285
C 14.67025 7.15204 0.00367
C 14.85378 17.13903 -0.009
C 16.03863 14.70459 -0.00229
C 16.05125 13.57796 -0.00938
C 14.72874 12.72846 -0.0264
C 14.7434 11.33755 -0.01154
C 15.96503 10.68955 0.00684
C 15.95862 9.22596 -0.01052
C 15.01779 15.78307 -0.01199
C 30.70916 32.10948 0.01518
C 18.29061 0.54638 0.04185
C 19.70867 8.5015 -0.00621
C 25.76789 4.95551 -0.01854
C 24.54613 4.34788 -0.01415
C 24.58499 2.96046 -0.03039
C 25.73562 2.1917 0.01836
C 25.73236 0.6956 0.03531
C 24.54349 34.04611 -0.00669
C 25.75793 6.53446 -0.02049
C 26.97808 7.2521 0.0101
C 28.19685 5.08719 -0.0405
C 26.94978 4.24483 -0.01303
C 26.97569 2.90748 -0.01461
C 28.16798 2.10308 -0.02155
C 28.18805 0.65901 -0.00944
C 26.92498 34.05186 -0.03735
C 28.19504 6.54701 0.01705
C 17.02446 34.04637 0.00194
C 24.54885 7.16984 0.03265
C 23.29384 0.69661 0.02326
C 19.62738 7.09716 0.02611
C 20.78969 6.26355 0.02198
C 20.79647 4.83524 0.01094
C 19.57379 4.17103 0.00235
C 19.573 2.7464 0.01495
C 20.84053 2.09996 0.01259
C 22.03637 34.00133 0.00261
C 20.77646 0.60118 0.01799
C 21.94895 7.04325 -0.00416
C 23.17613 6.51142 0.01177
C 23.26761 4.94489 0.04266
C 22.0068 4.17141 0.01324
C 22.03286 2.75961 0.0014
C 23.35977 2.16681 0.00924
C 19.52792 0.01011 0.01699
C 2.39386 32.76633 0.00406
