426
Graphene
C 34.38417 33.99527 0.01295
C 13.48618 6.4459 0.0402
C 13.51966 5.03057 0.00572
C 12.25798 4.3839 0.03592
C 12.28661 3.03802 0.00406
C 13.45802 2.17818 0.00943
C 13.45503 0.81438 0.02841
C 12.25397 0.02633 -0.01111
C 14.14365 32.69763 -0.01275
C 15.61055 31.78693 0.00985
C 15.76287 30.36833 -0.02245
C 12.2086 7.18653 -0.02759
C 14.76051 23.9678 -0.00428
C 15.98548 21.99306 -0.01536
C 14.78003 21.27259 -0.02689
C 14.77742 19.81362 -0.01046
C 16.03502 19.20182 -0.00891
C 15.93041 17.77903 0.02819
C 14.71248 17.01122 0.00165
C 14.69059 15.63899 -0.02971
C 15.91946 14.93371 0.02894
C 15.97739 13.47513 -0.01789
C 14.77144 12.81439 0.00444
C 16.01445 23.49219 0.03101
C 12.36321 8.6334 0.03589
C 13.56534 9.33947 -0.00033
C 13.4935 10.69207 -0.01062
C 11.04537 9.37291 -0.00482
C 9.85867 8.66147 -0.01384
C 9.76973 7.25477 0.03693
C 10.96098 6.51173 0.01745
C 10.99397 5.06723 0.00488
C 9.78757 4.39559 -0.01004
C 9.78717 3.00925 -0.02896
C 11.03512 2.19761 -0.00131
C 11.08497 0.81237 -0.01118
C 9.89729 0.14713 -0.014
C 12.75191 32.81479 0.02147
C 13.61506 23.32248 0.00373
C 13.58399 22.02623 -0.00191
C 12.28389 21.26692 0.00438
C 12.27879 19.84279 0.01291
C 13.5364 19.16886 0.00093
C 13.50715 17.75851 0.00057
C 12.28589 16.98028 -0.01634
C 12.243 15.5782 -0.00334
C 13.5429 14.91986 0.02339
C 13.51358 13.50681 0.01641
C 12.25107 12.81018 -0.00719
C 12.26256 11.41937 0.01364
C 14.75126 11.38573 -0.00925
C 10.98077 10.7376 0.02888
C 15.89771 10.65502 0.01877
C 14.77737 8.57028 -0.02162
C 17.25007 12.76149 0.00422
C 17.16337 11.36892 0.0351
C 18.42061 10.55481 -0.03113
C 18.5055 9.16732 0.02098
C 17.18227 8.52334 0.01848
C 17.11925 7.08402 -0.00619
C 18.39687 6.40861 -0.02162
C 18.49567 4.94165 0.00889
C 17.25491 4.21923 -0.00481
C 17.12959 2.80422 0.00979
C 18.47427 13.54638 0.00798
C 18.34264 1.99071 0.01443
C 16.99277 33.94937 -0.02815
C 19.51795 32.5147 -0.04147
C 20.85054 31.98059 -0.05302
C 20.78161 30.57052 0.00213
C 19.52688 29.83511 -0.00066
C 19.70761 28.4656 -0.00289
C 20.89757 27.70042 0.00028
C 20.92532 26.34702 -0.02213
C 19.84298 25.53021 0.03698
C 19.66375 24.19819 -0.00109
C 18.32765 0.60118 0.03505
C 18.46113 14.92579 0.00228
C 17.16251 15.60649 -0.00114
C 17.22905 17.08599 -0.02696
C 14.69484 7.12454 0.00415
C 15.88814 6.44733 -0.0014
C 15.94894 4.99096 0.02162
C 14.75716 4.26914 0.0076
C 14.736 2.82018 0.01241
C 15.89091 2.06252 -0.01454
C 15.82134 0.64267 0.01945
C 14.59364 34.0568 0.01416
C 16.94263 32.49321 0.03542
C 18.18185 31.82773 0.02299
C 18.19259 30.40876 0.00244
C 16.94834 29.62364 -0.01717
C 17.20947 28.17705 0.05265
C 18.5188 27.71947 -0.01952
C 18.57875 26.24823 -0.02813
C 17.31045 25.79863 0.00374
C 17.21719 24.28216 0.00052
C 18.41433 23.42998 -0.03682
C 18.42809 22.07621 0.01965
C 17.2565 21.37254 0.02058
C 17.2817 19.93528 -0.01957
C 18.42695 19.17461 -0.0108
C 18.48479 17.77264 -0.00368
C 15.94477 9.25591 0.01363
C 9.77214 11.44619 0.00685
C 9.84234 12.76243 0.00895
C 10.99806 13.534 0.00393
C 3.60868 2.14357 0.00211
C 3.72183 0.71288 -0.00449
C 2.43061 0.10329 -0.01979
C 5.00233 32.69603 0.02784
C 6.32517 31.98931 -0.01977
C 6.26228 30.56093 -0.00561
C 4.97636 29.86986 0.00208
C 4.95686 28.5044 0.01707
C 6.21683 27.73789 0.02769
C 6.1646 26.26 -0.03291
C 2.37462 2.8507 0.0064
C 4.93065 25.57325 -0.04999
C 6.12885 23.52711 0.03284
C 6.19555 22.14076 -0.04307
C 4.89617 21.34462 0.03189
C 4.93126 19.89883 0.00031
C 6.11739 19.12278 -0.003
C 6.14833 17.72683 0.01402
C 4.87253 17.10897 0.02379
C 4.87066 15.67261 0.00907
C 6.04381 14.89303 0.00643
C 6.07826 13.47021 -0.01509
C 4.91737 24.08621 0.04505
C 2.43024 4.26828 -0.00039
C 3.6184 5.11751 0.02728
C 3.52548 6.4383 0.00245
C 3.76191 30.50968 0.01218
C 2.56045 29.76017 -0.01471
C 2.51407 28.35085 -0.02827
C 3.74226 27.73184 0.01078
C 3.7345 26.25614 -0.00112
C 2.43524 25.6049 0.03345
C 2.45602 24.17062 0.00748
C 3.66013 23.44223 0.00662
C 3.67408 22.03814 -0.0154
C 2.48142 21.30367 -0.01299
C 2.49288 19.87414 -0.00407
C 3.70657 19.16032 0.01138
C 3.61829 17.76153 0.03278
C 2.44619 17.06713 -0.00177
C 2.39557 15.55508 0.04421
C 3.6479 14.94481 0.00088
C 3.68334 13.4919 0.00828
C 2.45035 12.78683 -0.02375
C 2.33968 11.39985 0.00558
C 3.5784 10.60889 -0.0059
C 3.60111 9.18985 -0.01386
C 2.35271 8.51044 -0.02805
C 2.31145 7.11289 0.00081
C 4.81953 12.76646 0.03267
C 4.78062 11.3467 0.02374
C 5.98739 10.7096 0.00402
C 6.0386 9.28413 0.0073
C 7.31579 11.45951 -0.03337
C 8.52178 10.75022 0.01227
C 8.56229 9.35032 0.00873
C 7.387 8.60683 -0.00049
C 7.35177 7.25391 0.00848
C 8.54101 6.50647 -0.01303
C 8.58148 5.09138 -0.01378
C 7.34277 4.37011 0.02635
C 7.31117 2.91738 0.0127
C 8.56383 2.29198 0.01396
C 8.59728 0.86555 0.01849
C 7.36588 0.16624 -0.01142
C 9.89559 32.90008 -0.00562
C 9.8265 24.09898 -0.00494
C 11.0224 23.40925 0.00054
C 11.10028 22.06374 0.03007
C 9.8719 21.29993 -0.00095
C 9.77286 19.86839 0.01572
C 11.05347 19.20205 -0.04848
C 11.03816 17.78516 -0.00892
C 9.81577 17.14359 -0.01362
C 9.77507 15.68934 -0.0008
C 10.97675 14.91953 0.0288
C 7.28982 12.79765 -0.00966
C 20.90133 23.45581 -0.00491
C 8.56475 13.5675 -0.02929
C 7.36541 15.62004 -0.00077
C 4.86738 8.50461 0.0174
C 4.7399 7.1783 0.03828
C 6.0416 6.53674 0.01226
C 6.18266 5.11117 -0.00279
C 4.86436 4.37107 0.01996
C 4.83936 2.98042 -0.03996
C 6.03608 2.20338 0.01465
C 6.09821 0.78903 -0.00074
C 4.8984 34.05882 -0.00518
C 7.48516 32.77812 0.0086
C 8.77182 32.04281 -0.00643
C 8.65066 30.67415 0.017
C 7.57789 29.80838 -0.03113
C 7.39686 28.35339 -0.02566
C 7.40674 25.73029 -0.00094
C 7.42463 24.32312 0.02322
C 8.58775 23.49202 -0.00725
C 8.68035 22.01491 -0.05697
C 7.35544 21.32336 0.01087
C 7.32502 19.95108 -0.01343
C 8.51353 19.21364 0.00988
C 8.5748 17.78653 0.0276
C 7.31665 17.06703 0.01305
C 8.60948 14.90563 0.03368
C 20.97169 22.01162 0.03338
C 19.6439 21.30923 -0.0258
C 19.61644 19.92943 -0.0331
C 29.44245 12.77809 -0.01461
C 29.50376 11.43179 -0.02155
C 30.65968 10.68855 -0.00944
C 30.72363 9.19663 -0.03735
C 29.49098 8.50697 -0.00971
C 29.46726 7.08075 0.01518
C 30.75269 6.30297 0.01908
C 30.67033 4.94037 0.07705
C 29.54111 4.19066 0.0103
C 29.52119 2.75733 0.02108
C 30.70581 13.50141 -0.01303
C 30.71321 2.05696 0.00716
C 29.44679 33.96141 0.00346
C 32.01018 32.54807 0.01713
C 33.13413 31.78572 -0.01694
C 33.21651 30.42034 0.01428
C 31.94677 29.71203 -0.02142
C 31.92931 28.3626 0.0544
C 33.10813 27.63978 0.00026
C 33.17888 26.28861 0.00682
C 31.91649 25.52613 -0.01779
C 31.93385 24.05355 0.03794
C 30.70188 0.60297 0.00307
C 30.7181 14.91909 -0.0405
C 29.52104 15.63065 0.01705
C 29.5825 17.03396 0.0101
C 27.00989 7.11014 0.02198
C 28.24949 6.36303 0.01094
C 28.22159 4.90162 0.00235
C 27.00789 4.29512 0.01495
C 27.00633 2.81504 0.01259
C 28.28287 2.12774 0.01799
C 28.31114 0.73116 0.01699
C 27.1089 0.01413 -0.00416
C 29.51866 32.57883 0.01177
C 30.68329 31.93201 0.04266
C 30.74813 30.428 0.01324
C 29.45507 29.76252 0.0014
C 29.46409 28.36858 0.00924
C 30.68209 27.67327 0.02326
C 30.66525 26.23569 0.00261
C 29.45308 25.48715 0.03265
C 29.40782 24.14654 -0.02049
C 30.67664 23.41127 -0.01854
C 30.70255 22.04695 -0.01415
C 29.46747 21.24988 -0.03039
C 29.51511 19.87154 0.01836
C 30.78981 19.16477 0.03531
C 30.7488 17.73953 -0.00669
C 33.20614 23.36157 0.01927
C 33.17797 21.98576 0.01574
C 31.88587 21.33832 -0.02383
C 31.91989 19.95228 -0.01429
C 34.40082 24.11537 0.03076
C 1.22948 23.42497 0.00723
C 1.22818 22.00304 0.02712
C 34.4261 21.25298 -0.02213
C 0.01052 19.82002 0.01951
C 1.26129 19.16516 -0.01678
C 1.2065 17.74192 0.01223
C 34.3837 17.07829 0.00648
C 34.3919 15.60607 0.02114
C 1.13709 14.89248 -0.02957
C 1.17698 13.4635 0.00343
C 34.38378 12.78567 -0.02656
C 34.30639 11.26063 -0.02442
C 1.08197 10.60543 -0.00027
C 1.10405 9.19744 -0.00583
C 34.32026 8.49087 -0.02302
C 34.30177 7.06244 -0.02849
C 1.11009 6.33337 0.02931
C 1.16339 4.96347 0.00628
C 34.37572 4.20284 -0.0345
C 34.38061 2.78328 -0.00931
C 1.10213 2.05232 -0.00939
C 1.14389 0.67197 -0.00468
C 34.4173 25.54022 -0.05239
C 26.96996 8.5227 0.02611
C 1.18169 26.20045 -0.00598
C 34.38986 28.30366 -0.01037
C 33.16025 19.21717 -0.0136
C 33.25139 17.80978 0.00594
C 32.03277 17.09421 -0.02474
C 31.97198 15.68818 0.00369
C 33.18998 14.94994 0.00455
C 33.17087 13.48922 -0.00644
C 31.98393 12.75329 -0.01839
C 31.94336 11.35777 0.00137
C 33.0962 10.56157 0.00199
C 33.09929 9.09398 0.04381
C 31.87619 8.47635 0.02806
C 31.89893 7.07033 0.01504
C 33.12675 6.23267 -0.00069
C 33.17529 4.88372 0.04926
C 31.93012 4.22655 -0.03838
C 31.89724 2.79318 0.00349
C 33.15378 2.09566 -0.00323
C 33.18386 0.673 -0.00841
C 31.99163 33.90377 0.0001
C 34.39612 32.56743 -0.02927
C 1.21309 31.8572 -0.01404
C 1.33456 30.43694 0.01027
C 0.03571 29.76143 0.01831
C 1.2309 27.67514 -0.00439
C 3.7385 31.94541 0.02426
C 28.23328 9.21641 -0.00621
C 27.05208 11.35798 0.04185
C 22.10214 24.18413 -0.00311
C 23.31936 23.45012 0.00742
C 23.35144 22.03869 -0.01594
C 22.17193 21.33567 0.0106
C 22.11418 19.85471 -0.01154
C 23.34329 19.18066 -0.01721
C 23.40531 17.75375 -0.02422
C 22.1043 17.06588 0.01277
C 22.17156 15.6637 0.00096
C 23.3636 14.93171 -0.01527
C 22.08376 25.61848 0.00675
C 23.32552 13.51641 0.01087
C 22.14944 11.30545 0.01511
C 23.36148 10.68744 -0.00478
C 23.35814 9.26881 -0.01662
C 22.09078 8.4785 -0.01185
C 22.07535 7.09337 0.01126
C 23.30964 6.36357 0.01852
C 23.32541 4.93107 -0.00381
C 22.10495 4.27149 0.03046
C 22.08883 2.82573 0.0296
C 23.31758 2.19502 0.03374
C 22.15353 12.80709 0.00199
C 23.37178 26.38902 -0.00865
C 23.38289 27.74371 0.0058
C 22.13098 28.36552 -0.00652
C 20.83858 19.16124 -0.00316
C 20.89732 17.76443 0.02188
C 19.67215 17.055 -0.01979
C 19.70001 15.59346 0.02691
C 20.95146 14.91741 -0.01581
C 20.91695 13.48155 0.01452
C 19.66967 12.82343 0.04892
C 19.64783 11.37553 -0.00111
C 20.82345 10.66651 -0.03557
C 20.86298 9.24643 0.03754
C 19.65638 8.4939 0.01739
C 19.67041 7.13571 0.00755
C 20.82175 6.39215 -0.0054
C 20.89838 4.88683 0.00667
C 19.66121 4.2472 0.00143
C 19.58644 2.81672 -0.017
C 20.82184 2.06112 0.00364
C 20.80244 0.70049 -0.00831
C 19.59944 33.96603 -0.02957
C 22.06427 32.72692 -0.04422
C 23.279 31.99188 0.00654
C 23.3047 30.54927 -0.00703
C 22.01589 29.81055 -0.04076
C 23.32125 0.77304 -0.02845
C 22.05798 0.06232 -0.03213
C 24.56445 32.61174 0.02239
C 25.80395 31.95879 0.01153
C 25.77707 2.14214 -0.0264
C 25.77636 0.69638 -0.01154
C 24.56403 0.00922 0.00684
C 27.14006 32.69084 -0.01052
C 28.29162 31.89411 -0.01679
C 28.27462 30.48128 0.00367
C 27.02021 29.79723 0.04306
C 26.95596 28.38183 0.00996
C 28.23363 27.62906 0.00195
C 28.29329 26.24043 -0.00802
C 27.08017 25.57295 -0.00218
C 27.02423 24.10955 -0.01654
C 28.22596 23.40817 -0.00037
C 28.27727 21.96029 -0.0032
C 27.00663 21.39246 0.00622
C 27.1133 19.91118 -0.02815
C 28.30774 19.10906 -0.00942
C 28.3196 17.6733 0.00487
C 27.06694 17.07681 0.00826
C 27.04975 15.63831 -0.00294
C 28.28443 14.96087 0.00152
C 28.19492 13.50064 0.01257
C 27.05836 12.72333 0.02316
C 24.52155 2.88874 -0.00938
C 28.28014 10.59601 0.00194
C 24.57274 4.34334 -0.00229
C 25.74712 6.45553 -0.009
C 25.80793 30.52119 0.02734
C 24.49812 29.82286 -0.0055
C 24.5599 28.47228 0.01515
C 25.73452 27.69526 -0.00225
C 25.77639 26.29206 0.00071
C 24.55653 25.59719 -0.01107
C 24.487 24.15975 -0.01586
C 25.7682 23.4791 -0.01971
C 25.80628 22.04152 -0.02118
C 24.62173 21.28784 0.00733
C 24.58448 19.87852 -0.00178
C 25.87189 19.22325 0.00768
C 25.85621 17.76853 -0.0276
C 24.65842 17.07608 0.03005
C 24.65315 15.67118 -0.04078
C 25.86061 14.85907 0.02117
C 25.76004 13.4598 0.02737
C 24.51134 12.86814 -0.00498
C 24.53871 11.46039 0.00135
C 25.79479 10.68206 0.03102
C 25.81776 9.28465 0.02555
C 24.56799 8.533 0.01423
C 24.51533 7.12037 -0.00285
C 25.77551 5.01597 -0.01199
C 2.51298 32.6171 0.00787
