392
Graphene
C 34.37906 0.01638 0.01295
C 10.95259 2.20634 0.01877
C 11.02388 0.81093 0.01363
C 9.80401 0.10198 -0.02162
C 12.2432 32.63879 0.00415
C 13.43284 31.97827 -0.0014
C 13.48478 30.58519 0.02162
C 12.2175 29.85115 0.0076
C 12.22106 28.36258 0.01241
C 13.52261 27.7052 -0.01454
C 9.77057 2.99712 -0.00925
C 13.54518 26.31311 0.01945
C 12.25497 24.12253 0.03542
C 13.53915 23.36041 0.02299
C 13.46547 21.97609 0.00244
C 12.25826 21.27716 -0.01717
C 12.31129 19.84895 0.05265
C 13.58873 19.15924 -0.01952
C 13.57296 17.7998 -0.02813
C 12.32222 17.11179 0.00374
C 12.33605 15.71497 0.00052
C 12.23983 25.65872 0.01416
C 9.79042 4.39529 0.00444
C 11.04269 5.06683 -0.01789
C 11.0516 6.45192 0.02894
C 9.83942 28.38003 0.03589
C 11.0384 27.66653 -0.02759
C 11.01925 26.25214 0.0402
C 9.80138 25.59974 0.00572
C 9.75355 24.13037 0.03592
C 10.98612 23.37146 0.00406
C 11.05365 21.99016 0.00943
C 9.87646 21.25743 0.02841
C 9.9008 19.94628 -0.01111
C 11.06674 19.16673 -0.01275
C 11.09764 17.72906 0.00985
C 9.83449 17.06583 -0.02245
C 9.85618 15.59711 -0.00428
C 11.10183 14.90701 0.03101
C 11.1379 13.4697 -0.01536
C 9.87342 12.7397 -0.02689
C 9.88107 11.28999 -0.01046
C 11.07548 10.68665 -0.00891
C 10.99484 9.31296 0.02819
C 9.86838 8.47119 0.00165
C 9.80798 7.08787 -0.02971
C 13.47483 14.86623 -0.03682
C 9.8091 29.86622 -0.00033
C 13.57697 13.49346 0.01965
C 12.35877 11.36218 -0.01957
C 16.02558 17.81428 -0.02213
C 14.79369 17.06065 0.03698
C 14.72176 15.64031 -0.00109
C 15.9768 14.93191 -0.00491
C 15.93788 13.47677 0.03338
C 14.77577 12.72975 -0.0258
C 14.75622 11.36685 -0.0331
C 15.94203 10.64859 -0.00316
C 15.96051 9.23535 0.02188
C 16.04928 19.30279 0.00028
C 14.73495 8.52885 -0.01979
C 15.95065 6.33219 -0.01581
C 15.9809 4.93945 0.01452
C 14.75182 4.34644 0.04892
C 14.73608 2.90195 -0.00111
C 15.95365 2.14468 -0.03557
C 16.00429 0.64186 0.03754
C 14.77863 3e-05 0.01739
C 17.21399 32.61387 0.00755
C 18.44068 31.89693 -0.0054
C 14.78702 7.0803 0.02691
C 14.81872 19.88377 -0.00289
C 14.71408 21.26195 -0.00066
C 15.98834 21.94149 0.00213
C 13.54661 10.63565 -0.0108
C 13.46421 9.19357 -0.00368
C 12.18899 8.59967 -0.02696
C 12.27526 7.13607 -0.00114
C 13.53486 6.44101 0.00228
C 13.46308 5.05347 0.00798
C 12.25949 4.24466 0.00422
C 12.23545 2.83317 0.0351
C 13.53422 2.1976 -0.03113
C 13.56818 0.73945 0.02098
C 12.25308 0.03853 0.01848
C 14.67145 32.6628 -0.00619
C 15.95366 31.9036 -0.02162
C 15.99086 30.48191 0.00889
C 14.75626 29.81528 -0.00481
C 14.79154 28.34686 0.00979
C 16.04875 27.58944 0.01443
C 16.01573 26.15413 0.03505
C 14.73593 25.5533 -0.02815
C 14.72926 24.1249 -0.04147
C 15.98899 23.34637 -0.05302
C 12.35981 12.82708 0.02058
C 18.37241 30.4253 0.00667
C 11.00648 30.55836 -0.01062
C 9.73902 32.7374 -0.00719
C 2.34586 4.33772 0.01465
C 2.40338 2.90244 -0.00074
C 3.61359 2.18756 -0.00518
C 3.60451 0.79869 0.0086
C 2.43455 0.05562 -0.00643
C 4.87222 32.70745 0.017
C 6.0718 32.0586 -0.03113
C 6.09838 30.61099 -0.02566
C 4.89088 29.89827 -0.00094
C 3.59093 5.06628 -0.03996
C 4.91808 28.4796 0.02322
C 6.06044 26.2832 -0.05697
C 4.80351 25.60051 0.01087
C 4.81631 24.09488 -0.01343
C 6.10935 23.48656 0.00988
C 6.08465 22.03519 0.0276
C 4.86142 21.2509 0.01305
C 4.83727 19.88908 -0.00077
C 6.12699 19.23064 0.03368
C 6.18824 17.83776 -0.02929
C 6.06582 27.74728 -0.00725
C 3.6064 6.46619 0.01996
C 2.40708 7.09861 -0.00279
C 2.3949 8.59081 0.01226
C 3.60834 30.62824 0.01707
C 2.42143 29.84544 0.02769
C 2.34726 28.47757 -0.03291
C 3.67397 27.72727 -0.04999
C 3.56312 26.33413 0.04505
C 2.36838 25.56612 0.03284
C 2.3728 24.17523 -0.04307
C 3.59476 23.45186 0.03189
C 3.61444 21.98834 0.00031
C 2.37594 21.34672 -0.003
C 2.42336 19.87303 0.01402
C 3.60241 19.15315 0.02379
C 3.63239 17.70649 0.00907
C 2.46214 16.99002 0.00643
C 2.46194 15.5425 -0.01509
C 3.67737 14.89957 0.03267
C 3.59794 13.53424 0.02374
C 2.43815 12.87058 0.00402
C 2.42941 11.46185 0.0073
C 3.64001 10.65607 0.0174
C 3.67948 9.25727 0.03828
C 4.9427 17.05018 -0.00966
C 10.9896 31.96416 0.01364
C 4.96085 15.62648 -0.03337
C 6.11613 13.52769 0.00873
C 7.42195 19.89984 -0.01384
C 8.659 19.16671 0.03693
C 8.61495 17.83548 0.01745
C 7.45665 17.03171 0.00488
C 7.39114 15.63059 -0.01004
C 8.54892 14.91125 -0.02896
C 8.63855 13.46552 -0.00131
C 7.37456 12.79954 -0.01118
C 7.3884 11.40387 -0.014
C 7.33085 21.35703 -0.00482
C 8.59399 10.71789 0.02147
C 7.27946 8.56544 -0.00191
C 7.26907 7.18932 0.00438
C 8.55801 6.49829 0.01291
C 8.53097 5.1115 0.00093
C 7.34254 4.39879 0.00057
C 7.33105 2.89544 -0.01634
C 8.55427 2.23938 -0.00334
C 8.58918 0.78753 0.02339
C 7.3236 0.11041 0.01641
C 8.54795 9.28134 0.00373
C 8.64766 22.05232 0.02888
C 8.57798 23.42864 0.00685
C 7.37588 24.19473 0.00895
C 4.85114 12.85574 -0.00049
C 4.8848 11.37714 0.00848
C 6.11508 10.73776 -0.01303
C 6.1311 9.33165 -0.01378
C 4.93777 8.65834 0.02635
C 4.89119 7.13001 0.0127
C 6.11319 6.48515 0.01396
C 6.06542 5.07443 0.01849
C 4.85607 4.35908 -0.01142
C 4.86536 2.98057 -0.00562
C 6.01829 2.24052 -0.00494
C 6.01296 0.80954 0.00054
C 4.86012 0.08372 0.03007
C 7.32337 32.7892 -0.00095
C 8.55776 32.01994 0.01572
C 8.59763 30.63167 -0.04848
C 7.32148 29.90115 -0.00892
C 7.30763 28.48096 -0.01362
C 8.45708 27.72756 -0.0008
C 8.54943 26.32276 0.0288
C 7.32819 25.60891 0.00393
C 6.19543 14.98672 0.01227
C 17.1252 29.7043 0.00143
C 17.3256 28.35723 -0.017
C 18.56554 27.66082 0.00364
C 30.67589 4.93629 0.07705
C 29.43499 4.23331 0.0103
C 29.37043 2.84082 0.02108
C 30.6112 2.12735 0.00716
C 30.65903 0.66345 0.00307
C 29.44223 34.02369 0.00346
C 31.94465 32.61702 0.01713
C 33.12302 31.89008 -0.01694
C 33.14546 30.49172 0.01428
C 30.68736 6.31553 0.01908
C 31.90378 29.83093 -0.02142
C 33.31324 27.74823 0.00026
C 33.254 26.3545 0.00682
C 31.92755 25.64375 -0.01779
C 31.85272 24.34647 0.03794
C 33.00906 23.45197 0.01927
C 33.09562 21.9911 0.01574
C 31.95821 21.07792 -0.02383
C 32.01366 19.86821 -0.01429
C 33.30532 19.1371 -0.0136
C 32.05698 28.45029 0.0544
C 29.49574 7.07278 0.01518
C 29.52106 8.52042 -0.00971
C 30.71659 9.19542 -0.03735
C 28.19377 6.3673 0.04266
C 28.18745 4.91916 0.01324
C 26.9725 4.25153 0.0014
C 26.97814 2.85467 0.00924
C 28.1375 2.12682 0.02326
C 28.20829 0.67332 0.00261
C 26.99801 34.03407 0.03265
C 29.49104 32.65722 -0.02049
C 30.67651 31.96159 -0.01854
C 30.73961 30.57012 -0.01415
C 29.50231 29.78136 -0.03039
C 29.77613 28.36242 0.01836
C 30.82903 27.69999 0.03531
C 30.74967 17.80374 -0.00669
C 29.66742 17.09059 0.0101
C 29.47428 15.71988 0.01705
C 30.63791 14.91322 -0.0405
C 30.67311 13.50497 -0.01303
C 29.48955 12.76036 -0.01461
C 29.53019 11.37897 -0.02155
C 30.72364 10.67297 -0.00944
C 33.32084 17.66743 0.00594
C 27.03917 7.09283 0.01177
C 31.99544 17.02562 -0.02474
C 33.2272 14.95818 0.00455
C 34.35469 21.28209 -0.02213
C 0.03378 19.90718 0.01951
C 1.21963 19.2024 -0.01678
C 1.29411 17.79928 0.01223
C 0.01349 17.00547 0.00648
C 34.42878 15.625 0.02114
C 1.20462 14.9487 -0.02957
C 1.2522 13.53968 0.00343
C 34.34784 12.85392 -0.02656
C 1.137 22.04986 0.02712
C 34.34173 11.39646 -0.02442
C 1.17308 9.30081 -0.00583
C 34.3705 8.57918 -0.02302
C 34.39651 7.13597 -0.02849
C 1.1759 6.48718 0.02931
C 1.12781 5.04231 0.00628
C 34.3577 4.31789 -0.0345
C 34.40308 2.93117 -0.00931
C 1.16455 2.14154 -0.00939
C 1.12928 0.75389 -0.00468
C 1.2118 10.71187 -0.00027
C 1.1385 23.44628 0.00723
C 34.30999 24.11655 0.03076
C 34.40588 25.50206 -0.05239
C 33.15906 13.57859 -0.00644
C 31.95692 12.81313 -0.01839
C 31.94113 11.38126 0.00137
C 33.16106 10.70683 0.00199
C 33.18968 9.26443 0.04381
C 31.93013 8.5822 0.02806
C 31.92419 7.04404 0.01504
C 33.13396 6.41723 -0.00069
C 33.13798 5.00461 0.04926
C 31.906 4.26572 -0.03838
C 31.85991 2.79355 0.00349
C 33.14668 2.2093 -0.00323
C 33.12995 0.80323 -0.00841
C 31.92247 34.02559 0.0001
C 0.01011 32.63337 -0.02927
C 1.25803 31.95091 -0.01404
C 1.19954 30.61843 0.01027
C 0.02301 29.92952 0.01831
C 0.05216 28.50803 -0.01037
C 1.19501 27.72312 -0.00439
C 1.15551 26.22848 -0.00598
C 31.96402 15.59207 0.00369
C 27.00005 8.52634 -0.00416
C 28.29096 9.22606 0.01699
C 28.2944 10.65092 0.01799
C 20.81931 31.91773 -0.01185
C 20.83219 30.4834 0.01126
C 19.62686 29.85768 0.01852
C 19.76873 28.52855 -0.00381
C 19.83841 16.94028 0.03046
C 19.69711 15.56734 0.0296
C 20.93441 14.82084 0.03374
C 20.84639 13.39144 -0.02845
C 19.60686 12.74245 -0.03213
C 19.63699 32.6918 -0.01662
C 19.60355 11.22396 0.02239
C 20.91523 9.27107 0.02734
C 19.71953 8.50944 -0.0055
C 19.66655 7.10221 0.01515
C 20.86618 6.42984 -0.00225
C 20.82841 4.9668 0.00071
C 19.63353 4.20941 -0.01107
C 19.61563 2.80125 -0.01586
C 20.88245 2.07183 -0.01971
C 20.84804 0.60228 -0.02118
C 20.8592 10.6452 0.01153
C 17.20321 33.98808 -0.00478
C 18.38678 0.66715 0.01511
C 18.40572 2.06557 0.00199
C 18.31881 26.30143 -0.00831
C 17.33441 25.3617 -0.02957
C 17.23217 23.8536 -0.04422
C 17.32364 21.4621 0.00654
C 17.31364 19.91735 -0.00703
C 18.45284 19.09928 -0.04076
C 18.63652 17.73313 -0.00652
C 17.31492 17.02251 0.0058
C 17.27881 15.63703 -0.00865
C 18.44322 14.9181 0.00675
C 18.42655 13.49816 -0.00311
C 17.15451 12.79697 0.00742
C 17.11186 11.37511 -0.01594
C 18.39134 10.60206 0.0106
C 18.43376 9.10591 -0.01154
C 17.1719 8.45953 -0.01721
C 17.20066 7.02688 -0.02422
C 18.42361 6.3554 0.01277
C 18.41496 4.89275 0.00096
C 17.17026 4.15402 -0.01527
C 17.12143 2.82054 0.01087
C 19.58318 34.0629 0.00733
C 22.10531 32.53607 -0.00178
C 23.36833 31.787 0.00768
C 23.29429 30.36076 -0.0276
C 24.57935 11.35344 -0.01654
C 25.78482 10.62359 -0.00037
C 25.76939 9.16458 -0.0032
C 24.53954 8.47223 0.00622
C 24.46719 7.1155 -0.02815
C 25.70006 6.37367 -0.00942
C 25.79926 4.96038 0.00487
C 24.55303 4.21532 0.00826
C 24.57361 2.83517 -0.00294
C 25.77122 2.16666 0.00152
C 25.75374 0.67268 0.01257
C 24.57177 33.95121 0.02316
C 27.05512 32.63413 0.04185
C 28.26805 31.90034 0.00194
C 28.28741 30.5134 -0.00621
C 27.10885 29.66543 0.02611
C 26.97788 15.67267 0.02198
C 28.20078 14.99535 0.01094
C 28.22669 13.512 0.00235
C 26.99916 12.92883 0.01495
C 27.04682 11.39327 0.01259
C 24.5557 12.8204 -0.00218
C 3.66294 32.01793 0.00208
C 25.79516 13.5852 -0.00802
C 24.63852 15.64669 0.00996
C 22.01313 29.68638 0.03005
C 22.08858 15.47426 -0.04078
C 23.38281 15.07186 0.02117
C 23.33408 13.53564 0.02737
C 22.08099 12.7881 -0.00498
C 22.14703 11.38473 0.00135
C 23.31242 10.64538 0.03102
C 23.3596 9.25441 0.02555
C 22.09458 8.47709 0.01423
C 22.08407 7.05096 -0.00285
C 23.30079 6.31613 -0.009
C 23.29712 4.92809 -0.01199
C 22.07097 4.23822 -0.00229
C 22.06178 2.83207 -0.00938
C 23.36185 2.09766 -0.0264
C 23.31637 0.6225 -0.01154
C 22.12688 33.93673 0.00684
C 24.62321 32.48073 -0.01052
C 25.85135 31.90996 -0.01679
C 25.89509 30.34838 0.00367
C 24.57629 29.74929 0.04306
C 25.75623 14.99538 0.00195
C 2.47001 32.72649 -0.00561
