326
Graphene
C 34.42572 0.01894 0.01295
C 16.16127 21.95933 0.00213
C 15.95037 6.55778 -0.00066
C 15.98915 5.06846 -0.00289
C 14.79169 4.25164 0.00028
C 14.81753 2.88904 -0.02213
C 16.00667 2.10336 0.03698
C 15.91171 0.66301 -0.00109
C 15.9505 23.32165 -0.05302
C 14.70424 33.99638 -0.00491
C 18.4401 31.91347 -0.0258
C 18.50353 30.55342 -0.0331
C 17.25907 29.77958 -0.00316
C 17.28291 28.38129 0.02188
C 18.52279 27.72215 -0.01979
C 18.42044 26.29172 0.02691
C 17.20292 25.52419 -0.01581
C 17.25923 32.61168 0.03338
C 17.18592 24.0721 0.01452
C 14.74511 24.05692 -0.04147
C 15.94692 26.24401 0.03505
C 13.4296 26.27094 -0.00368
C 12.36346 25.47518 -0.02696
C 13.48534 23.56634 -0.00114
C 13.40037 6.45301 0.00228
C 13.58265 5.09638 0.00798
C 12.34017 4.30376 0.00422
C 12.31768 2.87914 0.0351
C 14.75567 25.55934 -0.02815
C 13.54992 2.16065 -0.03113
C 12.30613 34.07555 0.01848
C 14.74564 32.61057 -0.00619
C 16.00285 32.02162 -0.02162
C 15.94809 30.56895 0.00889
C 14.7445 29.87904 -0.00481
C 14.77702 28.34945 0.00979
C 16.00778 27.64893 0.01443
C 13.54807 0.71266 0.02098
C 18.52069 23.37902 0.04892
C 18.42717 21.87569 -0.00111
C 17.16068 21.42007 -0.03557
C 19.67893 19.86491 0.0106
C 20.8139 19.09005 -0.01154
C 20.9577 17.75816 -0.01721
C 21.13533 14.829 -0.02422
C 20.89656 13.577 0.01277
C 19.66506 11.37605 0.00096
C 20.8119 10.76305 -0.01527
C 19.66871 21.27733 -0.01594
C 20.84817 9.14282 0.01087
C 19.67713 7.01267 0.01511
C 21.00858 6.40964 -0.00478
C 20.8751 4.9119 -0.01662
C 19.69066 4.26025 -0.01185
C 19.61852 2.8605 0.01126
C 20.96036 2.1417 0.01852
C 20.93346 0.7276 -0.00381
C 19.6186 8.46866 0.00199
C 20.93277 21.99459 0.00742
C 20.95337 23.4028 -0.00311
C 19.71756 24.07567 0.00675
C 18.40652 9.21097 0.03754
C 17.11338 6.99906 0.01739
C 18.4608 6.32228 0.00755
C 18.42177 4.927 -0.0054
C 17.19488 4.30419 0.00667
C 17.15199 2.87349 0.00143
C 18.41034 2.1971 -0.017
C 18.35309 0.74565 0.00364
C 17.16363 0.02175 -0.00831
C 19.65264 32.65794 -0.02957
C 20.95724 31.93383 -0.04422
C 20.93557 30.5008 0.00654
C 19.72028 29.87129 -0.00703
C 19.73193 28.43832 -0.04076
C 20.94898 27.71723 -0.00652
C 20.88431 26.30646 0.0058
C 19.68759 25.52919 -0.00865
C 13.50049 27.66991 -0.0108
C 12.27345 28.37724 -0.01957
C 12.32742 29.85532 0.02058
C 13.48528 30.54367 0.01965
C 2.41271 8.53056 0.01291
C 2.37499 7.10647 0.00093
C 3.66029 6.41754 0.00057
C 3.65685 4.97904 -0.01634
C 2.45955 4.25274 -0.00334
C 2.50273 2.82795 0.02339
C 3.64604 2.06427 0.01641
C 3.70521 9.23048 0.00438
C 3.62162 0.66607 -0.00719
C 4.91001 32.58764 -0.01062
C 6.12982 31.90566 -0.00033
C 6.19417 30.50499 0.03589
C 4.9548 29.87733 -0.02759
C 4.8812 28.47289 0.0402
C 6.1655 27.65999 0.00572
C 6.08006 26.33728 0.03592
C 2.43477 0.00877 0.01364
C 3.69014 10.70741 -0.00191
C 2.47185 11.30083 0.00373
C 2.47114 12.78489 0.02147
C 3.66341 30.56123 -0.01362
C 2.42997 29.7941 -0.0008
C 2.43417 28.42458 0.0288
C 3.68406 27.75842 0.00393
C 3.70152 26.26692 0.00895
C 2.4912 25.59097 0.00685
C 2.48619 24.21925 0.02888
C 3.71531 23.47921 -0.00482
C 3.64797 22.11814 -0.01384
C 2.41876 21.31847 0.03693
C 2.41427 19.87892 0.01745
C 3.70099 19.11758 0.00488
C 3.56847 17.83309 -0.01004
C 2.51623 16.98895 -0.02896
C 2.58801 15.61982 -0.00131
C 3.62592 14.73958 -0.01118
C 3.77005 13.56748 -0.014
C 4.99111 25.53084 0.00406
C 19.6014 0.02695 0.03046
C 4.81609 24.25586 0.00943
C 4.87041 20.0579 -0.01111
C 8.62578 0.69001 0.02162
C 7.36399 0.0376 0.0076
C 9.89479 32.65226 0.01241
C 11.03662 31.89445 -0.01454
C 11.11255 30.45622 0.01945
C 9.73618 29.80428 0.01416
C 9.79407 28.41343 0.03542
C 8.57309 2.14993 -0.0014
C 11.05052 27.72273 0.02299
C 9.89314 4.30259 -0.01717
C 9.84281 2.75637 0.05265
C 11.14227 2.14394 -0.01952
C 11.13062 0.73881 -0.02813
C 9.86631 0.03907 0.00374
C 12.28988 32.62789 0.00052
C 13.45736 31.89469 -0.03682
C 11.07025 4.91947 0.00244
C 7.40538 2.8302 0.00415
C 7.4078 4.2512 -0.02162
C 8.64359 5.01087 0.01363
C 4.94716 8.56469 -0.01275
C 4.89436 7.15557 0.00985
C 6.21962 6.4352 -0.02245
C 6.24626 4.95875 -0.00428
C 4.93573 4.30148 0.03101
C 4.88893 2.74707 -0.01536
C 6.124 2.11218 -0.02689
C 6.08786 0.68812 -0.01046
C 4.84492 34.04355 -0.00891
C 7.34703 32.66787 0.02819
C 8.60892 31.99657 0.00165
C 8.55694 30.56931 -0.02971
C 7.41366 29.802 0.02894
C 7.36217 28.38038 -0.01789
C 8.562 27.7659 0.00444
C 7.52297 7.0549 -0.00925
C 8.45445 6.40396 0.01877
C 4.86516 21.17701 0.02841
C 22.17423 32.68787 0.0296
C 23.3861 31.99299 0.03374
C 23.33786 30.56654 -0.02845
C 33.2471 26.29506 0.00682
C 32.00348 25.62176 -0.01779
C 31.95189 24.17793 0.03794
C 33.21825 23.52438 0.01927
C 33.15241 22.12672 0.01574
C 31.92216 21.37654 -0.02383
C 32.01596 19.93131 -0.01429
C 33.1568 27.67185 0.00026
C 33.20207 19.20236 -0.0136
C 31.98956 16.99812 -0.02474
C 31.99188 15.61281 0.00369
C 33.19292 14.94286 0.00455
C 33.15912 13.53606 -0.00644
C 31.97421 12.80219 -0.01839
C 31.90247 11.40111 0.00137
C 33.12213 10.69756 0.00199
C 33.237 17.71796 0.00594
C 31.9316 28.39461 0.0544
C 31.91135 29.87231 -0.02142
C 33.14473 30.56935 0.01428
C 29.66197 15.6841 -0.0405
C 30.7677 14.88063 -0.01303
C 30.75042 13.48135 -0.01461
C 29.41831 12.77702 -0.02155
C 29.49956 11.37507 -0.00944
C 30.6741 10.65032 -0.03735
C 30.63873 9.24109 -0.00971
C 29.42878 8.48115 0.01518
C 29.46925 7.05377 0.01908
C 30.6678 6.40393 0.07705
C 30.67282 4.92413 0.0103
C 29.5926 2.93254 0.02108
C 30.70952 2.12869 0.00716
C 30.74845 0.6688 0.00307
C 29.481 0.04056 0.00346
C 32.04966 32.66896 0.01713
C 33.21286 31.98263 -0.01694
C 33.18163 9.20661 0.04381
C 29.42639 17.04938 0.01705
C 31.89409 8.55734 0.02806
C 33.14395 6.47625 -0.00069
C 0.02717 17.01125 0.00648
C 0.05577 15.56006 0.02114
C 1.32825 14.90259 -0.02957
C 1.23543 13.50673 0.00343
C 34.41182 12.84534 -0.02656
C 34.42108 11.36982 -0.02442
C 1.19204 10.63496 -0.00027
C 1.22208 17.72287 0.01223
C 1.18471 9.29098 -0.00583
C 0.05128 7.11118 -0.02849
C 1.2399 6.30581 0.02931
C 1.26664 4.89839 0.00628
C 34.42811 4.297 -0.0345
C 0.01345 2.86884 -0.00931
C 1.24562 2.10974 -0.00939
C 1.16792 0.73723 -0.00468
C 0.0467 8.49673 -0.02302
C 1.14739 19.10218 -0.01678
C 34.40196 19.90262 0.01951
C 34.37434 21.31911 -0.02213
C 33.15057 5.04125 0.04926
C 31.9034 4.28975 -0.03838
C 32.00703 2.74634 0.00349
C 33.24374 2.14054 -0.00323
C 33.2386 0.7464 -0.00841
C 32.02957 34.05458 0.0001
C 0.01969 32.61094 -0.02927
C 1.24167 31.92646 -0.01404
C 1.22203 30.52653 0.01027
C 34.3964 29.81778 0.01831
C 34.42344 28.36063 -0.01037
C 1.23656 27.73651 -0.00439
C 1.22891 26.30835 -0.00598
C 0.02598 25.63173 -0.05239
C 0.02256 24.21356 0.03076
C 1.25641 23.5106 0.00723
C 1.17798 22.05928 0.02712
C 31.96791 7.12716 0.01504
C 3.66125 31.96714 -0.00892
C 30.82776 17.79711 0.0101
C 29.60005 19.83835 0.03531
C 22.06407 2.77636 0.00135
C 23.43637 0.70998 0.03102
C 22.18752 0.06023 0.02555
C 24.65143 32.72949 0.01423
C 25.7705 31.85953 -0.00285
C 25.77224 30.45257 -0.009
C 24.52242 29.81521 -0.01199
C 22.24983 7.103 -0.00498
C 24.55016 28.35517 -0.00229
C 25.7953 26.27155 -0.0264
C 24.52966 25.50921 -0.01154
C 24.55614 24.11557 0.00684
C 25.81407 23.41747 -0.01052
C 25.80846 22.04725 -0.01679
C 24.60337 21.36708 0.00367
C 24.56922 19.92431 0.04306
C 25.76723 27.65377 -0.00938
C 22.07061 8.47774 0.02737
C 23.3206 9.22191 0.02117
C 23.35225 10.70771 -0.04078
C 22.17412 29.82225 -0.03213
C 22.16277 28.37047 0.02239
C 23.29446 27.71482 0.01153
C 23.38445 26.32244 0.02734
C 22.11576 25.63359 -0.0055
C 22.08472 24.18448 0.01515
C 23.29678 23.47569 -0.00225
C 23.36535 22.05146 0.00071
C 22.16801 21.30933 -0.01107
C 22.14685 19.8991 -0.01586
C 23.35418 19.10276 -0.01971
C 23.3157 17.78965 -0.02118
C 22.14475 17.03589 0.00733
C 21.96479 15.72393 -0.00178
C 23.38012 13.35468 0.00768
C 22.12144 12.74653 -0.0276
C 22.05806 11.34772 0.03005
C 25.8373 19.13813 0.00996
C 30.81819 19.19679 -0.00669
C 25.70149 17.7 0.00195
C 25.77036 10.76742 -0.00218
C 28.23481 9.18235 0.01799
C 27.04446 8.47861 0.01699
C 28.15619 0.68032 -0.00416
C 27.1577 34.02641 0.01177
C 29.5263 32.65397 0.04266
C 30.80494 31.94878 0.01324
C 30.697 30.51801 0.0014
C 28.28321 10.59104 0.01259
C 29.50119 29.7723 0.00924
C 30.71262 27.66126 0.00261
C 30.75052 26.26851 0.03265
C 29.55571 25.5813 -0.02049
C 29.4628 24.13371 -0.01854
C 30.66906 23.42894 -0.01415
C 30.64075 21.99113 -0.03039
C 29.52241 21.22112 0.01836
C 29.42778 28.39463 0.02326
C 27.14651 11.30513 0.01495
C 28.34111 13.48112 0.00235
C 28.11134 17.80404 0.01094
C 25.75754 9.03435 -0.01654
C 24.50553 8.5478 -0.00037
C 24.54654 0.04848 -0.0032
C 27.09894 32.56656 0.00622
C 28.35941 31.89197 -0.02815
C 28.3027 30.46943 -0.00942
C 27.0501 29.80471 0.00487
C 27.06565 28.34505 0.00826
C 28.25021 27.62845 -0.00294
C 28.28023 26.27291 0.00152
C 27.09173 25.4725 0.01257
C 27.13209 24.07285 0.02316
C 28.27866 23.36267 0.04185
C 28.30452 21.95668 0.00194
C 27.08559 21.28377 -0.00621
C 27.06542 19.87558 0.02611
C 28.33494 19.14997 0.02198
C 24.48603 11.36306 -0.00802
C 2.48134 32.70623 -0.04848
