275
Graphene
C 0.0141 0.03493 0.01295
C 16.05086 0.66983 -0.01527
C 14.69815 24.2181 0.00096
C 14.74452 25.57296 0.01277
C 16.01793 26.24139 -0.02422
C 16.02769 27.73464 -0.01721
C 14.76623 28.42412 -0.01154
C 14.7072 29.78412 0.0106
C 15.94731 30.4832 -0.01594
C 15.96134 31.83129 0.00742
C 14.75315 32.61862 -0.00311
C 12.364 0.05504 0.00675
C 13.56981 0.64958 -0.00865
C 13.57074 21.98626 0.0058
C 13.60506 23.38744 -0.00652
C 14.74144 0.08675 0.01087
C 12.32392 24.10428 -0.04076
C 13.52389 26.21348 0.00654
C 13.47415 27.65957 -0.04422
C 12.35001 28.34302 -0.02957
C 12.25787 29.81288 -0.00831
C 13.50561 30.56805 0.00364
C 13.53239 31.92011 -0.017
C 12.28118 32.69339 0.00143
C 9.768 0.06558 0.00667
C 11.09322 0.73237 -0.0054
C 11.08168 22.03313 0.00755
C 11.09943 23.41635 0.01739
C 9.86486 24.15518 0.03754
C 9.83048 25.55903 -0.03557
C 11.08754 26.26031 -0.00111
C 12.32426 25.55274 -0.00703
C 17.21199 32.72693 0.00199
C 18.42712 31.93987 0.01511
C 18.40666 30.60444 -0.00478
C 25.83132 19.10642 0.00135
C 24.66691 19.95324 -0.00498
C 24.65031 21.29834 0.02737
C 22.19004 34.04877 0.02117
C 23.34777 0.63695 -0.04078
C 23.3542 2.17128 0.03005
C 22.15533 2.80884 -0.0276
C 22.04273 4.24937 0.00768
C 23.38723 4.93974 -0.00178
C 23.41485 6.38782 0.00733
C 22.1296 7.16717 -0.02118
C 22.16843 8.49004 -0.01971
C 23.32495 9.31515 -0.01586
C 23.32682 10.67864 -0.01107
C 22.10588 11.37373 0.00071
C 22.17313 12.70949 -0.00225
C 23.34838 13.54541 0.01515
C 17.24613 29.77062 -0.01662
C 17.15191 28.40777 -0.01185
C 17.20389 25.51652 0.01126
C 17.22065 24.1364 0.01852
C 18.5572 2.19516 -0.00381
C 18.44432 0.67154 0.03046
C 11.09084 27.68431 0.04892
C 17.22435 34.07795 0.0296
C 20.94129 4.90899 -0.02845
C 19.58817 2.81107 -0.03213
C 20.88493 2.1409 0.02239
C 20.92567 0.67586 0.01153
C 19.684 34.01363 0.02734
C 22.09213 32.70018 -0.0055
C 19.62493 32.64742 0.03374
C 25.77215 17.7457 0.03102
C 9.7815 28.4464 0.01452
C 11.06646 30.57393 0.02691
C 6.13039 30.53438 -0.01957
C 6.18359 31.90396 0.02058
C 4.95142 32.65412 0.01965
C 2.4904 0.02236 -0.03682
C 3.70116 0.74311 0.00052
C 3.73682 2.14711 0.00374
C 2.46246 2.83282 -0.02813
C 2.4611 4.20369 -0.01952
C 3.64985 4.92954 0.05265
C 3.68699 6.37595 -0.01717
C 2.50064 7.11106 0.00244
C 2.46611 8.52518 0.02299
C 3.64023 9.24411 0.03542
C 2.38682 11.45573 0.01416
C 4.90923 29.81339 -0.0108
C 2.38413 12.7401 0.01945
C 2.47814 17.04069 0.01241
C 3.7227 17.71548 0.0076
C 3.69173 19.13896 0.02162
C 2.44824 19.83078 -0.0014
C 2.40154 21.28338 0.00415
C 3.69394 21.96501 -0.02162
C 3.65723 23.39713 0.01363
C 2.49165 24.12447 0.01877
C 2.50587 25.57239 -0.00925
C 3.65011 26.33531 0.00444
C 3.70374 27.67014 -0.01789
C 2.4315 28.41053 0.02894
C 2.44519 29.84021 -0.02971
C 3.70069 30.58553 0.00165
C 2.46954 15.52742 -0.01454
C 4.90198 28.41888 -0.00368
C 6.1129 27.69915 -0.02696
C 6.12089 26.26572 -0.00114
C 11.07629 31.97655 -0.01979
C 9.82655 32.7203 0.02188
C 7.37638 34.04262 -0.00316
C 8.60216 0.75025 -0.0331
C 8.5857 2.17423 -0.0258
C 7.40213 2.81707 0.03338
C 7.34788 21.3775 -0.00491
C 8.59011 21.9874 -0.00109
C 8.6098 23.39259 0.03698
C 7.35912 24.1327 -0.02213
C 7.36007 25.58992 0.00028
C 8.64791 26.2194 -0.00289
C 8.65175 27.70681 -0.00066
C 7.35317 28.38273 0.00213
C 7.45367 29.80693 -0.05302
C 8.63559 30.52555 -0.04147
C 8.54989 31.93233 -0.02815
C 4.88244 25.66305 0.00228
C 4.90849 24.1557 0.00798
C 6.17055 23.42102 0.00422
C 6.12218 22.01482 0.0351
C 4.96841 21.25696 -0.03113
C 4.87682 19.84106 0.02098
C 9.89697 29.81674 -0.01581
C 4.82202 7.0167 0.01848
C 4.92189 4.36242 -0.02162
C 4.86656 2.8965 0.00889
C 6.1113 2.16589 -0.00481
C 6.16959 0.75389 0.00979
C 4.92063 34.01005 0.01443
C 7.40488 32.6583 0.03505
C 6.17658 5.02777 -0.00619
C 3.7078 31.98827 0.02819
C 24.56975 16.97177 0.02555
C 25.77987 14.85019 -0.00285
C 31.96747 4.25172 -0.03838
C 33.24085 4.97383 0.04926
C 33.19984 6.36387 -0.00069
C 31.96843 7.14161 0.01504
C 31.97961 8.58342 0.02806
C 33.15666 9.2385 0.04381
C 33.24003 10.63544 0.00199
C 32.02343 11.34038 0.00137
C 31.98985 12.81571 -0.01839
C 33.18218 13.36997 -0.00644
C 33.18869 14.85922 0.00455
C 31.94766 15.61174 0.00369
C 31.93108 16.9747 -0.02474
C 33.19407 17.74566 0.00594
C 31.96429 2.86749 0.00349
C 33.17821 19.20066 -0.0136
C 32.01779 21.25098 -0.02383
C 33.1953 22.03148 0.01574
C 33.20464 23.45175 0.01927
C 32.00794 24.16252 0.03794
C 31.95153 25.54664 -0.01779
C 33.1947 26.2851 0.00682
C 33.24204 27.73249 0.00026
C 31.98162 28.40849 0.0544
C 31.94563 29.85236 -0.02142
C 33.24256 30.52436 0.01428
C 33.20221 31.99199 -0.01694
C 31.95732 32.68428 0.01713
C 29.53827 0.03237 0.00346
C 30.71013 0.77481 0.00307
C 31.9442 19.91417 -0.01429
C 33.21345 2.13987 -0.00323
C 33.14229 0.7 -0.00841
C 31.96942 0.03627 0.0001
C 1.2631 0.69618 -0.00468
C 1.25931 2.1127 -0.00939
C 34.41321 2.86324 -0.00931
C 34.40472 4.28932 -0.0345
C 1.23614 4.95905 0.00628
C 1.1623 6.37472 0.02931
C 34.37764 7.13451 -0.02849
C 34.42337 8.50368 -0.02302
C 1.24216 9.21466 -0.00583
C 1.17664 10.71913 -0.00027
C 34.38826 11.38935 -0.02442
C 0.05287 12.81678 -0.02656
C 1.25091 13.45829 0.00343
C 1.22332 14.92702 -0.02957
C 34.37364 15.60076 0.02114
C 0.00139 17.02516 0.00648
C 1.1953 17.78418 0.01223
C 34.35227 32.66816 -0.02927
C 1.18591 31.96237 -0.01404
C 1.20206 30.47986 0.01027
C 0.00563 29.86458 0.01831
C 34.38932 28.41213 -0.01037
C 1.2363 27.72116 -0.00439
C 30.74857 2.10162 0.00716
C 1.2279 26.26904 -0.00598
C 34.42122 24.18609 0.03076
C 1.26227 23.45275 0.00723
C 1.22839 22.0723 0.02712
C 34.4118 21.2902 -0.02213
C 34.42011 19.89226 0.01951
C 1.2192 19.17607 -0.01678
C 34.37019 25.63639 -0.05239
C 24.65515 15.65246 0.01423
C 29.52818 2.79804 0.02108
C 30.79933 4.9499 0.07705
C 28.27637 9.2611 -0.00621
C 28.29135 10.68187 0.00194
C 27.07475 11.35735 0.04185
C 27.02946 12.76458 0.02316
C 28.27154 13.47633 0.01257
C 28.26039 14.93303 0.00152
C 27.08898 15.65761 -0.00294
C 27.04385 16.96846 0.00826
C 28.31106 17.70395 0.00487
C 28.30003 19.16971 -0.00942
C 27.05847 19.91114 -0.02815
C 27.05674 21.22245 0.00622
C 28.22061 22.03902 -0.0032
C 28.35451 23.35513 -0.00037
C 27.02053 8.4828 0.02611
C 28.19877 32.01548 -0.01654
C 24.56152 34.0751 -0.00802
C 25.76928 0.73657 0.00195
C 25.80955 2.14835 0.00996
C 24.61431 2.79561 0.04306
C 24.62699 4.25608 0.00367
C 25.83622 4.99739 -0.01679
C 25.88116 6.35659 -0.01052
C 24.59342 7.03221 0.00684
C 24.61655 8.53058 -0.01154
C 25.86893 9.2219 -0.0264
C 25.80226 10.65111 -0.00938
C 24.58987 11.35018 -0.00229
C 24.58608 12.79172 -0.01199
C 25.81501 13.48185 -0.009
C 27.13643 32.72868 -0.00218
C 27.04362 7.09688 0.02198
C 28.33388 6.44014 0.01094
C 28.24965 5.00188 0.00235
C 30.75728 6.40537 0.01908
C 29.52345 7.09949 0.01518
C 29.55523 8.57115 -0.00971
C 30.77785 9.22826 -0.03735
C 30.72425 10.6101 -0.00944
C 29.52121 11.39453 -0.02155
C 29.51921 12.80707 -0.01461
C 30.77666 13.55112 -0.01303
C 30.71732 14.84422 -0.0405
C 29.47954 15.58576 0.01705
C 29.4995 17.02509 0.0101
C 30.80369 17.73784 -0.00669
C 30.68104 19.12204 0.03531
C 29.46402 19.88081 0.01836
C 29.52276 21.26201 -0.03039
C 30.72258 22.01934 -0.01415
C 30.74991 23.38039 -0.01854
C 27.05721 4.32096 0.01495
C 27.06751 2.89169 0.01259
C 28.28726 2.12687 0.01799
C 28.28666 0.68397 0.01699
C 26.99567 34.05561 -0.00416
C 29.43353 32.65766 0.01177
C 29.51064 4.27876 0.0103
C 30.78982 31.90088 0.04266
C 29.53264 29.7513 0.0014
C 29.48433 28.48436 0.00924
C 30.75486 27.70627 0.02326
C 30.70196 26.31143 0.00261
C 29.49284 25.55432 0.03265
C 29.46079 24.10994 -0.02049
C 30.73405 30.56196 0.01324
C 2.49524 32.66655 -0.00891
