327
Graphene
C 0.01767 0.03162 0.01295
C 18.48415 27.66145 0.00213
C 18.40372 26.31399 -0.00066
C 17.21629 25.5873 -0.00289
C 17.2739 24.12093 0.00028
C 18.50125 23.45953 -0.02213
C 18.4585 22.02786 0.03698
C 17.17122 21.23621 -0.00109
C 17.17944 28.41376 -0.05302
C 17.18224 19.74093 -0.00491
C 18.43992 0.67851 -0.0258
C 17.27644 0.02573 -0.0331
C 19.67786 32.64203 -0.00316
C 20.93836 31.94059 0.02188
C 20.96544 30.50815 -0.01979
C 19.66578 29.90787 0.02691
C 19.69293 28.3834 -0.01581
C 18.44088 19.10206 0.03338
C 17.18004 29.80916 -0.04147
C 18.4857 30.47152 -0.02815
C 18.39241 31.91801 0.03505
C 12.24594 0.05407 -0.0108
C 14.77153 32.63394 -0.00368
C 15.97195 31.96455 -0.02696
C 15.92837 30.57506 -0.00114
C 14.78033 29.86001 0.00228
C 14.77309 28.41409 0.00798
C 15.97806 27.72387 0.00422
C 16.0019 26.26295 0.0351
C 14.73508 25.54846 -0.03113
C 14.76153 24.11827 0.02098
C 16.02263 23.43825 0.01848
C 16.00611 22.07456 -0.00619
C 14.73527 21.33487 -0.02162
C 14.73277 19.93721 0.00889
C 15.97028 19.13384 -0.00481
C 14.75192 34.05205 0.00979
C 17.24639 32.7001 0.01443
C 20.973 27.68117 0.01452
C 13.49583 19.13226 -0.01957
C 20.90603 26.28254 0.04892
C 19.69553 24.09389 -0.03557
C 22.09214 25.52899 0.0106
C 22.14722 24.13936 -0.01154
C 23.41724 23.43255 -0.01721
C 23.34319 22.02774 -0.02422
C 22.15377 21.29566 0.01277
C 22.07354 19.9292 0.00096
C 23.33339 19.19167 -0.01527
C 23.35903 26.18709 -0.01594
C 23.37514 17.70094 0.01087
C 22.12591 15.64678 0.01511
C 23.37464 14.89059 -0.00478
C 23.31629 13.4965 -0.01662
C 22.11122 12.79771 -0.01185
C 22.16904 11.32217 0.01126
C 23.41342 10.67635 0.01852
C 23.36297 9.18798 -0.00381
C 22.1606 17.03084 0.00199
C 23.37975 27.67255 0.00742
C 22.16464 28.36225 -0.00311
C 22.11096 29.81922 0.00675
C 20.90825 23.41431 0.03754
C 20.93245 21.95909 0.01739
C 19.68041 21.26973 0.00755
C 19.66009 19.89825 -0.0054
C 20.86287 19.16927 0.00667
C 20.8768 17.74104 0.00143
C 19.62816 17.07905 -0.017
C 20.90388 14.98434 0.00364
C 20.91605 10.66608 -0.00831
C 20.94525 4.95257 -0.02957
C 19.69065 2.84696 -0.04422
C 20.90368 2.17961 0.00654
C 20.90047 0.71616 -0.00703
C 19.72158 0.01261 -0.04076
C 22.16367 32.67441 -0.00652
C 23.37839 31.90819 0.0058
C 23.34065 30.49649 -0.00865
C 19.68405 25.56057 -0.00111
C 22.17165 8.50944 0.03046
C 12.28585 19.84118 0.02058
C 13.52067 22.03028 -0.03682
C 4.9101 29.83457 0.00438
C 4.90214 28.39833 0.01291
C 6.11622 27.69651 0.00093
C 6.15895 26.28533 0.00057
C 4.9588 25.56324 -0.01634
C 4.91605 24.14022 -0.00334
C 6.15339 23.40327 0.02339
C 6.12287 30.5341 -0.00191
C 6.1681 22.00798 0.01641
C 4.8676 19.86194 0.01364
C 6.21192 19.22164 -0.01062
C 4.98074 2.84042 -0.00033
C 6.08624 2.18361 0.03589
C 6.173 0.67168 -0.02759
C 4.90204 0.0112 0.0402
C 7.35043 32.66959 0.00572
C 4.95043 21.35436 -0.00719
C 6.15363 31.91173 0.00373
C 4.89209 32.6747 0.02147
C 2.42696 0.01704 -0.014
C 3.67141 30.51897 -0.00892
C 2.44046 29.83287 -0.01362
C 2.4432 28.46825 -0.0008
C 3.70962 27.65865 0.0288
C 3.70923 26.31289 0.00393
C 2.47849 25.59149 0.00895
C 2.46522 24.16764 0.00685
C 3.64339 23.47157 0.02888
C 3.7022 22.03129 -0.00482
C 2.43708 21.26075 -0.01384
C 2.44884 19.86571 0.03693
C 3.63655 19.17742 0.01745
C 2.47245 17.01435 0.00488
C 2.46844 4.28093 -0.01004
C 2.43762 2.86601 -0.02896
C 3.75573 2.13838 -0.00131
C 3.71355 0.68705 -0.01118
C 8.53698 31.95241 0.03592
C 12.28201 21.38368 0.01965
C 8.59734 30.54984 0.00406
C 7.39378 28.39771 0.02841
C 11.06467 22.03433 -0.0014
C 9.88403 21.28999 0.02162
C 9.84488 19.81429 0.0076
C 11.06679 19.17795 0.01241
C 11.03149 0.61812 -0.01454
C 9.82298 0.07402 0.01945
C 12.261 32.72843 0.01416
C 11.02997 23.44225 0.00415
C 13.54245 31.98381 0.03542
C 12.31011 29.74915 0.00244
C 12.34004 28.40674 -0.01717
C 13.56427 27.70866 0.05265
C 13.50879 26.27699 -0.01952
C 12.27368 25.54567 -0.02813
C 12.26183 24.08506 0.00374
C 13.49852 23.40736 0.00052
C 13.58957 30.53949 0.02299
C 9.83787 24.09757 -0.02162
C 9.85522 25.5824 0.01363
C 11.07543 26.31954 0.01877
C 8.56668 27.69271 -0.01111
C 8.6603 26.29132 -0.01275
C 7.43618 25.56564 0.00985
C 7.39704 24.18991 -0.02245
C 8.56004 23.35246 -0.00428
C 8.59148 21.99426 0.03101
C 7.33865 21.2934 -0.01536
C 7.29792 19.81654 -0.02689
C 8.63426 2.14402 -0.01046
C 8.62037 0.74289 -0.00891
C 7.37675 0.01301 0.02819
C 9.86126 32.62632 0.00165
C 11.05274 31.99274 -0.02971
C 11.06047 30.54605 0.02894
C 9.85347 29.85675 -0.01789
C 9.81783 28.38915 0.00444
C 11.06761 27.69788 -0.00925
C 7.39753 29.84232 0.00943
C 3.65621 31.94565 -0.04848
C 22.12355 7.15406 0.0296
C 23.40815 4.94778 -0.02845
C 33.19933 30.57527 0.00682
C 31.96432 29.8373 -0.01779
C 32.00836 28.44715 0.03794
C 33.18536 27.74754 0.01927
C 33.19483 26.29348 0.01574
C 32.00749 25.57893 -0.02383
C 31.92129 24.1422 -0.01429
C 33.21796 31.99826 0.00026
C 33.21399 23.42387 -0.0136
C 31.99087 21.28993 -0.02474
C 31.97707 19.89033 0.00369
C 33.19233 19.18413 0.00455
C 33.23296 17.74299 -0.00644
C 31.91216 17.03785 -0.01839
C 31.92824 15.63506 0.00137
C 33.1864 14.88526 0.00199
C 33.20748 22.00008 0.00594
C 31.95374 32.69594 0.0544
C 29.49795 0.00147 -0.02142
C 30.7889 0.75483 0.01428
C 30.7881 19.13711 -0.0405
C 30.73683 17.76934 -0.01303
C 29.46968 17.04069 -0.01461
C 29.5354 15.62167 -0.02155
C 30.73136 14.92508 -0.00944
C 30.66911 13.51267 -0.03735
C 29.46381 12.78074 -0.00971
C 29.4968 11.30925 0.01518
C 30.75762 10.70536 0.01908
C 30.70501 9.23656 0.07705
C 29.50315 8.54627 0.0103
C 29.5216 7.08179 0.02108
C 30.74065 6.37567 0.00716
C 30.74406 4.97561 0.00307
C 29.54487 4.24379 0.00346
C 29.51632 2.87115 0.01713
C 30.73512 2.11817 -0.01694
C 33.17498 13.50376 0.04381
C 29.50696 19.86555 0.01705
C 31.9268 12.81925 0.02806
C 33.2443 10.65696 -0.00069
C 0.00888 21.24139 0.00648
C 0.03767 19.84414 0.02114
C 1.21765 19.18917 -0.02957
C 1.23671 17.77875 0.00343
C 0.0214 17.00546 -0.02656
C 34.38817 15.62416 -0.02442
C 34.40751 12.76077 -0.00027
C 1.2053 22.02433 0.01223
C 0.03841 11.43062 -0.00583
C 0.01361 7.04365 -0.02849
C 1.2315 6.32966 0.02931
C 1.23998 4.97234 0.00628
C 34.42523 4.25594 -0.0345
C 0.01493 2.79249 -0.00931
C 1.21254 2.15179 -0.00939
C 1.28652 0.67831 -0.00468
C 34.37426 8.48107 -0.02302
C 1.21338 23.4661 -0.01678
C 34.40446 24.12674 0.01951
C 34.39411 25.58494 -0.02213
C 33.19725 9.23622 0.04926
C 31.98198 8.48018 -0.03838
C 32.00604 7.10911 0.00349
C 33.19365 6.40353 -0.00323
C 33.25015 4.93577 -0.00841
C 31.97427 4.20132 0.0001
C 31.97935 2.84035 -0.02927
C 33.23717 2.11817 -0.01404
C 33.17909 0.69607 0.01027
C 31.97581 34.05915 0.01831
C 0.00414 32.69022 -0.01037
C 1.21661 31.94099 -0.00439
C 1.2528 30.58665 -0.00598
C 34.41766 29.84983 -0.05239
C 0.0213 28.45754 0.03076
C 1.19402 27.73293 0.00723
C 1.21526 26.29016 0.02712
C 31.95895 11.37527 0.01504
C 23.39148 6.41052 0.03374
C 29.52777 21.2854 0.0101
C 30.71115 23.37907 0.03531
C 24.59456 15.66007 0.00135
C 25.82879 14.91 0.03102
C 25.83506 13.51877 0.02555
C 24.55714 12.71828 0.01423
C 24.56942 11.32339 -0.00285
C 25.81946 10.64157 -0.009
C 25.88811 9.21291 -0.01199
C 24.57671 17.03821 -0.00498
C 24.54033 8.5453 -0.00229
C 25.80647 6.36692 -0.0264
C 25.82351 4.97994 -0.01154
C 24.58013 4.21511 0.00684
C 24.59451 2.85955 -0.01052
C 25.85312 2.15389 -0.01679
C 25.8237 0.7196 0.00367
C 24.60692 0.00635 0.04306
C 24.57514 7.09694 -0.00938
C 25.79128 17.77553 0.02737
C 25.81333 19.19983 0.02117
C 24.59547 19.83132 -0.04078
C 22.13419 4.25906 -0.03213
C 22.11316 2.91014 0.02239
C 23.38403 2.14781 0.01153
C 23.32699 0.7422 0.02734
C 22.10089 0.00596 -0.0055
C 24.56844 32.66686 0.01515
C 25.81142 31.99297 -0.00225
C 25.8202 30.56015 0.00071
C 24.60604 29.8107 -0.01107
C 24.58184 28.36764 -0.01586
C 25.81046 27.69407 -0.01971
C 25.79826 26.27782 -0.02118
C 24.57092 25.61822 0.00733
C 24.59521 24.07183 -0.00178
C 25.80471 23.40559 0.00768
C 25.77149 22.02119 -0.0276
C 24.58314 21.3306 0.03005
C 27.07692 32.6619 0.00996
C 30.69942 21.94253 -0.00669
C 28.26028 31.94966 0.00195
C 27.07458 29.85118 -0.00218
C 28.27751 6.34235 0.01799
C 28.25624 4.97362 0.01699
C 27.07955 4.22067 -0.00416
C 27.05137 2.83036 0.01177
C 28.32658 2.12797 0.04266
C 28.26384 0.69482 0.01324
C 27.06901 34.0282 0.0014
C 27.04586 7.0878 0.01259
C 29.49097 32.63521 0.00924
C 30.73162 30.51791 0.00261
C 29.54335 29.77499 0.03265
C 29.50055 28.38713 -0.02049
C 30.6898 27.70038 -0.01854
C 30.69414 26.27731 -0.01415
C 29.54567 25.51744 -0.03039
C 29.48769 24.13175 0.01836
C 30.79579 31.91708 0.02326
C 27.07086 8.50362 0.01495
C 28.21243 9.23712 0.00235
C 28.2469 10.59444 0.01094
C 27.06287 28.40259 -0.01654
C 28.28258 27.65914 -0.00037
C 28.33576 26.2393 -0.0032
C 27.07964 25.51752 0.00622
C 27.08202 24.11013 -0.02815
C 28.2753 23.42223 -0.00942
C 28.29082 21.94209 0.00487
C 27.00718 21.27704 0.00826
C 27.02465 19.91532 -0.00294
C 28.3218 19.11821 0.00152
C 28.34893 17.72429 0.01257
C 27.02053 16.99208 0.02316
C 27.05636 15.59616 0.04185
C 28.30755 14.91759 0.00194
C 28.28416 13.48429 -0.00621
C 27.09833 12.80137 0.02611
C 27.02717 11.35116 0.02198
C 28.29657 30.55428 -0.00802
C 2.4645 32.66041 0.01572
