349
Graphene
C 34.41746 0.08478 0.01295
C 9.83224 15.61222 0.00422
C 11.13136 14.92065 0.0351
C 11.02848 13.59197 -0.03113
C 9.95873 12.79242 0.02098
C 9.93902 11.34623 0.01848
C 11.08298 10.4807 -0.00619
C 10.9025 9.30593 -0.02162
C 9.84239 8.36664 0.00889
C 9.79858 6.9796 -0.00481
C 11.10789 6.39053 0.00979
C 11.13169 4.90556 0.01443
C 9.95903 4.23517 0.03505
C 9.89984 2.82902 -0.02815
C 11.07453 2.15608 -0.04147
C 11.06387 0.68998 -0.05302
C 9.87124 0.04251 0.00213
C 12.31257 32.64554 -0.00066
C 9.81889 17.02242 0.00798
C 11.04349 17.65476 0.00228
C 11.05477 19.11821 -0.00114
C 9.79716 19.86104 -0.02696
C 8.62714 4.88866 -0.01454
C 7.33395 4.3233 0.01945
C 7.30221 2.90678 0.01416
C 8.59929 2.20699 0.03542
C 8.60011 0.77307 0.02299
C 7.37199 0.08603 0.00244
C 9.82991 32.66439 -0.01717
C 11.06174 31.94815 0.05265
C 13.55226 31.87825 -0.00289
C 11.08054 30.57174 -0.01952
C 9.7891 28.48635 0.00374
C 11.02807 27.79864 0.00052
C 10.95064 26.32187 -0.03682
C 9.85712 25.52098 0.01965
C 9.85591 24.09788 0.02058
C 11.12978 23.40455 -0.01957
C 11.11694 21.99333 -0.0108
C 9.85572 21.30333 -0.00368
C 9.85582 29.91455 -0.02813
C 13.52746 30.46939 0.00028
C 12.29845 29.79441 -0.02213
C 12.25579 28.37887 0.03698
C 14.78089 29.78596 -0.00831
C 14.719 28.40331 -0.02957
C 15.90069 27.71037 -0.04422
C 15.9059 26.25901 0.00654
C 14.70842 25.58493 -0.00703
C 14.72571 24.11291 -0.04076
C 15.95524 23.40102 -0.00652
C 16.01457 21.97232 0.0058
C 16.04562 30.51378 0.00364
C 14.80164 21.32151 -0.00865
C 16.01277 19.13961 -0.00311
C 16.03849 17.75778 0.00742
C 14.85357 17.2812 -0.01594
C 14.69304 4.25543 0.0106
C 14.78317 2.79592 -0.01154
C 16.00007 2.09252 -0.01721
C 15.89467 0.7221 -0.02422
C 14.66754 0.0326 0.01277
C 14.77412 19.90009 0.00675
C 8.54919 6.27265 0.01241
C 15.98579 31.98038 -0.017
C 12.23435 34.07108 0.00667
C 13.51417 27.73481 -0.00109
C 13.45258 26.29546 -0.00491
C 12.2162 25.64651 0.03338
C 12.26132 24.22775 -0.0258
C 13.49636 23.45089 -0.0331
C 13.55414 21.99939 -0.00316
C 12.35596 21.26539 0.02188
C 12.2565 19.84275 -0.01979
C 14.73583 32.66723 0.00143
C 13.53658 19.10557 0.02691
C 12.38084 16.93197 0.01452
C 12.32238 15.60083 0.04892
C 12.22082 7.02983 -0.00111
C 13.6895 4.93109 -0.03557
C 12.35475 4.30046 0.03754
C 12.31663 2.91125 0.01739
C 13.521 2.16792 0.00755
C 13.41944 0.74565 -0.0054
C 13.59951 17.6971 -0.01581
C 7.37329 7.16446 0.0076
C 7.34476 8.54398 0.02162
C 8.60391 9.18728 -0.0014
C 2.4279 7.03022 -0.00892
C 3.69719 6.3714 -0.01362
C 3.68042 4.92665 -0.0008
C 2.44106 4.19242 0.0288
C 2.44756 2.77886 0.00393
C 3.67799 2.1838 0.00895
C 3.6845 0.74189 0.00685
C 2.45676 0.09423 0.02888
C 2.48017 8.48735 -0.04848
C 4.90546 32.6503 -0.00482
C 6.14902 30.50744 0.03693
C 4.86456 29.87398 0.01745
C 4.86564 28.42492 0.00488
C 6.17697 27.74385 -0.01004
C 6.12474 26.29556 -0.02896
C 4.85323 25.58853 -0.00131
C 4.86253 24.19554 -0.01118
C 6.1715 23.51452 -0.014
C 6.14355 31.98426 -0.01384
C 6.14437 22.0774 0.02147
C 3.72193 9.19647 0.01572
C 2.54484 11.33275 0.03007
C 3.65824 30.57558 0.03368
C 2.41403 29.8536 -0.02929
C 2.36839 28.39945 -0.00966
C 3.64296 27.69972 -0.03337
C 3.65327 26.28229 0.01227
C 2.42975 25.5475 0.00873
C 2.51727 24.14597 -0.00049
C 3.724 23.40261 0.00848
C 3.7493 10.67072 -0.00095
C 3.58164 21.97763 -0.01303
C 2.32482 19.87958 0.02635
C 3.59254 19.20079 0.0127
C 3.71555 17.80504 0.01396
C 2.47246 17.03269 0.01849
C 2.43556 15.59044 -0.01142
C 3.68653 14.89023 -0.00562
C 3.72618 13.49718 -0.00494
C 2.4232 12.73792 0.00054
C 2.35632 21.27119 -0.01378
C 17.21053 32.67787 0.00096
C 4.90501 21.32689 0.00373
C 6.0409 19.19614 0.00438
C 7.41074 28.39752 -0.02245
C 8.65969 27.69474 -0.00428
C 8.66861 26.21541 0.03101
C 7.39148 25.66948 -0.01536
C 7.40268 24.23514 -0.02689
C 8.56051 23.37059 -0.01046
C 8.54632 21.96868 -0.00891
C 7.31347 21.28082 0.02819
C 7.40061 29.83617 0.00985
C 7.30037 19.86293 0.00165
C 8.5944 17.80245 0.02894
C 7.36377 17.09821 -0.01789
C 7.39835 15.69801 0.00444
C 8.64207 14.90738 -0.00925
C 8.68698 13.49021 0.01877
C 7.43892 12.78464 0.01363
C 7.44474 11.38395 -0.02162
C 8.71132 10.60566 0.00415
C 8.57825 19.17791 -0.02971
C 4.86882 19.92736 -0.00191
C 8.61449 30.56499 -0.01275
C 7.37105 32.67467 0.02841
C 6.14829 17.77764 0.01291
C 4.89244 17.07421 0.00093
C 4.90519 15.60029 0.00057
C 6.14975 14.9368 -0.01634
C 6.17448 13.51994 -0.00334
C 4.96018 12.7784 0.02339
C 4.96382 11.38035 0.01641
C 6.11228 10.66332 -0.00719
C 8.60221 32.01444 -0.01111
C 6.15843 9.27234 0.01364
C 4.89295 7.1434 -0.00033
C 6.13459 6.46314 0.03589
C 6.13022 5.11722 -0.02759
C 4.89215 4.37426 0.0402
C 4.87609 2.97107 0.00572
C 6.06999 2.19828 0.03592
C 6.13501 0.764 0.00406
C 4.95214 0.01223 0.00943
C 4.91256 8.50289 -0.01062
C 3.61448 32.02675 -0.00077
C 18.408 31.91503 -0.01527
C 17.2634 29.78789 0.00199
C 30.72219 0.75785 0.01428
C 29.50123 0.02746 -0.02142
C 31.87603 32.63481 0.0544
C 33.14818 31.96706 0.00026
C 33.26627 30.55373 0.00682
C 31.91232 29.79374 -0.01779
C 31.99924 28.35414 0.03794
C 33.05125 27.8002 0.01927
C 33.3327 22.18072 0.01574
C 31.96387 21.42022 -0.02383
C 31.95471 19.86898 -0.01429
C 33.18335 19.12811 -0.0136
C 33.21442 17.6848 0.00594
C 31.92478 17.03459 -0.02474
C 31.87204 15.65121 0.00369
C 33.05311 14.87528 0.00455
C 33.1461 13.50011 -0.00644
C 30.67298 2.18558 -0.01694
C 29.51453 2.91256 0.01713
C 29.53201 4.28786 0.00346
C 30.80957 5.0001 0.00307
C 29.46239 32.64269 0.01836
C 30.66853 31.90142 0.03531
C 30.8449 30.60337 -0.00669
C 30.85524 22.05881 0.0101
C 29.44561 19.83009 0.01705
C 30.68543 19.22207 -0.0405
C 30.69372 17.80028 -0.01303
C 29.55361 16.97639 -0.01461
C 32.00714 12.6563 -0.01839
C 29.50755 15.55304 -0.02155
C 30.78584 13.34857 -0.03735
C 29.54576 12.80063 -0.00971
C 29.55688 11.38829 0.01518
C 30.75283 10.64357 0.01908
C 30.66912 9.24393 0.07705
C 29.50237 8.50548 0.0103
C 29.51994 7.0622 0.02108
C 30.76019 6.41614 0.00716
C 30.7136 14.84439 -0.00944
C 32.01103 11.34672 0.00137
C 33.2547 10.66677 0.00199
C 33.19062 9.2477 0.04381
C 1.13868 19.08067 -0.01678
C 1.24192 17.66157 0.01223
C 34.39938 16.98821 0.00648
C 34.35661 15.54325 0.02114
C 1.19857 14.88025 -0.02957
C 1.22105 13.46129 0.00343
C 34.41337 12.80443 -0.02656
C 0.0503 11.36363 -0.02442
C 34.40296 19.82307 0.01951
C 1.26563 10.63569 -0.00027
C 34.42552 8.53843 -0.02302
C 0.02995 7.10011 -0.02849
C 1.23765 6.34225 0.02931
C 1.27191 4.88005 0.00628
C 0.03378 4.24818 -0.0345
C 34.41896 2.81401 -0.00931
C 1.16679 2.12224 -0.00939
C 1.20255 0.76397 -0.00468
C 1.23347 9.24317 -0.00583
C 27.01161 0.02155 -0.03039
C 0.01966 21.35018 -0.02213
C 1.25414 23.51776 0.00723
C 31.92604 8.58241 0.02806
C 32.02137 7.13452 0.01504
C 33.26432 6.42945 -0.00069
C 33.28616 4.97311 0.04926
C 32.0418 4.2618 -0.03838
C 31.96909 2.83676 0.00349
C 33.16115 2.11351 -0.00323
C 33.16021 0.72657 -0.00841
C 1.25766 22.09927 0.02712
C 31.90096 0.00939 0.0001
C 1.16592 31.97671 -0.01404
C 1.24121 30.54554 0.01027
C 0.00222 29.78941 0.01831
C 34.34073 28.29344 -0.01037
C 1.15399 27.67368 -0.00439
C 1.14878 26.16184 -0.00598
C 34.31602 25.40657 -0.05239
C 34.42082 24.14848 0.03076
C 34.38339 32.73297 -0.02927
C 28.32793 0.71517 -0.01415
C 28.27788 2.15257 -0.01854
C 27.05414 2.87466 -0.02049
C 19.57054 19.88662 -0.02118
C 20.84798 19.19522 0.00733
C 20.83982 17.78241 -0.00178
C 19.59032 17.07318 0.00768
C 20.83788 4.82038 -0.0276
C 19.70576 4.39645 0.03005
C 19.64152 2.99994 -0.04078
C 20.81464 2.18543 0.02117
C 19.64354 21.18633 -0.01971
C 20.82265 0.75018 0.02737
C 22.14797 32.61533 0.00135
C 23.45325 32.10144 0.03102
C 22.16161 19.75375 0.02555
C 23.20777 19.11184 0.01423
C 23.34942 17.77236 -0.00285
C 22.07082 17.05883 -0.009
C 22.34281 15.681 -0.01199
C 23.27667 14.94167 -0.00229
C 19.58741 34.04117 -0.00498
C 23.20419 6.31335 -0.00938
C 19.55162 28.41744 -0.01586
C 20.94862 30.51601 0.00071
C 17.20647 28.43394 0.01511
C 18.46594 27.62942 -0.00478
C 18.36277 26.23067 -0.01662
C 17.19136 25.59387 -0.01185
C 17.20924 24.11809 0.01126
C 18.40894 23.44473 0.01852
C 18.53591 22.05219 -0.00381
C 17.22135 21.278 0.03046
C 19.8185 29.76449 -0.01107
C 17.16589 19.88625 0.0296
C 18.57029 17.66751 -0.02845
C 17.09002 4.23275 -0.03213
C 17.22883 2.83503 0.02239
C 18.4474 2.15099 0.01153
C 18.4471 0.72752 0.02734
C 17.184 0.02603 -0.0055
C 19.63522 32.61789 0.01515
C 20.91416 31.92858 -0.00225
C 18.35634 19.05204 0.03374
C 18.43735 30.53593 0.01087
C 23.41612 4.9734 -0.0264
C 22.11255 2.8979 0.00684
C 24.6337 33.97043 -0.00621
C 27.1989 32.72329 0.02611
C 28.1939 32.01752 0.02198
C 28.4529 19.09283 0.01094
C 28.23849 17.74755 0.00235
C 27.07204 17.05657 0.01495
C 27.11323 15.63599 0.01259
C 28.29499 14.91766 0.01799
C 25.79732 0.69241 0.00194
C 28.31778 13.47246 0.01699
C 27.1906 11.32368 0.01177
C 28.34739 10.59136 0.04266
C 28.30093 9.16352 0.01324
C 27.06956 8.48414 0.0014
C 27.06589 7.09017 0.00924
C 28.28101 6.39131 0.02326
C 28.29325 4.95948 0.00261
C 27.07079 4.25479 0.03265
C 27.13735 12.72407 -0.00416
C 22.10733 4.29431 -0.01154
C 25.79518 2.08925 0.04185
C 24.60499 4.2317 0.01257
C 23.34096 2.15638 -0.01052
C 23.31862 0.69467 -0.01679
C 22.12183 34.07961 0.00367
C 24.55403 32.5503 0.04306
C 25.74728 19.22802 0.00996
C 25.82416 17.90019 0.00195
C 24.53612 17.03878 -0.00802
C 24.54282 15.59293 -0.00218
C 24.61514 2.85758 0.02316
C 25.86 14.97884 -0.01654
C 24.66004 12.72371 -0.0032
C 24.64451 11.57614 0.00622
C 25.83248 10.69782 -0.02815
C 25.83496 9.25153 -0.00942
C 24.78159 8.44366 0.00487
C 24.41828 7.14083 0.00826
C 25.83684 6.36277 -0.00294
C 25.84512 5.0043 0.00152
C 25.91108 13.59987 -0.00037
C 2.39211 32.71799 0.01305
