341
Graphene
C 0.01805 0.03085 0.01295
C 9.88346 15.60257 -0.00619
C 11.02969 14.98125 -0.02162
C 11.05517 13.53726 0.00889
C 9.84285 12.76701 -0.00481
C 9.86386 11.39356 0.00979
C 11.09506 10.6826 0.01443
C 11.01353 9.18714 0.03505
C 9.80114 8.50023 -0.02815
C 9.82251 7.01868 -0.04147
C 11.06523 6.3872 -0.05302
C 11.10839 4.98741 0.00213
C 9.85599 4.22002 -0.00066
C 9.87304 2.82289 -0.00289
C 11.13728 2.11023 0.00028
C 11.06133 0.77623 -0.02213
C 9.85122 34.06359 0.03698
C 12.29896 32.56474 -0.00109
C 9.78809 16.99515 0.01848
C 13.58323 31.86338 -0.00491
C 11.00841 17.72382 0.02098
C 9.8359 19.90583 0.0351
C 7.39061 7.06125 -0.01717
C 8.59409 6.41374 0.05265
C 8.52714 4.99814 -0.01952
C 7.38165 4.28574 -0.02813
C 7.40123 2.84775 0.00374
C 8.61656 2.14073 0.00052
C 8.64491 0.72619 -0.03682
C 7.37459 0.0149 0.01965
C 9.85514 32.64146 0.02058
C 11.08559 31.96643 -0.01957
C 11.08484 30.59367 -0.0108
C 9.83602 29.83045 -0.00368
C 9.84149 28.42801 -0.02696
C 11.07895 27.62481 -0.00114
C 9.84985 25.53996 0.00228
C 9.857 24.19304 0.00798
C 9.86965 21.31549 0.00422
C 11.02058 19.0842 -0.03113
C 13.45932 30.5316 0.03338
C 12.34858 29.80566 -0.0258
C 13.49238 17.68928 -0.0331
C 16.02804 13.46928 -0.04076
C 14.85179 12.79454 -0.00652
C 14.76194 11.37667 0.0058
C 16.00132 10.66141 -0.00865
C 15.96477 9.30791 0.00675
C 14.74467 8.53952 -0.00311
C 14.7554 7.03816 0.00742
C 16.01064 6.32724 -0.01594
C 16.00252 4.98712 0.0106
C 14.75293 4.24848 -0.01154
C 14.71244 2.85454 -0.01721
C 15.95244 2.15019 -0.02422
C 16.0002 0.67432 0.01277
C 14.78813 0.03348 0.00096
C 17.18374 32.62551 -0.01527
C 17.23545 15.57875 0.01087
C 18.4614 14.90217 0.00199
C 16.01022 14.85381 -0.00703
C 14.72088 15.6496 0.00654
C 14.68852 17.05674 -0.04422
C 16.03774 31.94412 -0.02957
C 12.28781 17.03708 -0.00316
C 12.28377 15.65716 0.02188
C 13.50296 14.91221 -0.01979
C 13.51009 13.51941 0.02691
C 12.24731 12.83169 -0.01581
C 12.29044 11.39639 0.01452
C 13.51728 10.65395 0.04892
C 13.56753 9.20704 -0.00111
C 7.39853 8.51395 0.00244
C 12.29722 8.5252 -0.03557
C 13.53976 6.40742 0.01739
C 13.55513 4.98009 0.00755
C 12.30895 4.2618 -0.0054
C 12.31161 2.80769 0.00667
C 13.51058 2.09497 0.00143
C 13.52516 0.7015 -0.017
C 12.34278 0.04354 0.00364
C 14.74772 32.65371 -0.00831
C 12.2881 7.11281 0.03754
C 8.59818 9.24499 0.02299
C 8.59105 10.64266 0.03542
C 7.31688 11.38327 0.01416
C 2.45476 7.11013 -0.00482
C 3.71024 6.35781 -0.01384
C 3.67365 4.94667 0.03693
C 2.4425 4.19825 0.01745
C 2.41333 2.83078 0.00488
C 3.66965 2.12445 -0.01004
C 3.64524 0.71762 -0.02896
C 2.48921 34.07812 -0.00131
C 4.96633 32.66045 -0.01118
C 6.11394 31.98856 -0.014
C 6.16695 30.49909 0.02147
C 4.90467 29.83709 0.00373
C 4.91143 28.43153 -0.00191
C 6.17749 27.73141 0.00438
C 6.14942 26.23091 0.01291
C 4.91234 25.57693 0.00093
C 4.89367 24.15382 0.00057
C 2.43357 8.50723 0.02888
C 3.6818 9.25189 0.00685
C 3.68908 10.70499 0.00895
C 2.48132 11.3396 0.00393
C 3.7177 30.56887 -0.01303
C 2.48398 29.86128 -0.01378
C 2.47378 28.40863 0.02635
C 3.64685 27.7598 0.0127
C 3.70893 26.29234 0.01396
C 2.46644 25.55747 0.01849
C 2.45477 24.1441 -0.01142
C 3.64871 23.44276 -0.00562
C 6.18388 23.39781 -0.01634
C 3.74206 22.00557 -0.00494
C 2.44669 19.85384 0.03007
C 3.75626 19.13621 -0.00095
C 3.67535 17.74647 0.01572
C 2.38088 17.01785 -0.04848
C 2.43832 15.69209 -0.00892
C 3.67177 14.92455 -0.01362
C 3.70956 13.4978 -0.0008
C 2.44852 12.80256 0.0288
C 2.5129 21.28179 0.00054
C 18.40612 13.44376 0.01511
C 6.21544 22.00488 -0.00334
C 4.85847 19.8563 0.01641
C 7.38118 29.88887 0.02819
C 7.35387 28.45256 0.00165
C 8.58768 27.71515 -0.02971
C 8.63892 26.30507 0.02894
C 7.36963 25.50603 -0.01789
C 7.40908 24.15388 0.00444
C 8.63117 23.47027 -0.00925
C 8.609 22.04285 0.01877
C 7.38346 21.29085 0.01363
C 7.34662 19.82128 -0.02162
C 8.57454 19.15258 0.00415
C 8.64978 17.75722 -0.0014
C 7.39249 17.01762 0.02162
C 7.37943 15.62884 0.0076
C 8.61674 14.95565 0.01241
C 8.57942 13.48055 -0.01454
C 7.41695 12.77814 0.01945
C 8.69337 30.52891 -0.00891
C 8.64769 32.00502 -0.01046
C 7.34088 32.57015 -0.02689
C 4.89599 34.05305 -0.01536
C 6.12392 19.19023 -0.00719
C 6.10503 17.71952 0.01364
C 4.92349 17.06659 -0.01062
C 4.89719 15.65078 -0.00033
C 6.117 14.9297 0.03589
C 6.1709 13.43288 -0.02759
C 4.90443 12.81637 0.0402
C 4.89517 11.38786 0.00572
C 4.95993 21.332 0.02339
C 6.11084 10.66613 0.03592
C 4.91502 8.52335 0.00943
C 4.937 7.13814 0.02841
C 6.13532 6.39996 -0.01111
C 6.1187 5.03283 -0.01275
C 4.96112 4.26055 0.00985
C 4.92042 2.89141 -0.02245
C 6.13101 2.17038 -0.00428
C 6.17267 0.75293 0.03101
C 6.10542 9.30649 0.00406
C 3.67139 31.97584 0.00848
C 17.23644 12.78368 -0.00478
C 18.38003 10.63815 -0.01185
C 29.53257 2.85605 -0.02142
C 30.77904 2.12118 0.0544
C 30.7616 0.70225 0.00026
C 29.4823 0.03184 0.00682
C 31.94577 32.69363 -0.01779
C 33.22383 31.96721 0.03794
C 33.1636 30.51896 0.01927
C 31.9513 29.84132 0.01574
C 31.9975 28.38181 -0.02383
C 33.23304 27.68359 -0.01429
C 33.16186 26.32194 -0.0136
C 31.93594 25.58061 0.00594
C 32.02357 24.20092 -0.02474
C 33.23222 23.36541 0.00369
C 33.20826 22.00183 0.00455
C 31.94426 21.29143 -0.00644
C 31.96922 19.88259 -0.01839
C 29.50085 4.28888 0.01428
C 33.11947 19.14923 0.00137
C 30.70801 4.96922 -0.01694
C 29.4766 7.01284 0.00346
C 27.06767 0.0213 -0.00669
C 29.45734 32.66051 0.0101
C 30.75208 31.97892 0.01705
C 30.77357 30.51087 -0.0405
C 29.51766 29.81184 -0.01303
C 29.50859 28.43405 -0.01461
C 30.78875 27.69505 -0.02155
C 30.75952 26.30321 -0.00944
C 29.50119 25.54776 -0.03735
C 29.49261 24.17487 -0.00971
C 30.73323 23.43911 0.01518
C 30.7092 22.06978 0.01908
C 29.55178 21.31316 0.07705
C 29.50847 19.82953 0.0103
C 30.79231 19.16068 0.02108
C 30.73379 17.74054 0.00716
C 29.50608 17.05897 0.00307
C 30.73547 6.40515 0.01713
C 33.16898 17.72144 0.00199
C 31.95029 17.04241 0.04381
C 33.19471 9.23835 0.02806
C 1.2569 17.77538 0.01223
C 0.00051 16.94396 0.00648
C 0.02315 15.57843 0.02114
C 1.23561 14.92454 -0.02957
C 1.21719 13.53053 0.00343
C 0.01819 12.67387 -0.02656
C 34.37684 11.4136 -0.02442
C 1.25626 10.63059 -0.00027
C 1.20115 9.18784 -0.00583
C 34.38374 8.54655 -0.02302
C 34.40214 7.07505 -0.02849
C 1.17649 6.40112 0.02931
C 1.20784 4.95496 0.00628
C 0.00868 4.18676 -0.0345
C 0.03777 2.81366 -0.00931
C 1.24658 2.16459 -0.00939
C 1.3039 0.70156 -0.00468
C 1.23359 19.1198 -0.01678
C 0.00298 19.8847 0.01951
C 0.02992 21.2739 -0.02213
C 1.19003 22.01491 0.02712
C 31.97811 7.09987 0.01504
C 33.18318 6.40952 -0.00069
C 33.19352 4.97667 0.04926
C 31.99414 4.32713 -0.03838
C 31.97181 2.86764 0.00349
C 33.23333 2.16567 -0.00323
C 33.16861 0.71872 -0.00841
C 31.97567 0.00513 0.0001
C 28.27065 0.68995 0.03531
C 0.03996 32.70018 -0.02927
C 1.2616 30.5248 0.01027
C 34.40106 29.78238 0.01831
C 0.00305 28.4365 -0.01037
C 1.23789 27.68769 -0.00439
C 1.26513 26.32053 -0.00598
C 34.39054 25.51588 -0.05239
C 34.39433 24.12742 0.03076
C 1.21623 23.446 0.00723
C 1.28762 31.95959 -0.01404
C 28.23947 2.08605 0.01836
C 27.0371 2.86314 -0.03039
C 27.03935 4.24284 -0.01415
C 19.64408 4.27725 -0.0276
C 19.65693 2.80431 0.03005
C 20.88214 2.17396 -0.04078
C 20.90083 0.76129 0.02117
C 19.68529 34.07454 0.02737
C 22.20568 32.6676 -0.00498
C 23.29947 31.96931 0.00135
C 22.09329 15.61132 0.03102
C 23.34681 14.9113 0.02555
C 23.39697 13.45277 0.01423
C 22.14569 12.76108 -0.00285
C 22.10653 11.38974 -0.009
C 23.37728 10.66315 -0.01199
C 23.34274 9.2993 -0.00229
C 22.12478 8.55019 -0.00938
C 22.10215 7.10693 -0.0264
C 23.3754 6.43351 -0.01154
C 20.9009 4.96307 0.00768
C 20.91405 6.3716 -0.00178
C 19.6392 7.07464 0.00733
C 19.65175 8.50256 -0.02118
C 18.44457 9.22329 0.01126
C 17.19342 8.56324 0.01852
C 17.22565 7.03588 -0.00381
C 18.44596 6.35215 0.03046
C 18.40275 4.95793 0.0296
C 17.21109 4.25988 0.03374
C 17.24247 2.8319 -0.02845
C 18.38616 2.07851 -0.03213
C 23.32534 4.97061 0.00684
C 18.46698 0.74607 0.02239
C 19.61721 32.60017 0.02734
C 19.64026 15.61944 -0.0055
C 20.92294 14.905 0.01515
C 20.91135 13.48277 -0.00225
C 19.68718 12.8166 0.00071
C 19.65004 11.33632 -0.01107
C 20.92445 10.59852 -0.01586
C 20.89202 9.21761 -0.01971
C 17.21596 34.06432 0.01153
C 17.2096 11.36194 -0.01662
C 22.16452 4.21232 -0.01052
C 23.36123 2.17563 0.00367
C 25.77962 0.6973 0.01094
C 24.54535 34.06637 0.00235
C 27.04847 32.59811 0.01495
C 28.24538 31.96613 0.01259
C 28.32022 30.50278 0.01799
C 27.03867 29.84011 0.01699
C 28.17656 21.9889 -0.00416
C 26.99759 21.26268 0.01177
C 27.06886 19.85743 0.04266
C 28.29315 19.14551 0.01324
C 28.32734 17.69542 0.0014
C 27.10796 16.96344 0.00924
C 27.10208 15.59827 0.02326
C 27.01393 8.4987 0.00261
C 27.07322 7.02914 0.03265
C 28.25197 6.33187 -0.02049
C 28.27136 4.98922 -0.01854
C 25.87029 2.08173 0.02198
C 24.67498 2.82196 0.02611
C 24.57027 4.23703 -0.00621
C 25.81908 4.95929 0.00194
C 23.39291 0.73275 0.04306
C 22.12156 34.06694 0.00996
C 24.62861 32.66915 0.00195
C 25.79307 31.94634 -0.00802
C 25.88547 30.55491 -0.00218
C 25.87659 19.15929 -0.01654
C 25.85826 17.75869 -0.00037
C 24.65385 17.06635 -0.0032
C 22.15772 2.85911 -0.01679
C 24.60369 15.56525 0.00622
C 25.79975 13.48691 -0.00942
C 24.61765 12.78872 0.00487
C 24.56915 11.40506 0.00826
C 25.77015 10.66786 -0.00294
C 25.84175 9.25271 0.00152
C 24.56481 8.55129 0.01257
C 24.58952 7.0814 0.02316
C 25.85709 6.3932 0.04185
C 25.83748 14.93552 -0.02815
C 2.46614 32.62237 -0.00049
