300
Graphene
C 34.39382 0.00455 0.01295
C 11.0747 6.44824 -0.00111
C 11.12239 4.95165 -0.03557
C 9.79486 4.28255 0.03754
C 9.84196 2.87666 0.01739
C 11.09792 2.13285 0.00755
C 11.05436 0.73576 -0.0054
C 9.90128 7.10366 0.04892
C 9.80111 0.10022 0.00667
C 13.45729 31.92221 -0.017
C 13.60139 30.46665 0.00364
C 12.40072 29.69055 -0.00831
C 12.33585 28.36501 -0.02957
C 12.30211 25.44591 -0.04422
C 12.40346 24.15451 0.00654
C 12.20899 32.60662 0.00143
C 9.8287 8.55031 0.01452
C 11.08394 8.9275 -0.01581
C 9.92259 21.33682 0.02691
C 7.37891 2.86949 -0.05302
C 8.68475 2.11728 0.00213
C 8.54282 0.67139 -0.00066
C 7.2542 34.07764 -0.00289
C 9.67435 32.7383 0.00028
C 10.97508 32.03418 -0.02213
C 11.14721 30.60364 0.03698
C 9.9671 29.87451 -0.00109
C 9.93067 28.43012 -0.00491
C 11.16993 27.69296 0.03338
C 11.15013 26.26143 -0.0258
C 9.8834 25.58789 -0.0331
C 9.91671 24.13265 -0.00316
C 11.19857 23.42094 0.02188
C 10.87196 22.10209 -0.01979
C 13.46487 22.2185 -0.00703
C 13.5415 9.1402 -0.04076
C 12.31019 8.5826 -0.00652
C 12.36012 7.07859 0.0058
C 15.97993 0.67175 0.01852
C 14.78162 34.04348 -0.00381
C 17.23949 32.45629 0.03046
C 18.52701 31.97198 0.0296
C 17.0275 8.45617 0.03374
C 17.24266 7.16646 -0.02845
C 18.39673 6.36918 -0.03213
C 18.49126 4.90475 0.02239
C 17.2459 4.35166 0.01153
C 17.19601 2.90954 0.02734
C 18.3354 2.13292 -0.0055
C 18.42829 0.72336 0.01515
C 17.25702 33.98063 -0.00225
C 19.66911 32.67444 0.00071
C 20.83389 31.94164 -0.01107
C 15.9764 2.12452 0.01126
C 7.4599 4.23278 -0.04147
C 14.71636 2.82131 -0.01185
C 16.00643 4.97957 -0.00478
C 13.57364 6.38401 -0.00865
C 13.55731 4.89736 0.00675
C 12.31904 4.25229 -0.00311
C 12.32263 2.87572 0.00742
C 13.55451 2.08356 -0.01594
C 13.54718 0.66915 0.0106
C 12.27364 0.02565 -0.01154
C 14.67405 32.54675 -0.01721
C 15.98009 32.03198 -0.02422
C 14.3829 21.37689 0.01277
C 15.73684 10.68452 0.00096
C 16.01783 9.32594 -0.01527
C 14.70856 8.45675 0.01087
C 14.80986 7.04625 0.00199
C 15.99329 6.44754 0.01511
C 14.84192 4.24043 -0.01662
C 21.00271 30.56398 -0.01586
C 8.60628 5.03122 -0.02815
C 7.31871 7.09878 0.01443
C 3.62219 10.59794 0.03101
C 3.62936 9.27484 -0.01536
C 2.39264 8.51749 -0.02689
C 2.44662 7.06102 -0.01046
C 3.68407 6.41829 -0.00891
C 3.714 4.99564 0.02819
C 2.50273 11.34972 -0.00428
C 2.44777 4.26318 0.00165
C 3.65087 2.16644 0.02894
C 3.62727 0.72114 -0.01789
C 2.36407 0.02622 0.00444
C 4.88752 32.63896 -0.00925
C 6.14935 31.85997 0.01877
C 6.20367 30.5039 0.01363
C 2.43492 2.84936 -0.02971
C 2.40826 12.77869 -0.02245
C 3.47164 13.57018 0.00985
C 3.67202 14.8359 -0.01275
C 3.65567 30.5769 0.02339
C 2.47003 29.81846 0.01641
C 2.39735 28.4408 -0.00719
C 3.68076 27.70006 0.01364
C 3.71865 26.26078 -0.01062
C 2.49457 25.48359 -0.00033
C 2.43609 24.1567 0.03589
C 3.68626 23.40415 -0.02759
C 3.61461 22.00155 0.0402
C 2.39245 21.31556 0.00572
C 2.41093 19.85865 0.03592
C 3.702 19.16484 0.00406
C 3.74651 17.74428 0.00943
C 2.53915 17.01085 0.02841
C 2.54839 15.63406 -0.01111
C 4.92284 29.88065 -0.02162
C 4.92022 28.42131 0.00415
C 6.07837 27.73303 -0.0014
C 6.09865 26.34466 0.02162
C 7.30347 32.60569 -0.00368
C 8.55417 31.94503 -0.02696
C 8.68882 30.57313 -0.00114
C 7.44429 29.75257 0.00228
C 7.44363 28.38015 0.00798
C 8.68642 27.65436 0.00422
C 8.60589 26.25947 0.0351
C 7.38571 25.66611 -0.03113
C 7.41209 24.17223 0.02098
C 8.62882 23.48086 0.01848
C 8.59317 22.00634 -0.00619
C 7.40577 21.26284 -0.02162
C 7.37892 19.88036 0.00889
C 8.67445 9.09791 -0.00481
C 7.37082 8.60108 0.00979
C 4.85437 0.00271 -0.0108
C 8.61284 6.4212 0.03505
C 6.05941 0.70358 -0.01957
C 4.91915 2.85698 0.01965
C 4.88029 25.535 0.0076
C 4.92511 24.16481 0.01241
C 6.15389 23.48454 -0.01454
C 6.1545 22.03742 0.01945
C 4.91435 21.32913 0.01416
C 4.95313 19.92154 0.03542
C 6.26566 19.11307 0.02299
C 6.06644 17.73298 0.00244
C 4.90886 17.0721 -0.01717
C 6.14538 9.13877 0.05265
C 4.91715 8.59808 -0.01952
C 4.95492 7.13749 -0.02813
C 6.18431 6.43714 0.00374
C 6.19086 5.00292 0.00052
C 4.91159 4.277 -0.03682
C 6.13189 2.16055 0.02058
C 19.67727 6.91576 -0.01971
C 20.9213 6.4981 -0.02118
C 20.95465 4.95561 0.00733
C 31.90975 21.30855 -0.02383
C 31.87346 19.80344 -0.01429
C 33.16997 19.13119 -0.0136
C 33.16881 17.75346 0.00594
C 32.07684 16.94489 -0.02474
C 31.94986 15.59495 0.00369
C 33.14982 21.99833 0.01574
C 33.16207 14.96466 0.00455
C 31.86778 12.87094 -0.01839
C 31.89144 11.39542 0.00137
C 33.14385 10.63104 0.00199
C 33.15455 9.26032 0.04381
C 31.91519 8.56911 0.02806
C 32.00316 7.14646 0.01504
C 33.11237 13.54691 -0.00644
C 33.1972 23.5003 0.01927
C 31.96331 24.22819 0.03794
C 31.94587 25.67228 -0.01779
C 29.4801 7.18381 0.01518
C 30.72101 6.45431 0.01908
C 30.73343 5.04998 0.07705
C 29.45995 4.27741 0.0103
C 29.5134 2.88442 0.02108
C 30.7152 2.16158 0.00716
C 30.68125 0.71458 0.00307
C 29.43563 0.02437 0.00346
C 31.95544 32.74515 0.01713
C 33.1863 32.00158 -0.01694
C 33.12068 30.54948 0.01428
C 31.8895 29.8385 -0.02142
C 31.89672 28.43859 0.0544
C 33.25681 27.74874 0.00026
C 33.19976 26.38555 0.00682
C 33.24985 6.35535 -0.00069
C 33.20641 4.9859 0.04926
C 31.93197 4.26828 -0.03838
C 32.01 2.83233 0.00349
C 34.42593 15.6995 0.02114
C 1.26324 14.92824 -0.02957
C 1.17392 13.51131 0.00343
C 34.33944 12.79752 -0.02656
C 34.42221 11.38729 -0.02442
C 1.19412 10.62982 -0.00027
C 1.19909 9.28401 -0.00583
C 34.37534 8.52483 -0.02302
C 0.05476 7.17687 -0.02849
C 1.2501 6.42563 0.02931
C 1.23478 5.01894 0.00628
C 0.0125 4.30533 -0.0345
C 0.01858 2.8521 -0.00931
C 1.19434 2.13357 -0.00939
C 1.16639 0.737 -0.00468
C 34.41395 17.11218 0.00648
C 29.44133 8.60829 -0.00971
C 1.21669 17.71125 0.01223
C 34.40004 19.81481 0.01951
C 33.21237 2.20136 -0.00323
C 33.2031 0.74978 -0.00841
C 31.93174 0.04844 0.0001
C 34.39443 32.69094 -0.02927
C 1.21763 31.98741 -0.01404
C 1.20651 30.60066 0.01027
C 34.40515 29.88454 0.01831
C 0.01614 28.4167 -0.01037
C 1.23669 27.71027 -0.00439
C 1.23355 26.24176 -0.00598
C 34.39824 25.59326 -0.05239
C 0.01272 24.1733 0.03076
C 1.18164 23.45764 0.00723
C 1.18016 21.97595 0.02712
C 34.37065 21.25535 -0.02213
C 1.23314 19.11183 -0.01678
C 30.65226 9.2798 -0.03735
C 30.73703 10.71935 -0.00944
C 30.76718 13.61803 -0.02155
C 22.07684 34.03946 0.00684
C 24.56425 32.63913 -0.01052
C 25.83936 31.98561 -0.01679
C 25.84133 30.50274 0.00367
C 24.58597 29.73525 0.04306
C 24.57728 28.33096 0.00996
C 25.84201 27.59336 0.00195
C 25.84805 26.20543 -0.00802
C 24.48024 25.43525 -0.00218
C 24.69048 24.16875 -0.01654
C 25.89588 23.54555 -0.00037
C 24.55661 7.07488 -0.0032
C 25.74311 6.42834 0.00622
C 25.87495 5.0309 -0.02815
C 24.60564 4.31023 -0.00942
C 23.27497 0.66963 -0.01154
C 24.62055 2.87352 0.00487
C 23.34574 2.18961 -0.0264
C 22.16095 4.34973 -0.00229
C 19.6632 4.23817 -0.00178
C 19.63909 2.82682 0.00768
C 20.90745 2.19312 -0.0276
C 20.93674 0.80807 0.03005
C 19.69367 0.11101 -0.04078
C 22.11869 32.62375 0.02117
C 23.3388 31.86204 0.02737
C 23.40998 30.43166 -0.00498
C 22.09098 29.74203 0.00135
C 22.02423 28.42357 0.03102
C 23.13893 27.57561 0.02555
C 23.37619 26.24499 0.01423
C 22.10897 6.98097 -0.00285
C 23.33373 6.56789 -0.009
C 23.41394 5.03113 -0.01199
C 22.11428 2.92827 -0.00938
C 3.66945 31.99113 -0.00334
C 25.79813 2.05737 0.00826
C 24.52107 34.01144 0.00152
C 28.24369 0.81872 0.02326
C 27.03172 34.07896 0.00261
C 29.52431 32.70354 0.03265
C 30.78547 32.01238 -0.02049
C 30.73246 30.52667 -0.01854
C 29.43671 29.83993 -0.01415
C 29.45482 28.41608 -0.03039
C 30.6818 27.76814 0.01836
C 30.67057 26.38421 0.03531
C 29.46228 25.57997 -0.00669
C 29.57663 24.15856 0.0101
C 30.79278 23.44101 0.01705
C 30.67952 21.93916 -0.0405
C 29.47317 21.34878 -0.01303
C 30.69157 19.23133 -0.01461
C 28.28899 2.16168 0.00924
C 25.73552 0.62982 -0.00294
C 27.01343 2.82212 0.0014
C 28.26519 4.99541 0.04266
C 27.12368 32.66674 0.01257
C 28.29426 31.91769 0.02316
C 28.24777 30.55695 0.04185
C 27.02042 29.77263 0.00194
C 27.03574 28.35992 -0.00621
C 28.2764 27.73412 0.02611
C 28.27888 26.25668 0.02198
C 27.0513 25.49994 0.01094
C 27.10231 24.0099 0.00235
C 28.31667 23.35785 0.01495
C 28.35565 21.97484 0.01259
C 28.20011 9.07157 0.01799
C 27.03717 8.42029 0.01699
C 27.01309 7.15034 -0.00416
C 28.25414 6.42758 0.01177
C 26.98792 4.23263 0.01324
C 2.43659 32.66332 -0.01634
