413
Graphene
C 0.01261 0.01248 0.01295
C 14.78221 25.55978 -0.02245
C 14.71828 24.18679 -0.00428
C 15.98303 23.44907 0.03101
C 15.9813 21.9797 -0.01536
C 14.76968 21.31677 -0.02689
C 14.79471 19.91645 -0.01046
C 16.00659 19.14819 -0.00891
C 15.9888 17.73412 0.02819
C 14.74916 17.00332 0.00165
C 14.75901 15.63462 -0.02971
C 16.0055 14.91684 0.02894
C 15.99129 13.49746 -0.01789
C 14.76181 12.76889 0.00444
C 14.76957 11.34997 -0.00925
C 15.97325 10.68551 0.01877
C 16.00998 9.21514 0.01363
C 14.76206 8.46685 -0.02162
C 14.70196 7.09266 0.00415
C 16.02733 6.36866 -0.0014
C 15.97324 4.97086 0.02162
C 14.74899 4.25352 0.0076
C 15.99668 26.25453 0.00985
C 15.97768 27.75515 -0.01275
C 14.71146 28.4159 -0.01111
C 14.75319 29.85819 0.02841
C 12.30037 24.15091 0.02147
C 13.5399 23.45087 0.00373
C 13.54134 22.04278 -0.00191
C 12.33046 21.30086 0.00438
C 12.28485 19.88574 0.01291
C 13.55951 19.18836 0.00093
C 13.54169 13.51746 0.00057
C 12.28357 11.38162 -0.01634
C 13.54299 10.69341 -0.00334
C 13.54638 9.22257 0.02339
C 14.75884 2.83108 0.01241
C 12.3225 8.554 0.01641
C 13.55305 6.40518 0.01364
C 13.53728 4.98948 -0.01062
C 12.28441 4.28097 -0.00033
C 12.29214 2.82117 0.03589
C 13.49397 2.10939 -0.02759
C 13.54005 0.71663 0.0402
C 12.32224 34.07581 0.00572
C 14.72816 32.69943 0.03592
C 15.9851 31.96852 0.00406
C 15.95859 30.55552 0.00943
C 12.32322 7.12356 -0.00719
C 15.98918 2.07398 -0.01454
C 15.97787 0.70485 0.01945
C 14.74836 0.05698 0.01416
C 18.43979 4.97034 0.00889
C 17.17808 4.27916 -0.00481
C 17.18917 2.84258 0.00979
C 18.4692 2.14186 0.01443
C 18.45617 0.7205 0.03505
C 17.2105 34.05595 -0.02815
C 19.70461 32.68576 -0.04147
C 20.90561 31.97387 -0.05302
C 20.91134 30.49746 0.00213
C 19.64308 29.81074 -0.00066
C 18.43058 6.40316 -0.02162
C 19.68432 28.38188 -0.00289
C 20.93566 26.25123 -0.02213
C 19.66492 25.58893 0.03698
C 19.65395 24.08937 -0.00109
C 20.88401 23.40597 -0.00491
C 20.85544 22.02263 0.03338
C 19.68282 21.31602 -0.0258
C 19.65873 19.86936 -0.0331
C 20.88899 19.18225 -0.00316
C 20.91089 17.75033 0.02188
C 19.7101 17.04255 -0.01979
C 20.95503 27.70682 0.00028
C 12.29816 25.56985 -0.014
C 17.22733 7.11447 -0.00619
C 18.44682 9.19939 0.02098
C 17.19237 32.64631 0.03542
C 18.48946 31.94655 0.02299
C 18.47852 30.5322 0.00244
C 17.21298 29.82323 -0.01717
C 17.22106 28.38889 0.05265
C 18.4112 27.67262 -0.01952
C 18.43039 26.25169 -0.02813
C 17.19916 25.54613 0.00374
C 17.19331 24.138 0.00052
C 18.4925 23.4378 -0.03682
C 17.21139 8.49262 0.01848
C 18.45208 21.98796 0.01965
C 17.18582 19.87297 -0.01957
C 18.45105 19.16495 -0.0108
C 18.44082 17.74347 -0.00368
C 17.23416 16.99998 -0.02696
C 17.242 15.61941 -0.00114
C 18.43267 14.95451 0.00228
C 18.4545 13.46219 0.00798
C 17.16644 12.81476 0.00422
C 17.21875 11.34162 0.0351
C 18.43773 10.64497 -0.03113
C 17.22907 21.24237 0.02058
C 13.53881 26.25239 -0.01118
C 13.51792 27.72889 -0.00131
C 12.27272 28.43472 -0.02896
C 2.44794 34.05691 0.03284
C 4.90288 32.66632 -0.04307
C 6.13764 31.90222 0.03189
C 6.1552 30.54055 0.00031
C 4.91965 29.85194 -0.003
C 4.89938 28.41697 0.01402
C 6.11428 27.73806 0.02379
C 6.16392 26.31168 0.00907
C 4.91328 25.55648 0.00643
C 4.88763 24.14131 -0.01509
C 3.68891 0.71104 0.04505
C 6.17626 23.38774 0.03267
C 4.98492 21.31 0.00402
C 4.92739 11.34975 0.0073
C 6.16798 10.64669 0.0174
C 6.13542 9.21562 0.03828
C 4.90827 8.49436 0.01226
C 4.85485 7.17757 -0.00279
C 6.16513 6.39956 0.01996
C 6.1623 4.96251 -0.03996
C 4.92263 4.27046 0.01465
C 4.94033 2.83375 -0.00074
C 6.15532 22.00971 0.02374
C 6.19167 2.12776 -0.00518
C 3.67022 2.10043 -0.04999
C 2.47064 4.33728 0.02769
C 3.66207 30.52412 -0.00177
C 2.4475 29.84108 0.04421
C 2.47084 28.41593 0.00088
C 3.69285 27.66842 0.00828
C 3.69278 26.31384 -0.02375
C 2.49447 25.56842 0.00558
C 2.44611 24.17137 -0.0059
C 3.71306 23.40614 -0.01386
C 3.66228 21.97177 -0.02805
C 2.4598 21.29253 0.00081
C 2.5195 2.81929 -0.03291
C 2.46778 19.85588 0.00245
C 2.42712 17.05155 -0.00039
C 2.43605 15.64622 0.0064
C 2.44895 12.76207 0.00211
C 2.50098 11.33869 -0.00449
C 3.73264 10.62025 -0.01979
C 3.67993 9.25159 0.02784
C 2.41003 8.47022 -0.01977
C 2.44974 7.07573 -0.00561
C 3.68232 6.40347 0.00208
C 3.67664 4.95641 0.01707
C 3.70026 19.17193 0.02728
C 19.67879 15.66479 0.02691
C 6.1783 0.72959 0.0086
C 7.38452 32.65904 0.017
C 11.09135 27.71543 -0.01142
C 11.04969 26.26327 -0.00562
C 9.85419 25.53241 -0.00494
C 9.84685 24.12821 0.00054
C 11.07185 23.40886 0.03007
C 11.08956 22.00564 -0.00095
C 9.80643 21.31843 0.01572
C 11.023 10.66363 -0.04848
C 11.10014 9.21333 -0.00892
C 9.81448 8.54665 -0.01362
C 9.84693 28.4366 0.01849
C 9.84079 7.15262 -0.0008
C 11.06041 5.02984 0.00393
C 9.83527 4.28827 0.00895
C 9.84492 2.86687 0.00685
C 11.04416 2.10701 0.02888
C 11.07081 0.72903 -0.00482
C 9.82485 34.04909 -0.01384
C 12.31636 32.64918 0.03693
C 13.50474 31.94546 0.01745
C 13.49335 30.56347 0.00488
C 12.26452 29.83435 -0.01004
C 11.05472 6.38972 0.0288
C 4.89483 0.01176 -0.00643
C 9.83718 29.79694 0.01396
C 11.09681 31.93383 0.02635
C 8.60419 31.96546 -0.03113
C 8.60323 30.53971 -0.02566
C 7.39225 29.852 -0.00094
C 7.36668 28.35508 0.02322
C 8.62607 27.66797 -0.00725
C 8.57948 26.27896 -0.05697
C 7.38189 25.58241 0.01087
C 7.3719 24.14796 -0.01343
C 8.55957 23.43953 0.00988
C 8.55632 22.03763 0.0276
C 11.06063 30.52105 0.0127
C 7.37992 21.34244 0.01305
C 7.36056 8.53922 0.03368
C 7.41205 7.09743 -0.02929
C 8.61686 6.38752 -0.00966
C 8.58673 4.96531 -0.03337
C 7.37597 4.27536 0.01227
C 7.43559 2.87095 0.00873
C 8.62838 2.14305 -0.00049
C 8.59302 0.69771 0.00848
C 7.40442 0.00681 -0.01303
C 9.83522 32.69518 -0.01378
C 8.57208 9.27551 -0.00077
C 3.75511 31.93298 0.03278
C 20.91642 14.89455 -0.01581
C 19.70581 12.7468 0.04892
C 30.74048 9.28017 -0.03735
C 29.49731 8.5282 -0.00971
C 29.53309 7.09732 0.01518
C 30.74675 6.40727 0.01908
C 30.74925 4.97284 0.07705
C 29.48038 4.25748 0.0103
C 29.54477 2.87782 0.02108
C 30.74725 2.07745 0.00716
C 30.76518 0.67722 0.00307
C 29.52399 34.06385 0.00346
C 31.94337 32.6687 0.01713
C 33.21334 31.92716 -0.01694
C 33.18918 30.53344 0.01428
C 32.00664 29.78383 -0.02142
C 31.98211 28.37514 0.0544
C 33.19427 27.71678 0.00026
C 33.17442 26.25876 0.00682
C 31.95052 25.56136 -0.01779
C 31.97602 24.15863 0.03794
C 33.22924 23.39091 0.01927
C 33.23089 21.98711 0.01574
C 30.75604 10.63877 -0.00944
C 29.56023 11.3551 -0.02155
C 29.4996 12.76042 -0.01461
C 30.75162 13.49602 -0.01303
C 27.0784 2.8433 0.01259
C 28.2756 2.11357 0.01799
C 28.28202 0.68959 0.01699
C 27.05809 34.07316 -0.00416
C 29.47356 32.66096 0.01177
C 30.78029 31.95743 0.04266
C 30.73091 30.53143 0.01324
C 29.5346 29.83222 0.0014
C 29.49748 28.39361 0.00924
C 30.77145 27.66573 0.02326
C 32.00453 21.30395 -0.02383
C 30.73691 26.28028 0.00261
C 29.52726 24.07856 -0.02049
C 30.73951 23.42535 -0.01854
C 30.7362 22.04799 -0.01415
C 29.5549 21.32503 -0.03039
C 29.53623 19.88522 0.01836
C 30.71636 19.12204 0.03531
C 30.7418 17.71745 -0.00669
C 29.49399 17.03553 0.0101
C 29.54654 15.60821 0.01705
C 30.75645 14.90539 -0.0405
C 29.48525 25.54154 0.03265
C 31.97163 19.86795 -0.01429
C 33.1935 19.17637 -0.0136
C 33.17491 17.73431 0.00594
C 1.22661 23.47802 0.00723
C 1.21153 22.04514 0.02712
C 34.42571 21.29602 -0.02213
C 34.42975 19.88034 0.01951
C 1.22595 19.17375 -0.01678
C 1.197 17.74598 0.01223
C 0.00572 17.01677 0.00648
C 0.00447 15.59085 0.02114
C 1.23145 14.9005 -0.02957
C 1.21864 13.51947 0.00343
C 34.42387 24.16009 0.03076
C 34.43254 12.77119 -0.02656
C 1.20683 10.69121 -0.00027
C 1.22067 9.2184 -0.00583
C 34.42314 8.54025 -0.02302
C 0.00218 7.10243 -0.02849
C 1.21961 6.36563 0.02931
C 1.20853 4.93733 0.00628
C 34.42793 4.22067 -0.0345
C 0.00311 2.8364 -0.00931
C 1.25374 2.17752 -0.00939
C 1.2598 0.68273 -0.00468
C 34.41305 11.36183 -0.02442
C 27.01594 4.2452 0.01495
C 34.4305 25.60006 -0.05239
C 1.25022 27.65726 -0.00439
C 31.94856 17.02652 -0.02474
C 31.985 15.58948 0.00369
C 33.22671 14.88795 0.00455
C 33.22548 13.45262 -0.00644
C 31.94074 12.79761 -0.01839
C 31.97716 11.3152 0.00137
C 33.18975 10.63742 0.00199
C 33.19267 9.24817 0.04381
C 31.97598 8.4996 0.02806
C 31.96141 7.09653 0.01504
C 1.23837 26.26154 -0.00598
C 33.18333 6.39075 -0.00069
C 31.98106 4.26117 -0.03838
C 32.00111 2.8606 0.00349
C 33.19209 2.13237 -0.00323
C 33.16543 0.68387 -0.00841
C 31.94918 34.07527 0.0001
C 34.42822 32.62564 -0.02927
C 1.215 31.97271 -0.01404
C 1.25234 30.51557 0.01027
C 34.43214 29.80955 0.01831
C 34.39818 28.43207 -0.01037
C 33.17549 4.94611 0.04926
C 28.30043 4.96564 0.00235
C 28.30874 6.37146 0.01094
C 27.0684 7.07761 0.02198
C 23.35223 17.72963 -0.02422
C 22.15367 17.01762 0.01277
C 22.09667 15.5945 0.00096
C 23.36059 14.88922 -0.01527
C 23.36252 13.44753 0.01087
C 22.13502 12.77492 0.00199
C 22.1394 11.3251 0.01511
C 23.40427 10.63417 -0.00478
C 23.33692 9.21381 -0.01662
C 22.12103 8.50591 -0.01185
C 23.35806 19.17415 -0.01721
C 22.16892 7.06448 0.01126
C 23.3911 4.95804 -0.00381
C 22.12301 4.24028 0.03046
C 22.15357 2.84899 0.0296
C 23.37406 2.10586 0.03374
C 23.39259 0.70301 -0.02845
C 22.14658 0.00092 -0.03213
C 24.60277 32.73271 0.02239
C 25.868 31.91086 0.01153
C 25.77693 30.50565 0.02734
C 24.59371 29.81612 -0.0055
C 23.34079 6.39065 0.01852
C 24.57691 28.40965 0.01515
C 22.12983 19.90932 -0.01154
C 23.37612 21.97949 -0.01594
C 19.69991 11.36311 -0.00111
C 20.90798 10.63734 -0.03557
C 20.92167 9.26475 0.03754
C 19.68845 8.48457 0.01739
C 19.67099 7.11655 0.00755
C 20.94171 6.38194 -0.0054
C 20.91987 4.96642 0.00667
C 19.65839 4.2296 0.00143
C 19.6942 2.8447 -0.017
C 20.90885 2.15832 0.00364
C 22.21193 21.29883 0.0106
C 20.913 0.7325 -0.00831
C 22.13331 32.67035 -0.04422
C 23.37131 31.97326 0.00654
C 23.30918 30.50276 -0.00703
C 22.12494 29.81905 -0.04076
C 22.15637 28.41343 -0.00652
C 23.35973 27.68161 0.0058
C 23.37248 26.24513 -0.00865
C 22.11768 25.54488 0.00675
C 22.12321 24.14244 -0.00311
C 23.35816 23.43385 0.00742
C 19.66562 0.00321 -0.02957
C 20.89251 13.50378 0.01452
C 25.80789 27.69891 -0.00225
C 24.59153 25.53381 -0.01107
C 28.26577 30.55127 0.00367
C 27.08428 29.79975 0.04306
C 27.05181 28.40034 0.00996
C 28.28345 27.68108 0.00195
C 28.29205 26.28097 -0.00802
C 27.09965 25.62419 -0.00218
C 27.05218 24.15251 -0.01654
C 28.26456 23.38568 -0.00037
C 28.3062 22.01217 -0.0032
C 27.03938 21.31136 0.00622
C 28.30234 31.94563 -0.01679
C 27.05821 19.84451 -0.02815
C 28.29593 17.75006 0.00487
C 27.05276 17.04167 0.00826
C 27.03426 15.64382 -0.00294
C 28.27355 14.87097 0.00152
C 28.29447 13.517 0.01257
C 27.04057 12.76026 0.02316
C 27.05035 11.33651 0.04185
C 28.2781 10.63911 0.00194
C 28.28486 9.23231 -0.00621
C 27.05672 8.52921 0.02611
C 28.29377 19.15954 -0.00942
C 25.81217 26.29489 0.00071
C 27.0406 32.64504 -0.01052
C 25.87932 0.74272 -0.01154
C 24.58412 24.12927 -0.01586
C 25.82972 23.43431 -0.01971
C 25.80943 22.01002 -0.02118
C 24.57623 21.33382 0.00733
C 24.59879 19.83065 -0.00178
C 25.78711 19.15028 0.00768
C 25.86014 17.7804 -0.0276
C 24.57277 17.07555 0.03005
C 24.56812 15.60544 -0.04078
C 25.80928 14.93949 0.02117
C 24.58376 34.07879 0.00684
C 25.84911 13.47552 0.02737
C 24.57641 11.36673 0.00135
C 25.85378 10.63208 0.03102
C 25.79872 9.19241 0.02555
C 24.57227 8.53823 0.01423
C 24.60276 7.0769 -0.00285
C 25.80636 6.39417 -0.009
C 25.85522 4.93783 -0.01199
C 24.54086 4.25095 -0.00229
C 24.61313 2.85959 -0.00938
C 25.80872 2.15532 -0.0264
C 24.6404 12.83707 -0.00498
C 2.48166 32.60846 0.01138
