354
Graphene
C 0.00218 0.03842 0.01295
C 11.13707 15.06184 -0.02696
C 11.25474 13.67077 -0.00114
C 9.96097 12.93164 0.00228
C 9.84954 11.48178 0.00798
C 11.01458 10.72792 0.00422
C 11.08062 9.26173 0.0351
C 9.90398 8.56828 -0.03113
C 9.87162 7.20827 0.02098
C 9.77546 15.57384 -0.00368
C 11.05781 6.43523 0.01848
C 9.83192 4.39228 -0.02162
C 9.76431 2.95021 0.00889
C 10.88037 2.20882 -0.00481
C 10.93768 0.70685 0.00979
C 9.78153 34.068 0.01443
C 12.166 32.65391 0.03505
C 13.44677 31.95062 -0.02815
C 13.55542 30.48851 -0.04147
C 11.05587 5.06962 -0.00619
C 12.26736 29.84632 -0.05302
C 9.745 16.98045 -0.0108
C 11.2748 18.9282 0.02058
C 7.38984 4.2951 -0.0014
C 7.35148 2.84077 0.02162
C 8.59537 2.13681 0.0076
C 8.53683 0.69406 0.01241
C 7.30138 0.01438 -0.01454
C 9.72125 32.67223 0.01945
C 10.8968 32.00855 0.01416
C 10.97404 30.53651 0.03542
C 11.09894 17.64446 -0.01957
C 9.79632 29.81142 0.02299
C 11.05499 27.6977 -0.01717
C 11.06629 26.297 0.05265
C 9.75894 25.64273 -0.01952
C 9.78423 24.17257 -0.02813
C 11.06349 23.39599 0.00374
C 11.10795 21.95409 0.00052
C 9.96473 21.14217 -0.03682
C 9.94409 19.67202 0.01965
C 9.82513 28.4581 0.00244
C 8.58446 5.05111 0.00415
C 12.25753 28.37568 0.00213
C 13.38236 26.21883 -0.00289
C 14.75041 29.7722 0.00143
C 14.69752 28.36298 -0.017
C 15.99819 27.62786 0.00364
C 16.12977 26.22156 -0.00831
C 14.85298 25.51571 -0.02957
C 14.58246 24.1437 -0.04422
C 14.84459 11.16588 0.00654
C 15.87129 10.68742 -0.00703
C 15.94927 30.48593 0.00667
C 16.0958 9.20289 -0.04076
C 14.75961 7.0172 0.0058
C 16.00345 6.36049 -0.00865
C 15.94726 4.98398 0.00675
C 14.683 4.28634 -0.00311
C 14.71541 2.88741 0.00742
C 15.98792 2.12146 -0.01594
C 15.98801 0.74892 0.0106
C 14.71671 0.0598 -0.01154
C 14.82309 8.48336 -0.00652
C 13.39093 27.65775 -0.00066
C 15.94812 31.84536 -0.0054
C 12.16151 0.01394 0.01739
C 12.24493 25.44409 0.00028
C 12.29775 24.01714 -0.02213
C 13.65291 23.44356 0.03698
C 12.28637 21.11177 -0.00109
C 12.23523 19.97255 -0.00491
C 11.82958 16.25507 0.03338
C 12.28193 12.76473 -0.0258
C 12.32275 11.39846 -0.0331
C 14.67123 32.65067 0.00755
C 13.52241 10.76081 -0.00316
C 12.37499 8.5432 -0.01979
C 12.30248 7.18261 0.02691
C 13.50334 6.41149 -0.01581
C 13.50971 4.96456 0.01452
C 12.27157 4.30236 0.04892
C 12.25852 2.84666 -0.00111
C 13.4234 2.11503 -0.03557
C 13.43762 0.71781 0.03754
C 13.61641 9.23263 0.02188
C 8.62205 6.51955 -0.02162
C 7.34255 7.17308 0.01363
C 7.4113 8.54023 0.01877
C 2.44606 7.21133 0.00054
C 3.67631 6.44367 0.03007
C 3.68207 4.9719 -0.00095
C 2.43024 4.33035 0.01572
C 2.39706 2.85351 -0.04848
C 3.65695 2.14961 -0.00892
C 3.57339 0.76761 -0.01362
C 2.39352 0.09154 -0.0008
C 2.37287 8.59721 -0.00494
C 4.87414 32.78833 0.0288
C 6.06177 30.63681 0.00895
C 4.83277 29.91904 0.00685
C 4.94061 28.41313 0.02888
C 6.12998 27.72033 -0.00482
C 6.1247 26.26922 -0.01384
C 4.91161 25.61272 0.03693
C 4.88059 24.1072 0.01745
C 6.12967 23.44059 0.00488
C 6.0649 32.06235 0.00393
C 6.13802 21.97412 -0.01004
C 3.66179 9.32431 -0.00562
C 2.49062 11.43108 0.01849
C 3.66368 30.55808 -0.01343
C 2.41744 29.88583 0.00988
C 2.46545 28.4667 0.0276
C 3.72774 27.77037 0.01305
C 3.63202 26.37119 -0.00077
C 2.42189 25.62251 0.03368
C 2.42578 24.14785 -0.02929
C 3.63703 23.48267 -0.00966
C 3.67069 10.70385 -0.01142
C 3.63608 22.0461 -0.03337
C 2.39961 19.9002 0.00873
C 3.6231 19.20999 -0.00049
C 3.62484 17.76842 0.00848
C 2.29925 17.07998 -0.01303
C 2.36113 15.70719 -0.01378
C 3.59352 14.97376 0.02635
C 3.66223 13.56296 0.0127
C 2.40984 12.82031 0.01396
C 2.41827 21.29178 0.01227
C 4.96442 21.27817 -0.02896
C 4.90519 19.84504 -0.00131
C 6.17951 19.18802 -0.01118
C 8.53748 27.78358 0.02841
C 8.5231 26.28944 -0.01111
C 7.34421 25.5592 -0.01275
C 7.38369 24.1407 0.00985
C 8.61352 23.35785 -0.02245
C 8.72435 21.90415 -0.00428
C 7.4318 21.25409 0.03101
C 7.39909 19.8339 -0.01536
C 7.31858 28.49081 0.00943
C 8.60436 19.1141 -0.02689
C 7.38173 17.0353 -0.00891
C 7.27604 15.56634 0.02819
C 8.54851 14.96759 0.00165
C 8.55928 13.50478 -0.02971
C 7.35293 12.76484 0.02894
C 7.4055 11.43354 -0.01789
C 8.63062 10.70611 0.00444
C 8.63518 9.25637 -0.00925
C 8.60984 17.69652 -0.01046
C 7.2805 29.92669 0.00406
C 8.5342 30.56727 0.03592
C 8.50737 31.96847 0.00572
C 6.11697 17.79219 -0.014
C 4.95077 17.06372 0.02147
C 4.89756 15.5835 0.00373
C 6.05845 14.93076 -0.00191
C 6.14947 13.52969 0.00438
C 4.86426 12.81533 0.01291
C 4.8952 11.38062 0.00093
C 6.19092 10.65898 0.00057
C 6.21308 9.26987 -0.01634
C 4.95405 8.53746 -0.00334
C 4.99266 7.09443 0.02339
C 6.19158 6.41253 0.01641
C 6.12506 4.95881 -0.00719
C 4.8411 4.25752 0.01364
C 4.84744 2.88033 -0.01062
C 6.05066 2.1364 -0.00033
C 6.06019 0.77582 0.03589
C 4.85842 0.08791 -0.02759
C 7.28888 32.67891 0.0402
C 17.09364 32.58237 -0.01721
C 18.31287 31.87843 -0.02422
C 18.4087 30.50147 0.01277
C 17.14158 29.782 0.00096
C 31.91741 32.6715 0.01713
C 33.24032 31.96956 -0.01694
C 33.17014 30.53995 0.01428
C 31.92306 29.88171 -0.02142
C 32.01122 28.46712 0.0544
C 33.21562 27.78852 0.00026
C 33.10446 26.28463 0.00682
C 31.82916 25.60964 -0.01779
C 29.40825 0.006 0.00346
C 31.89798 24.23713 0.03794
C 33.11616 22.0354 0.01574
C 31.90105 21.30313 -0.02383
C 31.88532 19.89531 -0.01429
C 33.09882 19.1861 -0.0136
C 33.05384 17.78809 0.00594
C 31.909 17.00656 -0.02474
C 31.84587 15.55761 0.00369
C 33.16288 14.90516 0.00455
C 33.07123 23.42611 0.01927
C 33.12419 13.47364 -0.00644
C 30.6532 0.65757 0.00307
C 29.55727 2.77577 0.02108
C 30.54856 22.02265 -0.01415
C 29.38562 21.33674 -0.03039
C 29.36412 19.84972 0.01836
C 30.63928 19.16083 0.03531
C 30.70301 17.7107 -0.00669
C 29.40662 17.01571 0.0101
C 29.36183 15.62883 0.01705
C 30.61853 14.89963 -0.0405
C 30.69597 2.08207 0.00716
C 30.6863 13.39575 -0.01303
C 29.40204 11.28658 -0.02155
C 30.67639 10.57213 -0.00944
C 30.73854 9.22155 -0.03735
C 29.50572 8.42243 -0.00971
C 29.58816 7.02789 0.01518
C 30.81022 6.35327 0.01908
C 30.84599 4.88136 0.07705
C 29.5381 4.23014 0.0103
C 29.47094 12.67136 -0.01461
C 31.89837 12.78064 -0.01839
C 31.88446 11.36259 0.00137
C 33.15847 10.68703 0.00199
C 1.14508 19.25322 -0.01678
C 1.11141 17.84876 0.01223
C 34.35003 17.05576 0.00648
C 34.37055 15.62135 0.02114
C 1.14249 14.96317 -0.02957
C 1.16528 13.60996 0.00343
C 34.37174 12.76454 -0.02656
C 34.42159 11.43945 -0.02442
C 34.31391 19.95158 0.01951
C 1.21277 10.69226 -0.00027
C 34.37438 8.55341 -0.02302
C 34.39939 7.14338 -0.02849
C 1.11817 6.44774 0.02931
C 1.24246 4.99664 0.00628
C 34.43116 4.32024 -0.0345
C 34.42517 2.88454 -0.00931
C 1.21372 2.1724 -0.00939
C 1.21691 0.75904 -0.00468
C 1.1479 9.29067 -0.00583
C 34.35148 21.35152 -0.02213
C 1.18391 22.02253 0.02712
C 1.19101 23.42863 0.00723
C 33.15157 9.28648 0.04381
C 32.04463 8.42769 0.02806
C 32.02562 7.05048 0.01504
C 33.25043 6.39177 -0.00069
C 33.22328 4.95733 0.04926
C 32.0183 4.21652 -0.03838
C 31.91307 2.87059 0.00349
C 33.18679 2.23195 -0.00323
C 33.15525 0.74401 -0.00841
C 31.92441 0.07081 0.0001
C 34.43052 32.69323 -0.02927
C 1.24829 32.02559 -0.01404
C 1.20099 30.56961 0.01027
C 34.40756 29.85423 0.01831
C 0.01782 28.49485 -0.01037
C 1.25939 27.71735 -0.00439
C 1.20828 26.26436 -0.00598
C 34.39588 25.53781 -0.05239
C 34.35821 24.10114 0.03076
C 30.69185 23.45567 -0.01854
C 3.73794 31.98549 0.01087
C 29.4608 24.14084 -0.02049
C 30.60534 26.29989 0.00261
C 19.60712 2.71514 -0.01107
C 20.77785 1.97074 -0.01586
C 20.84202 0.59959 -0.01971
C 19.54069 33.97376 -0.02118
C 22.15921 32.66054 0.00733
C 23.37523 31.97217 -0.00178
C 23.31447 30.56424 0.00768
C 22.07241 29.84228 -0.0276
C 19.6566 4.20659 0.00071
C 22.12308 28.43391 0.03005
C 23.41773 26.31739 0.02117
C 21.92164 2.88467 0.02737
C 23.23475 2.31462 -0.00498
C 23.25763 0.88953 0.00135
C 22.14048 34.07902 0.03102
C 24.4982 32.76299 0.02555
C 25.6902 32.04798 0.01423
C 25.72546 30.58552 -0.00285
C 23.33555 27.80835 -0.04078
C 24.54352 29.94242 -0.009
C 20.70413 26.25863 -0.00225
C 19.74955 28.55953 -0.0055
C 17.19238 28.34487 -0.01527
C 18.52726 27.79778 0.01087
C 18.55502 26.30755 0.00199
C 17.48139 25.72608 0.01511
C 18.55104 9.01992 -0.00478
C 17.2297 8.46702 -0.01662
C 17.27421 7.06373 -0.01185
C 18.49165 6.41923 0.01126
C 20.93114 27.70174 0.01515
C 18.55851 5.08599 0.01852
C 17.19956 2.81793 0.03046
C 18.42267 2.05605 0.0296
C 18.34559 0.63467 0.03374
C 17.13645 34.02332 -0.02845
C 19.61538 32.5739 -0.03213
C 20.8856 32.04085 0.02239
C 20.90868 30.6077 0.01153
C 19.69258 29.9027 0.02734
C 17.22799 4.29781 -0.00381
C 24.51595 28.5139 -0.01199
C 25.6902 27.78183 -0.00229
C 25.70479 26.34832 -0.00938
C 27.04074 11.32502 0.04185
C 28.15856 10.45307 0.00194
C 28.19827 9.12172 -0.00621
C 27.09406 8.18095 0.02611
C 27.14954 6.90308 0.02198
C 28.45406 6.23633 0.01094
C 28.3785 4.85899 0.00235
C 26.99229 4.28694 0.01495
C 27.12588 12.49074 0.02316
C 27.02485 2.8135 0.01259
C 28.19205 0.7466 0.01699
C 26.92246 0.0827 -0.00416
C 29.47252 32.68967 0.01177
C 30.78949 31.89411 0.04266
C 30.66652 30.5179 0.01324
C 29.39202 29.87494 0.0014
C 29.43929 28.46684 0.00924
C 30.68788 27.69707 0.02326
C 28.29265 2.12173 0.01799
C 28.14782 13.53115 0.01257
C 28.11443 14.91428 0.00152
C 28.11531 17.84463 -0.00294
C 24.4623 25.69385 -0.0264
C 25.96771 5.15757 -0.01154
C 24.86773 4.45487 0.00684
C 24.47756 3.02666 -0.01052
C 25.76427 2.2042 -0.01679
C 25.63139 0.75344 0.00367
C 24.52146 0.02465 0.04306
C 26.91955 32.71893 0.00996
C 28.21961 32.02983 0.00195
C 28.16026 30.64681 -0.00802
C 26.97271 29.91123 -0.00218
C 27.07919 28.42928 -0.01654
C 28.30804 27.71448 -0.00037
C 28.21581 26.32308 -0.0032
C 26.81203 25.64098 0.00622
C 26.90533 24.24023 -0.02815
C 28.09828 23.5222 -0.00942
C 28.07088 22.0948 0.00487
C 28.28512 19.01159 0.00826
C 29.41056 25.5991 0.03265
C 2.52397 32.69868 -0.05697
