354
Graphene
C 0.0144 0.02254 0.01295
C 12.34411 7.05164 -0.02696
C 13.50365 6.43328 -0.00114
C 13.52525 5.00775 0.00228
C 12.31188 4.24365 0.00798
C 12.31321 2.89733 0.00422
C 13.54863 2.12231 0.0351
C 13.47721 0.66231 -0.03113
C 12.26479 34.05518 0.02098
C 12.28439 8.43831 -0.00368
C 14.75824 32.61775 0.01848
C 16.02903 30.55562 -0.02162
C 14.74745 29.82463 0.00889
C 15.96627 17.7236 -0.00481
C 14.80955 17.0288 0.00979
C 14.74001 15.69863 0.01443
C 15.98592 14.87492 0.03505
C 15.98372 13.42914 -0.02815
C 14.72682 12.77014 -0.04147
C 16.03696 31.9134 -0.00619
C 14.71277 11.36578 -0.05302
C 13.50895 9.26169 -0.0108
C 12.30513 11.30439 0.02058
C 11.05063 10.6919 -0.0014
C 11.01743 9.27937 0.02162
C 9.8566 8.53159 0.0076
C 9.85576 7.10717 0.01241
C 11.09214 6.38048 -0.01454
C 11.07293 4.98313 0.01945
C 9.81608 4.29674 0.01416
C 9.8468 2.83732 0.03542
C 13.5367 10.66776 -0.01957
C 11.11113 2.18842 0.02299
C 9.82948 0.0074 -0.01717
C 12.30064 32.69543 0.05265
C 13.52446 31.8741 -0.01952
C 13.55253 30.49373 -0.02813
C 12.32495 15.62086 0.00374
C 13.56768 14.89908 0.00052
C 13.53009 13.45955 -0.03682
C 12.30441 12.80615 0.01965
C 11.09456 0.67531 0.00244
C 9.77085 11.3613 0.00415
C 15.9895 10.6295 0.00213
C 14.81709 8.52658 -0.00289
C 17.22602 8.52385 0.00143
C 17.23804 7.10868 -0.017
C 18.42538 6.48914 0.00364
C 18.45137 4.99852 -0.00831
C 17.20607 4.22891 -0.02957
C 17.21227 2.82808 -0.04422
C 18.44676 2.18706 0.00654
C 18.43417 0.66447 -0.00703
C 18.41399 9.24667 0.00667
C 17.21678 0.0165 -0.04076
C 20.92838 31.92439 0.0058
C 20.95173 30.56841 -0.00865
C 19.69775 29.78909 0.00675
C 19.70432 28.39371 -0.00311
C 20.89395 27.68963 0.00742
C 19.69675 19.77209 -0.01594
C 20.87943 19.16112 0.0106
C 20.87799 17.74775 -0.01154
C 19.71759 32.63468 -0.00652
C 15.99798 9.19647 -0.00066
C 18.44857 10.67158 -0.0054
C 17.19552 12.75951 0.01739
C 14.76566 7.11173 0.00028
C 15.9568 6.42095 -0.02213
C 15.96846 5.00228 0.03698
C 14.73703 4.23473 -0.00109
C 14.77473 2.78513 -0.00491
C 15.98282 2.11841 0.03338
C 16.00425 0.72711 -0.0258
C 14.75245 0.0063 -0.0331
C 17.23571 11.36433 0.00755
C 17.19606 32.68794 -0.00316
C 18.47166 30.48806 -0.01979
C 17.20857 29.84031 0.02691
C 18.48441 19.18297 -0.01581
C 18.4761 17.77683 0.01452
C 17.19601 17.03311 0.04892
C 17.20394 15.63054 -0.00111
C 18.40272 14.90785 -0.03557
C 18.4562 13.4831 0.03754
C 18.4018 31.95414 0.02188
C 9.84123 12.77907 -0.02162
C 11.1162 13.47333 0.01363
C 11.05673 14.9069 0.01877
C 2.46122 7.04119 0.00054
C 3.66147 6.35393 0.03007
C 3.69932 4.93722 -0.00095
C 2.40405 4.24953 0.01572
C 2.45974 2.82488 -0.04848
C 3.74064 2.13847 -0.00892
C 3.6469 0.75942 -0.01362
C 2.46626 34.07345 -0.0008
C 2.44224 8.49375 -0.00494
C 4.91428 32.67643 0.0288
C 6.16539 30.57544 0.00895
C 4.9284 29.79409 0.00685
C 4.91468 28.39342 0.02888
C 6.11672 27.71777 -0.00482
C 4.86835 25.50689 -0.01384
C 4.9253 24.17178 0.03693
C 4.89044 21.32505 0.01745
C 4.92759 19.85922 0.00488
C 6.1644 31.99674 0.00393
C 6.11515 19.1897 -0.01004
C 3.68828 9.22181 -0.00562
C 2.4191 11.42472 0.01849
C 3.70796 30.54459 -0.01343
C 2.44107 29.80911 0.00988
C 2.41454 28.41355 0.0276
C 3.64608 27.73131 0.01305
C 3.71657 26.2501 -0.00077
C 2.50709 25.5882 0.03368
C 2.46882 24.1201 -0.02929
C 3.76005 23.41574 -0.00966
C 3.72379 10.65463 -0.01142
C 3.63429 21.99105 -0.03337
C 2.47354 19.97795 0.00873
C 3.69087 19.16622 -0.00049
C 3.71258 17.73121 0.00848
C 2.46574 17.06075 -0.01303
C 2.50403 15.63948 -0.01378
C 3.68262 14.8764 0.02635
C 3.72885 13.4874 0.0127
C 2.39532 12.74226 0.01396
C 2.43709 21.36516 0.01227
C 6.11857 17.82196 -0.02896
C 4.90771 17.06694 -0.00131
C 4.96198 15.63281 -0.01118
C 7.36265 12.734 0.02841
C 7.40247 11.36472 -0.01111
C 8.62633 10.71542 -0.01275
C 8.61077 9.2631 0.00985
C 7.36647 8.53241 -0.02245
C 7.33456 7.07848 -0.00428
C 8.5919 6.37825 0.03101
C 8.62175 4.96413 -0.01536
C 8.60418 13.45332 0.00943
C 7.37573 4.27663 -0.02689
C 8.64851 2.17058 -0.00891
C 8.59442 0.70861 0.02819
C 7.42218 0.00956 0.00165
C 9.8803 32.67474 -0.02971
C 11.08403 31.97067 0.02894
C 11.02262 30.47198 -0.01789
C 9.80937 17.01502 0.00444
C 9.79137 15.63986 -0.00925
C 7.36685 2.81908 -0.01046
C 8.59432 14.91106 0.00406
C 7.34015 15.66907 0.03592
C 7.35185 17.05292 0.00572
C 6.15775 14.86611 -0.014
C 6.12738 13.51563 0.02147
C 4.91457 12.81243 0.00373
C 4.95232 11.40036 -0.00191
C 6.16704 10.63959 0.00438
C 6.14058 9.24497 0.01291
C 4.95844 8.54726 0.00093
C 4.91656 7.09734 0.00057
C 6.12119 6.43857 -0.01634
C 6.20089 4.9763 -0.00334
C 4.94043 4.31466 0.02339
C 4.9298 2.88198 0.01641
C 6.2029 2.18105 -0.00719
C 6.11547 0.79372 0.01364
C 4.91265 0.06948 -0.01062
C 7.38488 32.68051 -0.00033
C 8.54982 31.94537 0.03589
C 8.60023 30.54082 -0.02759
C 7.40808 29.83141 0.0402
C 19.67852 17.02972 -0.01721
C 19.62771 15.64457 -0.02422
C 20.8798 14.93183 0.01277
C 20.88799 13.47849 0.00096
C 30.67768 4.95951 0.01713
C 29.48188 4.28389 -0.01694
C 29.52062 2.81125 0.01428
C 30.77031 2.10639 -0.02142
C 30.7292 0.74432 0.0544
C 29.49568 0.02608 0.00026
C 32.00065 32.70249 0.00682
C 33.20747 31.90378 -0.01779
C 30.73603 6.3851 0.00346
C 33.1688 30.53036 0.03794
C 31.99624 28.38369 0.01574
C 33.21364 27.72521 -0.02383
C 33.14332 26.27846 -0.01429
C 31.93835 25.56812 -0.0136
C 31.9333 24.1017 0.00594
C 33.2103 23.47558 -0.02474
C 33.18145 21.9963 0.00369
C 33.22935 14.91184 0.00455
C 31.99509 29.78121 0.01927
C 33.21142 13.48048 -0.00644
C 29.51176 7.10271 0.00307
C 30.78215 9.24089 0.02108
C 27.06725 4.31522 -0.01415
C 27.07406 2.84686 -0.03039
C 28.28317 2.1172 0.01836
C 28.26434 0.6976 0.03531
C 27.01786 0.0243 -0.00669
C 29.53885 32.65858 0.0101
C 30.75788 31.91 0.01705
C 30.82098 30.51173 -0.0405
C 29.51364 8.51837 0.00716
C 29.51944 29.84327 -0.01303
C 30.77125 27.69315 -0.02155
C 30.74051 26.24676 -0.00944
C 29.50758 25.58279 -0.03735
C 29.48518 24.14789 -0.00971
C 30.7895 23.46906 0.01518
C 29.53142 12.73431 0.01908
C 29.54657 11.35091 0.07705
C 30.73756 10.6436 0.0103
C 29.50047 28.43827 -0.01461
C 31.9578 12.73875 -0.01839
C 31.92503 11.35534 0.00137
C 33.22173 10.61109 0.00199
C 1.2101 19.15373 -0.01678
C 1.19375 17.75814 0.01223
C 34.42541 16.99495 0.00648
C 34.3786 15.63947 0.02114
C 1.22293 14.91519 -0.02957
C 1.2385 13.45734 0.00343
C 0.03199 12.74424 -0.02656
C 34.41429 11.39235 -0.02442
C 0.05515 19.87269 0.01951
C 1.21754 10.62493 -0.00027
C 0.00182 8.53186 -0.02302
C 0.02536 7.08438 -0.02849
C 1.19004 6.35857 0.02931
C 1.2243 4.93794 0.00628
C 34.43007 4.23896 -0.0345
C 34.42691 2.83557 -0.00931
C 1.26505 2.18877 -0.00939
C 1.23764 0.7136 -0.00468
C 1.26437 9.26195 -0.00583
C 34.38153 21.30923 -0.02213
C 1.21402 22.03315 0.02712
C 1.22325 23.43643 0.00723
C 33.22099 9.26811 0.04381
C 32.00915 8.50735 0.02806
C 31.93494 7.0805 0.01504
C 33.19396 6.42027 -0.00069
C 33.20696 4.98357 0.04926
C 31.99783 4.30953 -0.03838
C 31.94876 2.80772 0.00349
C 33.16954 2.09973 -0.00323
C 33.19488 0.68895 -0.00841
C 32.02593 0.0022 0.0001
C 34.38043 32.62879 -0.02927
C 1.1873 31.97364 -0.01404
C 1.22031 30.4944 0.01027
C 34.39847 29.81556 0.01831
C 34.43226 28.37657 -0.01037
C 1.2274 27.71363 -0.00439
C 1.24763 26.30523 -0.00598
C 0.00034 25.58486 -0.05239
C 34.42757 24.14315 0.03076
C 28.25622 4.95443 -0.01854
C 3.64356 31.9829 0.01087
C 28.28479 6.36382 -0.02049
C 27.06373 8.47346 0.00261
C 23.36422 23.41333 -0.01107
C 23.33817 22.02801 -0.01586
C 22.14182 21.33421 -0.01971
C 22.11448 19.93121 -0.02118
C 23.32059 19.1716 0.00733
C 23.33601 17.73752 -0.00178
C 22.1113 17.07462 0.00768
C 22.15012 15.64283 -0.0276
C 22.13547 24.20519 0.00071
C 23.33311 14.89385 0.03005
C 22.09575 12.77955 0.02117
C 22.13874 11.3826 0.02737
C 23.37754 10.73447 -0.00498
C 23.36544 9.21149 0.00135
C 22.13789 8.48622 0.03102
C 22.07417 7.06776 0.02555
C 23.36418 6.41318 0.01423
C 23.40373 4.95913 -0.00285
C 23.28931 13.43449 -0.04078
C 22.11788 4.25341 -0.009
C 22.14011 25.54833 -0.00225
C 23.34653 27.64785 -0.0055
C 19.64208 12.79815 -0.01527
C 19.71057 11.30677 0.01087
C 20.92936 10.62879 0.00199
C 20.92076 9.23096 0.01511
C 19.65915 8.50924 -0.00478
C 19.68007 7.06357 -0.01662
C 20.87936 6.35841 -0.01185
C 20.90242 4.93735 0.01126
C 23.36271 26.28175 0.01515
C 19.69993 4.21612 0.01852
C 20.9004 2.14307 0.03046
C 20.85388 0.70984 0.0296
C 19.61684 34.04858 0.03374
C 22.13801 32.60338 -0.02845
C 23.33789 31.95603 -0.03213
C 23.40725 30.55722 0.02239
C 22.18123 29.81513 0.01153
C 22.03155 28.38482 0.02734
C 19.63671 2.7818 -0.00381
C 22.15518 2.81427 -0.01199
C 23.35299 2.13019 -0.00229
C 23.41653 0.69667 -0.00938
C 24.63246 2.79319 0.04185
C 25.86301 2.12294 0.00194
C 25.81824 0.72654 -0.00621
C 24.62864 34.04572 0.02611
C 27.02246 32.63357 0.02198
C 28.28571 31.96458 0.01094
C 28.32891 30.4899 0.00235
C 27.10522 29.78767 0.01495
C 24.56613 4.20661 0.02316
C 27.05764 28.40322 0.01259
C 28.28719 26.2703 0.01699
C 27.05455 25.53515 -0.00416
C 27.07079 24.14609 0.01177
C 28.27654 23.40742 0.04266
C 27.02619 12.80387 0.01324
C 27.09619 11.3463 0.0014
C 28.32971 10.64206 0.00924
C 28.3251 9.23642 0.02326
C 28.29114 27.71059 0.01799
C 25.85496 4.91942 0.01257
C 25.80833 6.38179 0.00152
C 24.60101 7.12604 -0.00294
C 22.10841 0.05371 -0.0264
C 24.59769 32.67229 -0.01154
C 25.81612 31.96643 0.00684
C 25.79688 30.52217 -0.01052
C 24.61812 29.80097 -0.01679
C 24.60903 28.42367 0.00367
C 25.82873 27.75473 0.04306
C 25.81528 26.24436 0.00996
C 24.61522 25.60454 0.00195
C 24.62907 24.15413 -0.00802
C 25.87014 23.42871 -0.00218
C 25.73762 21.98019 -0.01654
C 24.63484 21.31227 -0.00037
C 25.85632 13.46471 -0.0032
C 24.69183 12.81445 0.00622
C 24.58811 11.36984 -0.02815
C 25.83191 10.63026 -0.00942
C 25.82377 9.20105 0.00487
C 24.51607 8.52581 0.00826
C 26.99656 7.08704 0.03265
C 2.41806 32.67329 -0.05697
