420
Graphene
C 0.0221 0.02399 0.01295
C 12.34853 15.57627 0.00406
C 13.48829 14.99235 0.00943
C 12.27511 4.30321 0.02841
C 12.317 2.85954 -0.01111
C 13.57873 2.18025 -0.01275
C 13.54726 0.75431 0.00985
C 12.25787 34.05325 -0.02245
C 14.71205 32.63742 -0.00428
C 15.94723 31.83003 0.03101
C 15.98453 30.48216 -0.01536
C 12.33622 17.10216 0.03592
C 14.78295 29.77996 -0.02689
C 16.02451 27.65527 -0.00891
C 16.03188 26.24529 0.02819
C 14.74664 25.65819 0.00165
C 14.78609 24.13926 -0.02971
C 15.99233 23.3602 0.02894
C 15.91829 21.96167 -0.01789
C 14.79187 21.23125 0.00444
C 14.70459 19.85668 -0.00925
C 15.95467 19.20014 0.01877
C 15.99252 17.69927 0.01363
C 14.74249 28.43621 -0.01046
C 14.66911 17.09127 -0.02162
C 13.53976 17.8032 0.00572
C 12.32374 19.90187 -0.02759
C 11.07533 19.19924 0.00488
C 11.07303 17.77875 -0.01004
C 9.81708 17.08445 -0.02896
C 9.88333 15.62625 -0.00131
C 11.09369 14.9397 -0.01118
C 9.85062 4.33581 -0.014
C 9.80153 2.8798 0.02147
C 11.04071 2.20254 0.00373
C 11.08936 0.66792 -0.00191
C 9.85956 34.05673 0.00438
C 13.54105 19.20193 0.0402
C 12.37748 32.64922 0.01291
C 13.5057 30.46408 0.00057
C 12.28411 29.85733 -0.01634
C 12.31912 28.38435 -0.00334
C 13.47945 27.69217 0.02339
C 13.56566 26.28787 0.01641
C 12.39442 25.58364 -0.00719
C 12.30297 24.18768 0.01364
C 13.55371 23.47453 -0.01062
C 13.48318 22.11992 -0.00033
C 12.28419 21.32869 0.03589
C 13.51152 31.87318 0.00093
C 14.73111 15.57489 0.00415
C 15.98719 14.96241 -0.0014
C 16.01099 13.49155 0.02162
C 18.38727 10.63514 0.02098
C 18.45071 9.21903 0.01848
C 17.25988 7.08516 -0.00619
C 18.47512 6.48036 -0.02162
C 18.44491 4.93356 0.00889
C 17.22804 4.2756 -0.00481
C 17.22184 2.83361 0.00979
C 18.47507 2.0785 0.01443
C 18.38126 0.7064 0.03505
C 17.1696 34.06291 -0.02815
C 17.23663 11.29627 -0.03113
C 19.70596 32.64292 -0.04147
C 20.88254 30.57105 0.00213
C 19.63403 29.80924 -0.00066
C 19.62466 28.40014 -0.00289
C 20.85306 27.7486 0.00028
C 20.89932 26.32156 -0.02213
C 19.66942 25.56392 0.03698
C 19.72527 24.09153 -0.00109
C 20.92255 23.40733 -0.00491
C 20.92022 22.01909 0.03338
C 19.66871 21.33253 -0.0258
C 20.94767 31.97301 -0.05302
C 17.18207 12.7476 0.0351
C 18.44804 13.45193 0.00422
C 18.41623 14.88826 0.00798
C 15.9279 4.91902 0.0076
C 14.85523 4.30872 0.01241
C 14.72669 2.86806 -0.01454
C 15.94918 2.14821 0.01945
C 15.92534 0.73607 0.01416
C 14.74067 34.07603 0.03542
C 17.16066 32.6432 0.02299
C 18.46525 31.97239 0.00244
C 18.47873 30.50962 -0.01717
C 17.19615 29.7868 0.05265
C 17.21786 28.32957 -0.01952
C 18.40619 27.64646 -0.02813
C 18.4479 26.23292 0.00374
C 17.18148 25.51349 0.00052
C 17.25253 24.10883 -0.03682
C 18.50778 23.43592 0.01965
C 18.41228 22.05833 0.02058
C 17.23088 21.26303 -0.01957
C 17.1804 19.88857 -0.0108
C 18.41577 19.17032 -0.00368
C 18.46372 17.78753 -0.02696
C 17.24228 16.98586 -0.00114
C 17.20354 15.63061 0.00228
C 9.79463 19.91077 0.01745
C 19.62877 19.89047 -0.0331
C 9.83119 21.3 0.03693
C 11.06067 23.49245 -0.00482
C 2.48961 2.79197 -0.00561
C 3.69784 2.1628 0.00208
C 3.72169 0.75277 0.01707
C 2.49669 0.0171 0.02769
C 4.86499 32.72737 -0.03291
C 6.1583 31.95753 -0.04999
C 6.13582 30.4939 0.04505
C 4.89792 29.79303 0.03284
C 4.87092 28.41323 -0.04307
C 6.17745 27.62495 0.03189
C 2.49987 4.27129 -0.01977
C 6.10851 26.23973 0.00031
C 4.97883 24.1175 0.01402
C 6.15823 23.43472 0.02379
C 6.09456 22.00632 0.00907
C 4.89239 21.4033 0.00643
C 4.91538 19.9024 -0.01509
C 6.17675 19.15364 0.03267
C 6.15741 17.76656 0.02374
C 4.99181 17.02469 0.00402
C 4.90254 15.58205 0.0073
C 6.19433 14.89595 0.0174
C 4.82706 25.50403 -0.003
C 6.12957 13.56466 0.03828
C 3.63773 5.01712 0.02784
C 2.44051 7.09562 -0.00449
C 3.72616 30.54132 0.00748
C 2.462 29.72734 0.00662
C 2.48958 28.37611 -0.0154
C 3.70751 27.73076 -0.01299
C 3.68048 26.30877 -0.00407
C 2.46947 25.54136 0.01138
C 2.4227 24.07134 0.03278
C 3.68271 23.40094 -0.00177
C 3.71267 22.01375 0.04421
C 2.4559 21.29259 0.00088
C 3.68577 6.4174 -0.01979
C 2.46328 19.95776 0.00828
C 3.66648 17.76235 0.00558
C 2.52043 17.02754 -0.0059
C 2.52188 15.61397 -0.01386
C 3.72701 14.92875 -0.02805
C 3.65353 13.36506 0.00081
C 2.43924 12.76328 0.00245
C 2.39397 11.37553 0.02728
C 3.60152 10.58752 -0.00039
C 3.68596 9.20927 0.0064
C 2.43922 8.5278 0.00211
C 3.66842 19.21597 -0.02375
C 4.9497 12.72782 0.01226
C 4.86728 11.37518 -0.00279
C 6.14931 10.70752 0.01996
C 8.65799 14.93569 -0.01303
C 8.5853 13.53612 -0.01378
C 7.43408 12.77759 0.02635
C 7.39876 11.40212 0.0127
C 7.34512 8.534 0.01396
C 7.37896 7.17127 0.01849
C 8.67159 6.38413 -0.01142
C 8.63515 5.04131 -0.00562
C 7.3764 4.27604 -0.00494
C 7.4113 2.87484 0.00054
C 7.33914 15.70119 0.00848
C 8.58724 2.14805 0.03007
C 7.38808 0.00048 0.01572
C 9.77671 32.65796 -0.04848
C 11.07124 31.98894 -0.00892
C 11.07665 30.53434 -0.01362
C 9.84243 29.813 -0.0008
C 9.81359 28.45889 0.0288
C 11.04471 27.75679 0.00393
C 11.09637 26.29862 0.00895
C 9.77119 25.57632 0.00685
C 9.78632 24.19203 0.02888
C 8.61216 0.66912 -0.00095
C 7.41246 17.04158 -0.00049
C 8.56059 17.82104 0.00873
C 8.56642 19.20268 0.01227
C 6.21788 9.30375 -0.03996
C 4.94462 8.47558 0.01465
C 4.91856 7.11165 -0.00074
C 6.10042 6.38713 -0.00518
C 6.17049 4.96968 0.0086
C 4.88629 4.31864 -0.00643
C 4.83808 2.8637 0.017
C 6.09576 2.13991 -0.03113
C 6.11798 0.66578 -0.02566
C 4.92461 0.04894 -0.00094
C 7.3285 32.65853 0.02322
C 8.59297 31.97818 -0.00725
C 8.60806 30.50355 -0.05697
C 7.36859 29.81686 0.01087
C 7.36374 28.4231 -0.01343
C 8.64257 27.71543 0.00988
C 8.61298 26.33933 0.0276
C 7.35214 25.56158 0.01305
C 7.36478 24.16364 -0.00077
C 8.58045 23.44125 0.03368
C 8.55971 22.0761 -0.02929
C 7.41743 21.30042 -0.00966
C 7.38235 19.8436 -0.03337
C 11.11149 21.98268 -0.01384
C 20.88739 19.20565 -0.00316
C 20.9054 17.79074 0.02188
C 19.70685 17.05292 -0.01979
C 29.50329 11.34541 -0.02155
C 30.73209 10.64003 -0.00944
C 30.72659 9.24875 -0.03735
C 29.55838 8.56702 -0.00971
C 29.5369 7.02384 0.01518
C 30.78452 6.35705 0.01908
C 30.76161 4.98556 0.07705
C 29.50646 4.30264 0.0103
C 29.52512 2.79789 0.02108
C 30.69182 2.13792 0.00716
C 29.56837 12.73777 -0.01461
C 30.69034 0.65971 0.00307
C 31.93744 32.69581 0.01713
C 33.15213 31.92209 -0.01694
C 33.16136 30.5522 0.01428
C 31.96505 29.8162 -0.02142
C 32.00645 28.34044 0.0544
C 33.2534 27.68504 0.00026
C 33.20076 26.31548 0.00682
C 32.03072 25.54096 -0.01779
C 31.98206 24.06358 0.03794
C 33.22203 23.43077 0.01927
C 29.53668 34.03418 0.00346
C 33.18634 22.0025 0.01574
C 30.76518 13.47226 -0.01303
C 29.51942 15.61751 0.01705
C 28.27037 4.98096 0.00235
C 27.07377 4.33267 0.01495
C 27.04549 2.85575 0.01259
C 28.31983 2.1842 0.01799
C 28.24798 0.73316 0.01699
C 27.05805 34.07703 -0.00416
C 29.50951 32.62949 0.01177
C 30.77987 31.98204 0.04266
C 30.77994 30.51357 0.01324
C 29.48242 29.76849 0.0014
C 30.75927 14.94172 -0.0405
C 29.52248 28.40418 0.00924
C 30.76975 26.31347 0.00261
C 29.46654 25.4514 0.03265
C 29.46329 24.08038 -0.02049
C 30.73582 23.42593 -0.01854
C 30.82307 22.02328 -0.01415
C 29.47389 21.2646 -0.03039
C 29.4538 19.8826 0.01836
C 30.72607 19.11743 0.03531
C 30.70976 17.72439 -0.00669
C 29.49312 16.9687 0.0101
C 30.7555 27.74528 0.02326
C 31.98611 21.34541 -0.02383
C 31.97422 19.88413 -0.01429
C 33.20472 19.16477 -0.0136
C 1.17359 23.41406 0.00723
C 1.15304 22.03568 0.02712
C 34.42659 21.31129 -0.02213
C 0.04811 19.83475 0.01951
C 1.24449 19.16903 -0.01678
C 1.19205 17.79367 0.01223
C 34.4245 17.07547 0.00648
C 34.42619 15.6792 0.02114
C 1.20806 14.93035 -0.02957
C 1.19525 13.48683 0.00343
C 34.42778 24.2015 0.03076
C 0.01252 12.76408 -0.02656
C 1.22302 10.65781 -0.00027
C 1.20123 9.20139 -0.00583
C 34.40202 8.51718 -0.02302
C 34.3932 7.11452 -0.02849
C 1.20109 6.45453 0.02931
C 1.2211 4.89923 0.00628
C 34.41715 4.21303 -0.0345
C 34.38071 2.8093 -0.00931
C 1.23796 2.15252 -0.00939
C 1.28933 0.72789 -0.00468
C 34.34369 11.28868 -0.02442
C 34.39661 25.57861 -0.05239
C 1.25911 26.25087 -0.00598
C 1.2265 27.62976 -0.00439
C 33.16634 17.77718 0.00594
C 32.00416 16.99237 -0.02474
C 32.01804 15.6025 0.00369
C 33.25336 14.90635 0.00455
C 33.19212 13.45504 -0.00644
C 31.99223 12.70834 -0.01839
C 31.9439 11.32399 0.00137
C 33.14034 10.6285 0.00199
C 33.20328 9.22598 0.04381
C 32.01521 8.51083 0.02806
C 31.95627 7.14651 0.01504
C 33.10607 6.39079 -0.00069
C 33.13279 4.94626 0.04926
C 31.96746 4.2046 -0.03838
C 31.92919 2.83614 0.00349
C 33.23306 2.101 -0.00323
C 33.22913 0.69201 -0.00841
C 31.87389 0.00791 0.0001
C 34.36562 32.60039 -0.02927
C 1.24489 31.9366 -0.01404
C 1.23911 30.49862 0.01027
C 0.04113 29.77625 0.01831
C 0.05489 28.3441 -0.01037
C 28.32836 6.37323 0.01094
C 27.05271 7.09754 0.02198
C 27.07207 8.44142 0.02611
C 28.25179 9.20003 -0.00621
C 22.12383 21.32165 0.0106
C 22.18308 19.83093 -0.01154
C 23.44175 19.11735 -0.01721
C 23.32487 17.70062 -0.02422
C 22.10731 17.01569 0.01277
C 22.14578 15.61472 0.00096
C 23.34433 14.8717 -0.01527
C 23.40954 13.49807 0.01087
C 22.10217 12.7618 0.00199
C 22.16154 11.38165 0.01511
C 23.39663 21.99874 -0.01594
C 23.43136 10.67667 -0.00478
C 22.17432 8.55984 -0.01185
C 22.15069 7.12568 0.01126
C 23.40696 6.30395 0.01852
C 23.34587 4.95476 -0.00381
C 22.14722 4.28893 0.03046
C 22.11701 2.9067 0.0296
C 23.33465 2.12777 0.03374
C 23.3533 0.73382 -0.02845
C 22.09181 0.03602 -0.03213
C 24.59235 32.66598 0.02239
C 23.40729 9.26307 -0.01662
C 23.35351 23.49241 0.00742
C 22.13087 24.09703 -0.00311
C 22.15751 25.60916 0.00675
C 19.73 15.62007 0.02691
C 20.94713 14.87431 -0.01581
C 20.841 13.44926 0.01452
C 19.68939 12.79328 0.04892
C 19.67842 11.32855 -0.00111
C 21.04473 10.68803 -0.03557
C 20.8895 9.26176 0.03754
C 19.67711 8.51539 0.01739
C 19.70552 7.08873 0.00755
C 20.81927 6.40277 -0.0054
C 20.82746 4.98037 0.00667
C 19.6163 4.25022 0.00143
C 19.65798 2.83178 -0.017
C 20.94127 2.1072 0.00364
C 20.81997 0.68544 -0.00831
C 19.65533 0.0084 -0.02957
C 22.09933 32.69599 -0.04422
C 23.32511 31.93797 0.00654
C 23.32152 30.56093 -0.00703
C 22.12 29.82784 -0.04076
C 22.15381 28.38473 -0.00652
C 23.37409 27.69759 0.0058
C 23.39149 26.18164 -0.00865
C 25.84323 31.93953 0.01153
C 3.6962 31.91378 0.03345
C 25.81458 30.52376 0.02734
C 24.68481 28.47242 0.01515
C 27.07484 32.64928 -0.01052
C 28.24346 31.8788 -0.01679
C 28.28058 30.49212 0.00367
C 27.03241 29.86269 0.04306
C 27.02274 28.43908 0.00996
C 28.28529 27.68157 0.00195
C 28.34663 26.30377 -0.00802
C 27.08281 25.60512 -0.00218
C 27.03634 24.1671 -0.01654
C 28.24515 23.3633 -0.00037
C 24.59941 0.06573 0.00684
C 28.29504 21.99999 -0.0032
C 27.01072 19.84977 -0.02815
C 28.24032 19.12893 -0.00942
C 28.26959 17.70558 0.00487
C 27.00533 17.03677 0.00826
C 27.05393 15.61785 -0.00294
C 28.30711 14.8956 0.00152
C 28.27808 13.53647 0.01257
C 27.10206 12.80789 0.02316
C 27.02176 11.35191 0.04185
C 28.30065 10.61741 0.00194
C 27.05885 21.30321 0.00622
C 25.84423 0.77104 -0.01154
C 25.85152 2.12155 -0.0264
C 24.5707 2.80045 -0.00938
C 25.89798 27.72092 -0.00225
C 25.78196 26.33564 0.00071
C 24.61567 25.57172 -0.01107
C 24.60718 24.17786 -0.01586
C 25.82447 23.40776 -0.01971
C 25.82164 21.93752 -0.02118
C 24.55296 21.23025 0.00733
C 24.63459 19.85799 -0.00178
C 25.80843 19.14623 0.00768
C 25.75133 17.77211 -0.0276
C 24.56684 17.03455 0.03005
C 24.53366 15.63137 -0.04078
C 25.83099 14.90224 0.02117
C 25.78722 13.42629 0.02737
C 24.5771 12.7841 -0.00498
C 24.60576 11.40946 0.00135
C 25.83222 10.69294 0.03102
C 25.81532 9.12631 0.02555
C 24.60994 8.50673 0.01423
C 24.58702 7.14519 -0.00285
C 25.81029 6.39569 -0.009
C 25.81284 5.02249 -0.01199
C 24.61317 4.22974 -0.00229
C 24.58906 29.79928 -0.0055
C 2.48495 32.6504 -0.00112
