408
Graphene
C 34.37995 0.04407 0.01295
C 13.44859 30.62106 -0.01536
C 12.16959 29.91699 -0.02689
C 12.27762 28.41034 -0.01046
C 13.50357 27.66374 -0.00891
C 13.46692 26.24149 0.02819
C 12.22869 25.54331 0.00165
C 12.27557 24.10054 -0.02971
C 13.53051 23.44846 0.02894
C 13.508 22.01442 -0.01789
C 12.29601 21.29084 0.00444
C 12.2133 19.9088 -0.00925
C 13.42956 19.15301 0.01877
C 13.50853 17.63683 0.01363
C 12.30209 16.98064 -0.02162
C 12.32879 15.55037 0.00415
C 13.58903 14.89398 -0.0014
C 13.54046 13.41798 0.02162
C 12.32923 12.66263 0.0076
C 12.33171 11.09115 0.01241
C 13.1831 9.80158 -0.01454
C 12.3503 8.82573 0.01945
C 13.44206 31.98538 0.03101
C 12.20008 32.76154 -0.00428
C 9.74173 0.09465 -0.02245
C 10.97541 0.84909 0.00985
C 9.80952 24.20315 0.00438
C 11.05987 23.39254 0.01291
C 11.09176 22.02431 0.00093
C 9.87459 21.32784 0.00057
C 9.79557 19.85425 -0.01634
C 10.98296 19.15406 -0.00334
C 11.06739 17.69042 0.02339
C 9.83519 17.03528 0.01641
C 9.80623 15.61461 -0.00719
C 11.13029 14.85902 0.01364
C 12.50837 7.31394 0.01416
C 11.10542 13.42065 -0.01062
C 9.7669 11.36596 0.03589
C 10.97056 10.65064 -0.02759
C 10.99842 9.3022 0.0402
C 9.8712 8.64408 0.00572
C 9.91318 7.17917 0.03592
C 11.17589 6.60693 0.00406
C 11.2236 5.21759 0.00943
C 9.87562 4.3842 0.02841
C 9.82197 3.0136 -0.01111
C 11.04589 2.24518 -0.01275
C 9.83944 12.84422 -0.00033
C 9.79324 25.57227 -0.00191
C 13.52641 6.44981 0.03542
C 12.40243 4.42093 0.00244
C 15.88895 2.00998 0.01443
C 15.87567 0.60796 0.03505
C 14.59033 34.06847 -0.02815
C 17.12297 32.66162 -0.04147
C 18.3741 31.92841 -0.05302
C 18.46168 30.48468 0.00213
C 17.1785 29.78964 -0.00066
C 17.16651 28.3271 -0.00289
C 18.40465 27.66055 0.00028
C 18.48067 26.26707 -0.02213
C 17.21972 25.51266 0.03698
C 17.19531 24.1822 -0.00109
C 18.40648 23.41811 -0.00491
C 18.42364 22.01849 0.03338
C 17.2055 21.24203 -0.0258
C 17.28484 19.85524 -0.0331
C 18.52856 19.13053 -0.00316
C 18.52072 17.76761 0.02188
C 17.23335 17.07535 -0.01979
C 17.27135 15.55123 0.02691
C 18.44551 14.94983 -0.01581
C 14.72499 2.89333 0.00979
C 14.97052 4.23808 -0.00481
C 14.76047 12.82462 0.00889
C 15.96859 13.46817 -0.02162
C 12.24298 2.98564 -0.01717
C 13.35545 2.1334 0.05265
C 13.39536 0.72744 -0.01952
C 12.17837 0.09265 -0.02813
C 14.64493 32.6855 0.00374
C 15.91259 31.98045 0.00052
C 15.89294 30.56573 -0.03682
C 14.67662 29.86668 0.01965
C 14.6942 28.43983 0.02058
C 15.89298 27.68876 -0.01957
C 13.79579 5.10943 0.02299
C 15.91787 26.2527 -0.0108
C 14.73572 24.2242 -0.02696
C 16.00046 23.42352 -0.00114
C 16.01755 22.00421 0.00228
C 14.76471 21.35216 0.00798
C 14.78697 19.82863 0.00422
C 16.01868 19.09556 0.0351
C 15.97779 17.65732 -0.03113
C 14.75135 16.97374 0.02098
C 14.82191 15.56318 0.01848
C 16.05861 14.83763 -0.00619
C 14.68775 25.60474 -0.00368
C 16.99038 2.85166 0.01452
C 11.01607 26.29566 0.00373
C 9.78927 28.4608 -0.014
C 2.4544 2.83245 0.01402
C 3.65023 2.15516 0.02379
C 3.62463 0.70883 0.00907
C 2.36905 0.05414 0.00643
C 4.86927 32.72404 -0.01509
C 6.09646 32.01002 0.03267
C 6.0621 30.56604 0.02374
C 4.79516 29.8364 0.00402
C 4.76997 28.40172 0.0073
C 6.05984 27.72723 0.0174
C 6.13063 26.34407 0.03828
C 4.86968 25.66171 0.01226
C 4.85686 24.15977 -0.00279
C 6.0356 23.50726 0.01996
C 6.13026 22.07709 -0.03996
C 4.92086 21.32828 0.01465
C 4.92406 19.90096 -0.00074
C 6.1201 19.20429 -0.00518
C 6.089 17.8197 0.0086
C 4.8593 17.14843 -0.00643
C 4.84795 15.6362 0.017
C 2.43217 4.22462 -0.003
C 3.59468 5.02397 0.00031
C 3.69176 6.48892 0.03189
C 2.46644 7.13958 -0.04307
C 3.59997 30.6019 0.00558
C 2.45939 29.78325 -0.0059
C 2.34734 28.3725 -0.01386
C 3.61901 27.60443 -0.02805
C 3.62149 26.2181 0.00081
C 2.40129 25.54779 0.00245
C 2.40689 24.23011 0.02728
C 3.60953 23.496 -0.00039
C 3.60625 22.05568 0.0064
C 2.34096 21.25119 0.00211
C 6.10906 15.02416 -0.03113
C 2.39823 19.86823 -0.00449
C 3.61412 17.81351 0.02784
C 2.38832 17.04601 -0.01977
C 2.43946 15.63899 -0.00561
C 3.63777 14.90944 0.00208
C 3.67695 13.45168 0.01707
C 2.38934 12.76183 0.02769
C 2.37131 11.44058 -0.03291
C 3.64041 10.73262 -0.04999
C 3.67303 9.29627 0.04505
C 2.47989 8.59759 0.03284
C 3.64104 19.26692 -0.01979
C 11.02407 27.75685 0.02147
C 6.16505 13.60147 -0.02566
C 4.96105 11.40805 0.02322
C 7.4583 17.17145 0.03007
C 7.40173 15.69675 -0.00095
C 8.64461 14.96325 0.01572
C 8.62162 13.56206 -0.04848
C 7.37246 12.86303 -0.00892
C 7.33418 11.41696 -0.01362
C 8.51814 10.61446 -0.0008
C 8.54002 9.26725 0.0288
C 7.27139 8.56012 0.00393
C 7.39398 7.1636 0.00895
C 8.67771 6.49447 0.00685
C 8.59581 5.10003 0.02888
C 7.33301 4.34751 -0.00482
C 7.40339 2.94339 -0.01384
C 8.61794 2.20909 0.03693
C 8.51814 0.84504 0.01745
C 7.35046 0.10115 0.00488
C 9.79631 32.76824 -0.01004
C 11.01068 31.99992 -0.02896
C 10.89877 30.54157 -0.00131
C 9.67384 29.87581 -0.01118
C 8.62478 17.80378 0.00054
C 8.61317 19.2413 -0.00494
C 7.3905 19.92288 -0.00562
C 7.32306 21.32 -0.01142
C 6.12155 10.70917 -0.00725
C 6.10865 9.28919 -0.05697
C 4.91761 8.57811 0.01087
C 4.88216 7.20588 -0.01343
C 6.16473 6.48286 0.00988
C 6.10158 4.9633 0.0276
C 4.81529 4.34104 0.01305
C 4.81914 2.92428 -0.00077
C 6.0719 2.25045 0.03368
C 6.07653 0.87642 -0.02929
C 4.96136 12.76293 -0.00094
C 4.87891 0.08708 -0.00966
C 8.496 32.13786 0.01227
C 8.47478 30.65368 0.00873
C 7.30375 29.93067 -0.00049
C 7.29743 28.48547 0.00848
C 8.50608 27.77526 -0.01303
C 8.61117 26.27477 -0.01378
C 7.34054 25.63719 0.02635
C 7.3342 24.16134 0.0127
C 8.63163 23.51823 0.01396
C 8.6177 22.02875 0.01849
C 7.29145 32.79907 -0.03337
C 18.36141 2.35832 0.04892
C 18.34716 0.82656 -0.00111
C 17.17811 0.04613 -0.03557
C 29.53939 8.49021 -0.00971
C 29.49539 6.99399 0.01518
C 30.73132 6.30363 0.01908
C 30.74904 4.90914 0.07705
C 29.55055 4.21333 0.0103
C 29.49786 2.73984 0.02108
C 30.76958 2.04483 0.00716
C 30.72771 0.65296 0.00307
C 29.48726 0.00883 0.00346
C 31.9495 32.66563 0.01713
C 33.11134 31.91332 -0.01694
C 33.08745 30.51887 0.01428
C 31.93073 29.79345 -0.02142
C 31.98955 28.38009 0.0544
C 33.17645 27.61128 0.00026
C 33.16706 26.2321 0.00682
C 31.88492 25.59865 -0.01779
C 31.81204 24.1342 0.03794
C 33.06541 23.39579 0.01927
C 33.0511 22.02821 0.01574
C 31.75734 21.30752 -0.02383
C 30.71592 9.17101 -0.03735
C 30.73956 10.63594 -0.00944
C 29.53316 11.30703 -0.02155
C 29.42213 12.74044 -0.01461
C 27.01043 4.32022 0.01799
C 27.03554 2.86548 0.01699
C 28.25409 2.10407 -0.00416
C 28.2582 0.68539 0.01177
C 27.00783 34.06218 0.04266
C 29.47061 32.62976 0.01324
C 30.69431 31.89184 0.0014
C 30.66768 30.48336 0.00924
C 29.39795 29.80595 0.02326
C 29.44948 28.39158 0.00261
C 31.85178 19.92184 -0.01429
C 30.68198 27.69223 0.03265
C 30.59914 23.52161 -0.01854
C 30.41248 22.11579 -0.01415
C 29.06837 21.35831 -0.03039
C 29.39425 19.97317 0.01836
C 30.6746 19.1562 0.03531
C 30.63449 17.72249 -0.00669
C 29.47055 17.07513 0.0101
C 29.43443 15.62075 0.01705
C 30.67157 14.89966 -0.0405
C 30.62247 13.4889 -0.01303
C 30.5583 26.26385 -0.02049
C 28.28476 4.90992 0.01259
C 33.1312 19.22075 -0.0136
C 31.94989 17.06396 -0.02474
C 1.18505 22.00706 0.02712
C 34.35498 21.32319 -0.02213
C 34.37881 19.90087 0.01951
C 1.16256 19.17927 -0.01678
C 1.10235 17.77496 0.01223
C 34.32649 17.02999 0.00648
C 34.37635 15.56115 0.02114
C 1.16086 14.96939 -0.02957
C 1.15804 13.56827 0.00343
C 0.00126 12.85126 -0.02656
C 34.40375 11.35665 -0.02442
C 1.15926 10.59407 -0.00027
C 1.17001 9.25071 -0.00583
C 0.01108 8.48429 -0.02302
C 34.41273 7.01381 -0.02849
C 1.25075 6.37256 0.02931
C 1.21721 4.93513 0.00628
C 0.03188 4.25759 -0.0345
C 34.40184 2.86189 -0.00931
C 1.14833 2.15018 -0.00939
C 1.16571 0.76977 -0.00468
C 1.27386 23.40547 0.00723
C 34.41489 24.08161 0.03076
C 34.33985 25.51455 -0.05239
C 1.11862 26.1931 -0.00598
C 31.97234 15.62176 0.00369
C 33.19324 14.87387 0.00455
C 33.16334 13.48109 -0.00644
C 31.94267 12.74653 -0.01839
C 31.94939 11.34582 0.00137
C 33.18705 10.62937 0.00199
C 33.24894 9.18246 0.04381
C 31.90427 8.58135 0.02806
C 31.96038 7.07294 0.01504
C 33.18433 6.3453 -0.00069
C 33.14284 17.78073 0.00594
C 33.29182 4.9447 0.04926
C 31.95389 2.79079 0.00349
C 33.21302 2.09707 -0.00323
C 33.19216 0.72959 -0.00841
C 31.97718 34.06915 0.0001
C 34.3679 32.62963 -0.02927
C 1.13391 31.884 -0.01404
C 1.19767 30.49146 0.01027
C 34.33116 29.85394 0.01831
C 34.30198 28.38817 -0.01037
C 1.10931 27.7232 -0.00439
C 32.00751 4.26678 -0.03838
C 28.31835 6.29989 0.01495
C 27.06481 7.00379 0.00235
C 27.02571 8.47071 0.01094
C 22.14631 29.81009 0.00096
C 22.12184 28.3432 -0.01527
C 23.31708 27.7016 0.01087
C 23.41553 26.198 0.00199
C 22.23179 25.47256 0.01511
C 22.19066 24.1517 -0.00478
C 23.50512 23.50203 -0.01662
C 23.43218 22.03242 -0.01185
C 22.19263 21.34125 0.01126
C 22.17364 19.91642 0.01852
C 23.43477 19.23047 -0.00381
C 23.35884 17.79276 0.03046
C 22.06254 17.04776 0.0296
C 22.20066 15.66889 0.03374
C 23.40132 14.84467 -0.02845
C 23.39422 13.37159 -0.03213
C 22.15678 12.83874 0.02239
C 23.49086 10.1121 0.01153
C 23.48326 6.45092 0.02734
C 23.32134 5.07098 -0.0055
C 22.23714 4.1739 0.01515
C 23.38039 30.53566 0.01277
C 23.28899 31.97092 -0.02422
C 22.01546 32.71778 -0.01721
C 19.58851 0.04347 -0.01154
C 19.55036 32.70959 0.03754
C 20.79361 31.97529 0.01739
C 20.89883 30.506 0.00755
C 19.64564 29.78699 -0.0054
C 19.68178 28.35961 0.00667
C 20.88597 27.66423 0.00143
C 20.99594 26.23435 -0.017
C 19.71629 25.49082 0.00364
C 19.66584 24.04688 -0.00831
C 20.98881 23.39426 -0.02957
C 22.15274 2.81794 -0.00225
C 21.02521 21.98731 -0.04422
C 19.76807 19.8924 -0.00703
C 20.94227 19.13441 -0.04076
C 20.89264 17.67874 -0.00652
C 19.69656 16.98933 0.0058
C 19.68829 15.5684 -0.00865
C 20.93526 14.91224 0.00675
C 21.03823 13.48278 -0.00311
C 19.644 2.97819 0.00742
C 20.76028 2.19198 -0.01594
C 20.78847 0.7377 0.0106
C 19.68415 21.28622 0.00654
C 23.39855 2.07897 0.00071
C 23.33629 0.71147 -0.01107
C 22.046 0.05948 -0.01586
C 24.57107 2.81553 0.04306
C 25.8176 2.08401 0.00996
C 25.84134 0.67002 0.00195
C 24.57754 34.05114 -0.00802
C 27.02996 32.62465 -0.00218
C 28.27496 31.90001 -0.01654
C 28.19397 30.44309 -0.00037
C 26.97922 29.69057 -0.0032
C 27.05107 28.1748 0.00622
C 28.32031 27.56142 -0.02815
C 24.57244 4.25979 0.00367
C 27.37006 21.45945 -0.00942
C 28.20381 19.18798 0.00826
C 28.29819 17.78284 -0.00294
C 27.10778 17.08089 0.00152
C 27.06042 15.56693 0.01257
C 28.25668 14.76287 0.02316
C 28.2104 13.40047 0.04185
C 27.02966 12.70223 0.00194
C 26.98561 11.28341 -0.00621
C 28.25516 10.60548 0.02611
C 28.28656 9.18015 0.02198
C 27.05257 20.00362 0.00487
C 3.55369 31.98965 -0.02375
C 25.65746 5.03215 -0.01679
C 24.54327 7.29224 0.00684
C 24.5526 32.63015 -0.01971
C 25.82676 31.86698 -0.02118
C 25.81406 30.41777 0.00733
C 24.59793 29.74069 -0.00178
C 24.64339 28.24008 0.00768
C 25.72516 27.43094 -0.0276
C 24.8132 25.60776 0.03005
C 24.94347 24.06451 -0.04078
C 25.88212 22.17001 0.02117
C 24.69873 21.37196 0.02737
C 25.79573 6.4529 -0.01052
C 24.66016 19.9272 -0.00498
C 25.8405 17.73765 0.03102
C 24.64726 17.05795 0.02555
C 24.57579 15.60456 0.01423
C 25.79827 14.92539 -0.00285
C 25.85331 13.4235 -0.009
C 24.61312 12.68936 -0.01199
C 24.60891 11.19428 -0.00229
C 25.81535 10.62491 -0.00938
C 25.86276 9.20566 -0.0264
C 24.54018 8.86063 -0.01154
C 25.84485 19.18808 0.00135
C 2.31796 32.69211 0.00828
