344
Graphene
C 0.01343 0.01261 0.01295
C 13.54966 26.24573 0.02098
C 12.28269 25.56554 0.01848
C 12.30655 24.16586 -0.00619
C 13.53006 23.4389 -0.02162
C 13.54082 22.04309 0.00889
C 12.28499 21.32394 -0.00481
C 12.2532 19.8509 0.00979
C 13.52524 19.19226 0.01443
C 13.49772 0.63549 0.03505
C 12.29037 34.06274 -0.02815
C 14.80092 32.69511 -0.04147
C 15.99758 31.96166 -0.05302
C 15.99258 30.50978 0.00213
C 14.76613 29.79819 -0.00066
C 14.74297 28.43746 -0.00289
C 16.03835 27.67836 0.00028
C 16.00837 26.23367 -0.02213
C 13.48884 27.64851 -0.03113
C 12.33375 28.34669 0.0351
C 12.23656 29.83975 0.00422
C 13.51228 30.5382 0.00798
C 11.05661 30.51165 0.03542
C 9.86858 29.83823 0.02299
C 9.81792 28.41474 0.00244
C 11.08789 27.70766 -0.01717
C 11.09804 26.25939 0.05265
C 9.8313 25.54158 -0.01952
C 9.83269 24.13124 -0.02813
C 11.07032 23.42436 0.00374
C 14.75893 25.56594 0.03698
C 11.05769 22.00961 0.00052
C 9.85367 19.92041 0.01965
C 11.06144 19.1429 0.02058
C 9.82378 2.86651 -0.01957
C 11.06584 2.11175 -0.0108
C 11.08919 0.70801 -0.00368
C 9.85449 34.06359 -0.02696
C 12.33495 32.6482 -0.00114
C 13.51722 31.94388 0.00228
C 9.86199 21.33437 -0.03682
C 11.06441 31.96494 0.01416
C 14.72288 24.08405 -0.00109
C 15.97248 21.99595 0.03338
C 20.94137 31.98181 0.00654
C 20.88855 30.50859 -0.00703
C 19.70772 29.81883 -0.04076
C 19.69618 28.45436 -0.00652
C 20.905 27.69338 0.0058
C 20.89135 26.23253 -0.00865
C 19.69801 25.5489 0.00675
C 19.66999 24.16426 -0.00311
C 20.9173 23.41171 0.00742
C 20.91611 21.97077 -0.01594
C 19.68387 21.29247 0.0106
C 19.67527 19.88702 -0.01154
C 20.91714 19.19996 -0.01721
C 20.88315 17.72869 -0.02422
C 20.9199 2.10986 0.01277
C 20.87724 0.67867 0.00096
C 19.67736 34.07034 -0.01527
C 19.64844 32.67738 -0.04422
C 17.21116 0.01276 -0.02957
C 18.47764 0.69412 -0.00831
C 18.46846 19.20124 0.00364
C 14.76269 21.32052 -0.0258
C 14.72945 19.85619 -0.0331
C 15.9388 19.20635 -0.00316
C 15.95581 0.72946 0.02188
C 14.77988 0.01122 -0.01979
C 17.2174 32.70089 0.02691
C 18.4691 31.93932 -0.01581
C 18.4553 30.52992 0.01452
C 15.98517 23.41105 -0.00491
C 17.22323 29.81622 0.04892
C 18.45403 27.67673 -0.03557
C 18.47179 26.28078 0.03754
C 17.23479 25.52277 0.01739
C 17.18656 24.11768 0.00755
C 18.45958 23.41931 -0.0054
C 18.45843 22.02931 0.00667
C 17.21865 21.28573 0.00143
C 17.20566 19.87199 -0.017
C 17.22618 28.41933 -0.00111
C 22.14764 32.62267 0.01087
C 9.80182 32.67082 0.01945
C 8.60519 0.7158 0.01241
C 2.48541 7.10216 0.00895
C 3.67517 6.40415 0.00685
C 3.69098 4.92189 0.02888
C 2.44059 4.25379 -0.00482
C 2.44716 2.80271 -0.01384
C 3.68041 2.11696 0.03693
C 3.68977 0.67887 0.01745
C 2.46504 0.01794 0.00488
C 4.86404 32.69498 -0.01004
C 6.14644 31.96716 -0.02896
C 6.14289 30.56314 -0.00131
C 4.93361 29.79935 -0.01118
C 4.90589 28.42307 -0.014
C 6.14737 27.66752 0.02147
C 6.14467 26.29061 0.00373
C 4.9088 25.60045 -0.00191
C 4.94159 24.13556 0.00438
C 2.46957 8.54728 0.00393
C 3.7 9.25633 0.0288
C 3.68496 10.65922 -0.0008
C 2.43724 11.37744 -0.01362
C 3.73734 30.56777 0.00873
C 2.47307 29.81433 -0.00049
C 2.42278 28.42239 0.00848
C 3.7273 27.70696 -0.01303
C 3.68965 26.29646 -0.01378
C 2.46737 25.54825 0.02635
C 2.44903 24.17048 0.0127
C 3.70801 23.39547 0.01396
C 6.15096 23.45401 0.01291
C 3.68993 22.0295 0.01849
C 2.48337 19.85137 -0.00562
C 3.69831 19.12884 -0.00494
C 3.67711 17.73425 0.00054
C 2.44716 17.05919 0.03007
C 2.46649 15.60529 -0.00095
C 3.67705 14.91355 0.01572
C 3.64541 13.49278 -0.04848
C 2.49589 12.76374 -0.00892
C 2.47688 21.29511 -0.01142
C 7.41081 34.04543 -0.01454
C 6.13165 21.9914 0.00093
C 4.91317 19.93432 -0.01634
C 7.35241 29.83504 -0.02689
C 7.39701 28.4324 -0.01046
C 8.6662 27.70176 -0.00891
C 8.62759 26.22505 0.02819
C 7.40169 25.58241 0.00165
C 7.39355 24.17948 -0.02971
C 8.60144 23.43835 0.02894
C 8.59291 22.0318 -0.01789
C 7.35238 21.27069 0.00444
C 7.36241 19.87207 -0.00925
C 8.62706 19.17212 0.01877
C 8.63053 17.73663 0.01363
C 7.38787 17.02673 -0.02162
C 7.34755 15.6577 0.00415
C 7.37443 4.26814 -0.0014
C 7.41495 2.84837 0.02162
C 8.63749 2.1051 0.0076
C 8.60362 30.5325 -0.01536
C 8.58761 31.90591 0.03101
C 7.35351 32.66789 -0.00428
C 4.89797 0.02073 -0.02245
C 6.14846 19.15616 -0.00334
C 6.15941 17.76802 0.02339
C 4.92506 17.07139 0.01641
C 4.94084 15.64549 -0.00719
C 6.15697 14.90213 0.01364
C 6.15852 13.55074 -0.01062
C 4.90523 12.79777 -0.00033
C 4.92021 11.37157 0.03589
C 4.9197 21.28897 0.00057
C 6.14617 10.62444 -0.02759
C 4.92494 8.52975 0.00572
C 4.88872 7.12885 0.03592
C 6.11709 6.42068 0.00406
C 6.16097 4.9511 0.00943
C 4.91062 4.3014 0.02841
C 4.90622 2.84304 -0.01111
C 6.16976 2.19553 -0.01275
C 6.1372 0.74952 0.00985
C 6.14163 9.27043 0.0402
C 23.38337 31.93583 0.00199
C 23.3168 30.51932 0.01511
C 22.14497 29.83487 -0.00478
C 31.99144 29.79827 -0.02142
C 32.00767 28.38646 0.0544
C 33.19791 27.72283 0.00026
C 33.17479 26.29132 0.00682
C 31.97558 25.55126 -0.01779
C 31.95484 24.15156 0.03794
C 33.20483 23.43325 0.01927
C 33.21487 21.9797 0.01574
C 32.01654 21.30093 -0.02383
C 31.95513 19.90894 -0.01429
C 33.19317 19.18552 -0.0136
C 33.20212 17.78657 0.00594
C 31.98697 17.03102 -0.02474
C 31.99631 15.59961 0.00369
C 33.19601 14.88239 0.00455
C 33.23646 13.47345 -0.00644
C 31.94485 12.80436 -0.01839
C 33.17363 30.5257 0.01428
C 33.18933 31.95037 -0.01694
C 31.93408 32.62563 0.01713
C 29.52158 34.07985 0.00346
C 30.71161 19.15608 0.03531
C 30.76326 17.74638 -0.00669
C 29.49979 17.02215 0.0101
C 29.51454 15.60623 0.01705
C 30.77987 14.93353 -0.0405
C 30.76442 13.49185 -0.01303
C 29.51156 12.8151 -0.01461
C 29.52597 11.35486 -0.02155
C 31.95858 11.33514 0.00137
C 30.74877 10.62202 -0.00944
C 29.47413 8.54252 -0.00971
C 29.54639 7.0947 0.01518
C 30.75879 6.39131 0.01908
C 30.77743 4.96668 0.07705
C 29.48578 4.25564 0.0103
C 29.52119 2.86899 0.02108
C 30.75222 2.11262 0.00716
C 30.74385 0.69026 0.00307
C 30.74157 9.26168 -0.03735
C 29.51148 19.87037 0.01836
C 33.20383 10.66071 0.00199
C 31.9879 8.47298 0.02806
C 1.23803 17.72137 0.01223
C 0.01176 17.01558 0.00648
C 34.41624 15.62727 0.02114
C 1.22945 14.88307 -0.02957
C 1.2109 13.50964 0.00343
C 0.02616 12.7248 -0.02656
C 34.39436 11.35368 -0.02442
C 1.20159 10.69535 -0.00027
C 1.22182 9.20957 -0.00583
C 34.40495 8.53755 -0.02302
C 34.42228 7.10562 -0.02849
C 1.21764 6.33953 0.02931
C 1.23358 4.9452 0.00628
C 0.00302 4.24094 -0.0345
C 0.03701 2.82337 -0.00931
C 1.25559 2.10999 -0.00939
C 1.26122 0.71087 -0.00468
C 1.26554 19.17549 -0.01678
C 34.41269 19.88182 0.01951
C 34.43052 21.28746 -0.02213
C 1.20708 22.03085 0.02712
C 31.94579 7.12489 0.01504
C 33.20854 6.42664 -0.00069
C 33.19648 4.97236 0.04926
C 31.99618 4.2846 -0.03838
C 31.96283 2.88487 0.00349
C 33.19877 2.11787 -0.00323
C 33.19726 0.6795 -0.00841
C 31.99812 0.02367 0.0001
C 33.19294 9.23818 0.04381
C 34.41323 32.63437 -0.02927
C 1.23352 30.53491 0.01027
C 34.42087 29.81903 0.01831
C 0.02094 28.45343 -0.01037
C 1.21176 27.62024 -0.00439
C 1.22837 26.25959 -0.00598
C 34.42571 25.58848 -0.05239
C 0.01701 24.14905 0.03076
C 1.20029 23.43391 0.00723
C 1.2073 31.97329 -0.01404
C 29.54742 21.30079 -0.03039
C 30.72458 22.03415 -0.01415
C 30.74769 23.41857 -0.01854
C 24.5917 24.13288 -0.00178
C 25.79745 23.44883 0.00768
C 25.82646 22.03931 -0.0276
C 24.59101 21.30679 0.03005
C 24.54245 19.84674 -0.04078
C 25.77977 19.19055 0.02117
C 25.84428 17.77366 0.02737
C 24.65154 17.054 -0.00498
C 24.59783 15.63697 0.00135
C 25.81407 14.91617 0.03102
C 25.80531 13.47348 0.02555
C 24.59248 12.80814 0.01423
C 24.59654 11.35679 -0.00285
C 25.8105 10.64742 -0.009
C 25.8466 9.21909 -0.01199
C 24.57171 8.53809 -0.00229
C 24.63867 7.13541 -0.00938
C 24.56176 25.55286 0.00733
C 25.79587 31.93925 -0.02118
C 24.58893 32.68387 -0.01971
C 22.13758 0.02339 -0.01586
C 22.12375 28.37585 -0.01662
C 23.3495 27.6684 -0.01185
C 23.37646 26.24248 0.01126
C 22.11804 25.5435 0.01852
C 22.16347 24.12213 -0.00381
C 23.33648 23.38675 0.03046
C 23.3659 22.00785 0.0296
C 22.13338 21.28117 0.03374
C 25.80206 6.37751 -0.0264
C 22.12521 19.87531 -0.02845
C 23.38499 17.78641 0.02239
C 22.16779 17.03751 0.01153
C 23.33827 14.89146 0.02734
C 23.33705 4.947 -0.0055
C 22.15015 4.2512 0.01515
C 22.10864 2.83729 -0.00225
C 23.32762 2.15915 0.00071
C 23.36644 0.69328 -0.01107
C 23.38085 19.14247 -0.03213
C 25.85292 5.00406 -0.01154
C 24.54689 4.26387 0.00684
C 24.55412 2.79354 -0.01052
C 27.07083 8.50464 0.02611
C 27.03427 7.10303 0.02198
C 28.32595 6.3726 0.01094
C 28.30729 4.96649 0.00235
C 26.99775 4.25779 0.01495
C 27.03278 2.82863 0.01259
C 28.29726 2.11462 0.01799
C 28.27651 0.69078 0.01699
C 28.30138 9.22393 -0.00621
C 27.0769 34.05034 -0.00416
C 30.78714 31.9225 0.04266
C 30.72934 30.53404 0.01324
C 29.52777 29.77551 0.0014
C 29.49708 28.37052 0.00924
C 30.75988 27.67752 0.02326
C 30.73915 26.23621 0.00261
C 29.54256 25.52013 0.03265
C 29.50021 24.06338 -0.02049
C 29.4742 32.64995 0.01177
C 3.69484 31.9574 0.01227
C 28.29159 10.63804 0.00194
C 27.05603 12.76358 0.02316
C 25.84921 2.11138 -0.01679
C 25.81501 0.7346 0.00367
C 24.63975 0.01447 0.04306
C 27.06381 32.66183 0.00996
C 28.30349 31.96882 0.00195
C 28.2916 26.2993 -0.00802
C 27.08281 25.55653 -0.00218
C 27.04097 24.15174 -0.01654
C 27.07664 11.35324 0.04185
C 28.27178 23.43938 -0.00037
C 27.02941 21.29542 0.00622
C 27.05925 19.86535 -0.02815
C 28.27401 19.17308 -0.00942
C 28.27063 17.72774 0.00487
C 27.05549 17.0446 0.00826
C 27.03297 15.66603 -0.00294
C 28.28231 14.8761 0.00152
C 28.30851 13.52605 0.01257
C 28.32811 22.02564 -0.0032
C 2.46251 32.64491 -0.03337
