323
Graphene
C 0.04312 0.0433 0.01295
C 9.80051 2.85707 -0.00289
C 11.0363 2.13613 0.00028
C 11.03725 0.76015 -0.02213
C 9.83804 0.03884 0.03698
C 12.33705 32.7422 -0.00109
C 13.50662 31.9297 -0.00491
C 13.48796 30.43511 0.03338
C 9.85259 4.22319 -0.00066
C 12.23196 29.68919 -0.0258
C 13.56143 27.67211 -0.00316
C 13.50752 26.2663 0.02188
C 12.26436 25.55186 -0.01979
C 12.27899 8.38199 0.02691
C 12.39697 7.07737 -0.01581
C 13.51755 5.11178 0.01452
C 12.34029 4.2406 0.04892
C 12.30935 28.30738 -0.0331
C 12.32768 2.78791 -0.00111
C 11.09588 4.89748 0.00213
C 9.87536 7.07109 -0.04147
C 7.34127 4.27454 -0.00114
C 7.33985 2.85053 0.00228
C 8.59776 2.19995 0.00798
C 8.58876 0.76132 0.00422
C 7.32324 0.06176 0.0351
C 9.89051 32.70707 -0.03113
C 11.13718 31.98042 0.02098
C 11.17718 6.34129 -0.05302
C 11.09666 30.5417 0.01848
C 9.81966 28.38975 -0.02162
C 11.03736 27.70962 0.00889
C 11.12333 26.29597 -0.00481
C 9.86323 25.67163 0.00979
C 9.67771 24.26352 0.01443
C 11.20687 8.92532 0.03505
C 9.85491 8.55148 -0.02815
C 9.84741 29.82581 -0.00619
C 13.61485 2.11006 -0.03557
C 13.55721 0.67274 0.03754
C 12.27145 0.04973 0.01739
C 18.42806 2.02175 -0.01721
C 18.43301 0.69599 -0.02422
C 17.17645 34.02916 0.01277
C 19.77599 32.72888 0.00096
C 21.00034 31.96277 -0.01527
C 20.87176 30.6158 0.01087
C 19.66282 29.8701 0.00199
C 17.22264 25.67217 -0.01154
C 19.69079 28.38391 0.01511
C 20.88676 26.26199 -0.01662
C 19.68238 25.51241 -0.01185
C 19.61939 24.21559 0.01126
C 20.82958 23.40539 0.01852
C 20.92812 22.067 -0.00381
C 20.98455 2.15205 0.03046
C 20.91172 0.788 0.0296
C 20.89125 27.64817 -0.00478
C 18.41926 26.23779 0.0106
C 18.43864 27.6643 -0.01594
C 17.22369 28.32626 0.00742
C 14.7718 32.65035 0.00755
C 15.94007 31.91331 -0.0054
C 16.02276 30.44923 0.00667
C 14.71826 29.83275 0.00143
C 14.71412 28.40113 -0.017
C 15.94336 27.67115 0.00364
C 15.9174 26.20227 -0.00831
C 14.72532 25.69062 -0.02957
C 14.5302 4.42094 -0.04422
C 14.89678 2.90959 0.00654
C 16.06515 2.09221 -0.00703
C 15.99138 0.69608 -0.04076
C 14.7303 34.03824 -0.00652
C 17.21529 32.63774 0.0058
C 18.50209 31.98928 -0.00865
C 18.40506 30.56438 0.00675
C 17.26581 29.73401 -0.00311
C 8.5801 4.99221 -0.02696
C 19.68667 0.04307 0.03374
C 8.57891 6.36019 -0.00368
C 7.33392 8.5314 -0.01957
C 3.65268 9.16155 0.00057
C 2.39075 8.51901 -0.01634
C 2.36767 7.12959 -0.00334
C 3.63254 6.40956 0.02339
C 3.716 4.97697 0.01641
C 2.48445 4.27957 -0.00719
C 2.49468 2.85351 0.01364
C 3.66268 10.57023 0.00093
C 3.65656 2.10494 -0.01062
C 2.46018 0.00491 0.03589
C 4.93148 32.67213 -0.02759
C 6.18029 31.94063 0.0402
C 6.17731 30.53351 0.00572
C 4.9113 29.8643 0.03592
C 4.9074 28.44472 0.00406
C 6.16571 27.73147 0.00943
C 3.67574 0.71169 -0.00033
C 6.13655 26.2649 0.02841
C 2.49512 11.2945 0.01291
C 3.6516 13.45456 -0.00191
C 3.60832 30.54739 0.00393
C 2.42168 29.78664 0.00895
C 2.44469 28.38322 0.00685
C 3.68001 27.72901 0.02888
C 3.71352 26.28024 -0.00482
C 2.50006 25.61436 -0.01384
C 2.41647 24.22494 0.03693
C 2.45648 12.73087 0.00438
C 3.63204 23.47979 0.01745
C 2.4917 21.33529 -0.01004
C 2.41572 19.89348 -0.02896
C 3.63858 19.18211 -0.00131
C 3.689 17.79982 -0.01118
C 2.51036 17.03497 -0.014
C 2.50007 15.59712 0.02147
C 3.67959 14.86578 0.00373
C 3.70692 22.05839 0.00488
C 4.93017 25.58845 -0.01111
C 4.8281 24.14249 -0.01275
C 6.07398 23.51942 0.00985
C 4.89882 0.01689 0.01241
C 7.3827 32.7099 -0.01454
C 8.66288 31.94094 0.01945
C 8.63199 30.50261 0.01416
C 7.4344 29.7869 0.03542
C 7.31025 28.39046 0.02299
C 8.57943 27.67003 0.00244
C 6.10975 0.73885 0.0076
C 8.50031 26.21571 -0.01717
C 7.38055 24.13508 -0.01952
C 8.69433 23.58453 -0.02813
C 7.26778 21.13768 0.00374
C 7.3393 12.84369 0.00052
C 7.50446 11.4696 -0.03682
C 8.60567 10.61257 0.01965
C 8.56851 9.30617 0.02058
C 7.30439 25.55638 0.05265
C 6.13988 2.1404 0.02162
C 4.90382 2.83417 -0.0014
C 4.98353 4.2699 0.00415
C 6.25854 22.03834 -0.02245
C 4.97305 21.33366 -0.00428
C 4.92616 19.91715 0.03101
C 6.17573 19.12412 -0.01536
C 6.2599 17.87275 -0.02689
C 4.96955 17.02551 -0.01046
C 4.89079 15.56621 -0.00891
C 6.07057 14.87963 0.02819
C 6.15469 13.47675 0.00165
C 4.81735 12.72612 -0.02971
C 4.89169 11.34165 0.02894
C 6.16216 10.68758 -0.01789
C 6.12397 9.28853 0.00444
C 4.90995 8.52023 -0.00925
C 4.88526 7.08707 0.01877
C 6.1084 6.41101 0.01363
C 6.13229 5.03523 -0.02162
C 7.3716 7.0988 -0.0108
C 3.65773 31.97638 0.0288
C 22.11693 32.74606 -0.02845
C 23.3375 30.4999 0.02239
C 33.19939 26.34059 0.00682
C 31.93814 25.61688 -0.01779
C 31.97764 24.15062 0.03794
C 33.20608 23.50873 0.01927
C 33.19481 22.09236 0.01574
C 31.934 21.41235 -0.02383
C 31.91943 20.00552 -0.01429
C 33.24828 27.71973 0.00026
C 33.11433 19.22747 -0.0136
C 31.96357 17.04144 -0.02474
C 32.03658 15.67781 0.00369
C 33.22205 14.91501 0.00455
C 33.18942 13.48699 -0.00644
C 31.95308 12.82793 -0.01839
C 31.93109 11.45188 0.00137
C 33.16976 10.64324 0.00199
C 33.16429 17.81432 0.00594
C 33.22213 9.20209 0.04381
C 31.98999 28.40295 0.0544
C 33.11124 30.5781 0.01428
C 30.70537 13.59843 -0.01303
C 29.57472 12.7325 -0.01461
C 29.54053 11.5303 -0.02155
C 30.69566 10.69169 -0.00944
C 30.6873 9.21597 -0.03735
C 29.51755 8.53707 -0.00971
C 29.42664 7.19338 0.01518
C 31.90552 29.80327 -0.02142
C 30.6786 6.39976 0.01908
C 29.4904 4.30942 0.0103
C 29.45446 2.81473 0.02108
C 30.6932 2.16873 0.00716
C 30.75015 0.71946 0.00307
C 29.5338 34.06597 0.00346
C 31.96815 32.66433 0.01713
C 33.19188 32.00874 -0.01694
C 30.69062 4.98054 0.07705
C 31.90931 8.55166 0.02806
C 31.93394 7.11392 0.01504
C 33.14977 6.37864 -0.00069
C 34.38029 17.13911 0.00648
C 0.01289 15.64831 0.02114
C 1.26276 14.92823 -0.02957
C 1.28022 13.44981 0.00343
C 0.01438 12.80317 -0.02656
C 34.38926 11.33175 -0.02442
C 1.19124 10.62419 -0.00027
C 1.23995 17.72804 0.01223
C 1.15216 9.26 -0.00583
C 34.39144 7.06208 -0.02849
C 1.21793 6.41928 0.02931
C 1.28406 4.98316 0.00628
C 0.01653 4.24088 -0.0345
C 34.42522 2.7681 -0.00931
C 1.24843 2.12618 -0.00939
C 1.24664 0.75248 -0.00468
C 34.41814 8.47273 -0.02302
C 1.21456 19.122 -0.01678
C 34.37052 19.83062 0.01951
C 34.42033 21.26443 -0.02213
C 33.18866 4.94513 0.04926
C 31.93656 4.2858 -0.03838
C 31.9109 2.79868 0.00349
C 33.16691 2.10762 -0.00323
C 33.21719 0.71002 -0.00841
C 31.97014 34.0582 0.0001
C 0.06368 32.70237 -0.02927
C 1.24682 31.89225 -0.01404
C 1.19674 30.50689 0.01027
C 34.3928 29.83266 0.01831
C 0.02458 28.38142 -0.01037
C 1.25234 27.69093 -0.00439
C 1.21346 26.26049 -0.00598
C 34.39294 25.59237 -0.05239
C 0.00079 24.22228 0.03076
C 1.19757 23.49745 0.00723
C 1.20488 22.05128 0.02712
C 30.78404 14.98722 -0.0405
C 23.34329 32.03322 -0.03213
C 29.60031 15.63555 0.01705
C 30.73197 17.77957 -0.00669
C 25.8396 27.71553 0.03102
C 25.85807 26.29936 0.02555
C 24.58152 25.54516 0.01423
C 24.57103 24.15571 -0.00285
C 25.8263 23.44367 -0.009
C 25.83835 22.04244 -0.01199
C 24.577 21.26984 -0.00229
C 24.60638 28.36854 0.00135
C 24.53765 19.83528 -0.00938
C 25.85963 17.79169 -0.01154
C 24.54595 16.96839 0.00684
C 24.47174 15.62767 -0.01052
C 25.81331 4.83305 -0.01679
C 24.45294 2.78641 0.00367
C 25.7041 2.13355 0.04306
C 25.80069 0.69778 0.00996
C 25.8603 19.18811 -0.0264
C 24.55974 0.08194 0.00195
C 24.53567 29.78487 -0.00498
C 25.73794 31.94383 0.02117
C 22.09963 29.81901 0.01153
C 22.17299 28.40938 0.02734
C 23.38729 27.6669 -0.0055
C 23.35261 26.22703 0.01515
C 22.12494 25.58512 -0.00225
C 22.12282 24.19005 0.00071
C 23.31919 23.50357 -0.01107
C 25.80392 30.51427 0.02737
C 23.31228 22.04973 -0.01586
C 22.22544 19.90082 -0.02118
C 23.2822 19.1035 0.00733
C 23.41032 17.77413 -0.00178
C 23.37791 2.16817 0.00768
C 23.32645 0.70891 -0.0276
C 22.16484 0.01935 0.03005
C 24.56032 32.74336 -0.04078
C 22.01703 21.24076 -0.01971
C 26.92949 32.60005 -0.00802
C 28.20175 31.92336 -0.00218
C 28.27002 30.54303 -0.01654
C 28.29184 0.66869 0.01699
C 26.99317 34.05858 -0.00416
C 29.50473 32.61012 0.01177
C 30.68077 31.9279 0.04266
C 30.66269 30.48818 0.01324
C 29.45902 29.78774 0.0014
C 29.49984 28.36675 0.00924
C 28.25414 2.10904 0.01799
C 30.74715 27.67431 0.02326
C 29.42631 25.48268 0.03265
C 29.51732 24.10567 -0.02049
C 30.76554 23.41627 -0.01854
C 30.72335 22.02048 -0.01415
C 29.5177 21.20631 -0.03039
C 29.51636 19.85637 0.01836
C 30.78278 19.19034 0.03531
C 30.68847 26.23277 0.00261
C 27.00905 2.69726 0.01259
C 26.98823 4.17611 0.01495
C 28.21683 4.92331 0.00235
C 27.08116 29.86462 -0.00037
C 27.04172 28.42834 -0.0032
C 28.28175 27.60035 0.00622
C 28.21104 26.2212 -0.02815
C 26.99954 25.47337 -0.00942
C 27.10315 24.07632 0.00487
C 28.32339 23.32489 0.00826
C 28.35553 21.9097 -0.00294
C 27.10554 21.30935 0.00152
C 27.09615 19.8595 0.01257
C 28.3207 19.11627 0.02316
C 28.27355 17.69016 0.04185
C 27.03962 16.95444 0.00194
C 27.25661 15.45146 -0.00621
C 28.34324 14.88234 0.02611
C 26.98834 6.91826 0.02198
C 28.17988 6.40666 0.01094
C 29.52646 17.02445 0.0101
C 2.48452 32.62835 -0.0008
