262
Graphene
C 34.42839 34.07664 0.01295
C 14.683 32.58838 0.01852
C 12.17957 33.8539 0.01126
C 13.41577 0.53055 -0.01185
C 13.45487 1.85574 -0.01662
C 12.25546 2.75132 -0.00478
C 12.38122 4.08907 0.01511
C 13.48936 31.8451 0.00199
C 12.28661 32.39192 0.01087
C 9.72285 0.0061 -0.01527
C 11.04375 0.63242 0.00096
C 11.0198 2.03136 0.01277
C 9.87291 2.82669 -0.02422
C 9.86996 4.2481 -0.01721
C 15.96944 32.09788 -0.00381
C 9.92019 18.48827 -0.01154
C 10.85414 31.80066 -0.01594
C 9.71037 32.73929 0.00742
C 7.34841 0.10072 -0.00311
C 8.58077 0.8057 0.00675
C 8.58263 2.17446 -0.00865
C 7.32338 2.92519 0.0058
C 7.39612 4.47291 -0.00652
C 8.76345 4.76615 -0.04076
C 7.00813 7.92027 -0.00703
C 7.32633 15.74609 0.00654
C 7.5889 17.08955 -0.04422
C 8.88348 17.57121 -0.02957
C 7.35263 28.42283 -0.00831
C 10.05633 30.63351 0.0106
C 15.7864 4.68086 0.03046
C 14.61952 4.13547 0.0296
C 14.6413 2.70587 0.03374
C 20.87454 2.19186 -0.01199
C 19.57464 2.94017 -0.009
C 19.60164 4.32511 -0.00285
C 20.80767 4.93221 0.01423
C 20.7524 6.47001 0.02555
C 19.41563 7.11386 0.03102
C 19.65923 8.50306 0.00135
C 20.7008 9.25796 -0.00498
C 20.89261 10.68747 0.02737
C 19.7264 11.56806 0.02117
C 18.98398 12.75403 -0.04078
C 21.25793 28.97172 0.03005
C 19.73123 30.09579 -0.0276
C 20.98333 30.55419 0.00768
C 20.88243 32.04962 -0.00178
C 19.6729 32.65857 0.00733
C 17.17657 34.06153 -0.02118
C 18.42979 0.7285 -0.01971
C 18.37357 2.16937 -0.01586
C 17.13253 2.81505 -0.01107
C 17.08326 4.25757 0.00071
C 18.29454 4.97814 -0.00225
C 18.25885 6.35884 0.01515
C 18.45226 30.49861 -0.0055
C 18.41372 31.8222 0.02734
C 17.16979 32.68403 0.01153
C 14.70938 34.07077 0.02239
C 15.92109 0.68501 -0.03213
C 15.90994 2.05294 -0.02845
C 7.48623 29.7635 0.00364
C 8.45089 30.70603 -0.017
C 8.53744 32.07252 0.00143
C 7.31689 32.83089 0.00667
C 3.81093 0.72722 -0.00619
C 3.76151 2.15665 0.01848
C 2.55555 2.85832 0.02098
C 2.51747 4.30145 -0.03113
C 3.69498 5.05403 0.0351
C 3.63622 6.46437 0.00422
C 2.32741 7.22266 0.00798
C 2.3301 8.59289 0.00228
C 3.60316 9.28942 -0.00114
C 3.66051 10.7376 -0.02696
C 2.37 11.47028 -0.00368
C 2.42179 12.89572 -0.0108
C 3.73461 13.44046 -0.01957
C 3.71751 14.89265 0.02058
C 2.45545 15.62528 0.01965
C 2.40088 17.05181 -0.03682
C 3.72333 17.83696 0.00052
C 3.62706 19.22932 0.00374
C 2.39299 19.83749 -0.02813
C 2.35539 21.2443 -0.01952
C 3.61825 22.07339 0.05265
C 3.49901 23.45768 -0.01717
C 2.24515 24.14382 0.00244
C 2.33111 25.51148 0.02299
C 3.51257 26.26505 0.03542
C 3.52588 27.64235 0.01416
C 2.28288 28.37829 0.01945
C 2.357 29.80429 -0.01454
C 3.70055 30.49206 0.01241
C 2.54018 0.01945 -0.02162
C 20.91739 0.65537 -0.00229
C 4.99085 32.58379 0.00889
C 6.30383 30.54949 0.00979
C 4.97587 34.05459 -0.0054
C 6.12869 0.72957 0.00755
C 6.10765 2.24602 0.01739
C 4.9066 2.97222 0.03754
C 4.97774 4.42879 -0.03557
C 6.19028 5.2521 -0.00111
C 6.17355 6.81189 0.04892
C 4.79831 7.27186 0.01452
C 4.85632 8.67031 -0.01581
C 6.31099 9.05416 0.02691
C 6.07257 10.3614 -0.01979
C 4.96013 11.28243 0.02188
C 5.05406 12.73752 -0.00316
C 6.15796 13.56397 -0.0331
C 6.35097 14.86025 -0.0258
C 4.99224 15.67428 0.03338
C 5.02091 17.05901 -0.00491
C 6.31196 17.96186 -0.00109
C 6.12814 19.27246 0.03698
C 4.9254 20.00299 -0.02213
C 4.89403 21.43966 0.00028
C 6.0858 22.07469 -0.00289
C 5.77624 23.45302 -0.00066
C 4.66096 24.17613 0.00213
C 4.77465 25.55594 -0.05302
C 5.92648 26.25183 -0.04147
C 6.2128 27.62611 -0.02815
C 4.81297 28.34071 0.03505
C 5.0124 29.82054 0.01443
C 6.22076 31.92174 -0.00481
C 19.63386 34.04577 -0.00938
C 22.12259 32.60927 -0.0264
C 23.34434 31.8769 -0.01154
C 33.20335 2.2153 -0.00323
C 31.91735 2.92761 0.00349
C 31.98089 4.41055 -0.03838
C 33.22499 5.07052 0.04926
C 33.2203 6.49763 -0.00069
C 32.00196 7.15338 0.01504
C 31.87784 8.64916 0.02806
C 33.19271 9.33302 0.04381
C 33.21096 10.78901 0.00199
C 31.9547 11.41114 0.00137
C 31.92818 12.8819 -0.01839
C 33.13517 13.5864 -0.00644
C 33.13699 15.05694 0.00455
C 31.95361 15.60822 0.00369
C 32.99615 17.68976 -0.02474
C 33.23865 18.96336 0.00594
C 33.16545 21.96104 -0.0136
C 32.86927 23.33949 -0.01429
C 31.77771 24.16512 -0.02383
C 31.60527 25.49799 0.01574
C 32.8852 26.22948 0.01927
C 32.99197 27.67328 0.03794
C 31.8135 28.37811 -0.01779
C 31.86059 29.79653 0.00682
C 33.11096 30.50606 0.00026
C 33.13843 31.94849 0.0544
C 31.98776 32.70622 -0.02142
C 29.48225 0.06015 0.01428
C 30.65534 0.83755 -0.01694
C 33.19566 0.81012 -0.00841
C 30.73339 2.26188 0.01713
C 31.91782 0.04172 0.0001
C 1.17479 31.91611 -0.01404
C 1.2956 0.75993 -0.00468
C 1.27436 2.14435 -0.00939
C 0.02496 2.87596 -0.00931
C 34.40724 4.31866 -0.0345
C 1.23007 4.98582 0.00628
C 1.16378 6.3987 0.02931
C 34.3914 7.18342 -0.02849
C 34.4131 8.6313 -0.02302
C 1.20961 9.40956 -0.00583
C 1.12555 10.8068 -0.00027
C 34.3363 11.57633 -0.02442
C 34.4138 13.00772 -0.02656
C 1.18957 13.61813 0.00343
C 1.11623 15.00429 -0.02957
C 34.36493 15.65754 0.02114
C 34.3627 17.02972 0.00648
C 1.16066 17.70278 0.01223
C 1.12646 19.08796 -0.01678
C 34.35121 19.84687 0.01951
C 34.31192 21.23906 -0.02213
C 1.11625 21.95072 0.02712
C 0.99774 23.49568 0.00723
C 34.15641 24.16442 0.03076
C 34.15955 25.59496 -0.05239
C 1.07044 26.29827 -0.00598
C 0.99775 27.72686 -0.00439
C 34.20038 28.39315 -0.01037
C 34.29953 29.84923 0.01831
C 1.16063 30.53763 0.01027
C 34.32811 32.64958 -0.02927
C 3.69914 31.93826 0.0076
C 29.52709 2.9795 0.00346
C 30.72211 5.12423 0.00716
C 25.80356 0.67153 0.01495
C 25.77268 2.17098 0.00235
C 24.5544 2.86664 0.01094
C 24.57647 4.30436 0.02198
C 25.76139 4.98651 0.02611
C 25.83389 6.40424 -0.00621
C 24.61546 7.14549 0.00194
C 24.58376 8.58163 0.04185
C 25.81941 9.30013 0.02316
C 25.77585 10.89264 0.01257
C 24.43815 11.36824 0.00152
C 24.65833 29.56982 -0.00294
C 25.81136 30.24515 0.00826
C 25.80295 31.83195 0.00487
C 24.58042 32.56672 -0.00942
C 22.14529 0.02522 -0.02815
C 23.41503 0.73579 0.00622
C 23.40961 2.09769 -0.0032
C 22.16884 2.8147 -0.00037
C 22.09825 4.36198 -0.01654
C 23.34549 5.02888 -0.00218
C 23.34829 6.42052 -0.00802
C 21.99651 7.06975 0.00195
C 22.06883 8.5214 0.00996
C 23.23248 9.21824 0.04306
C 23.26659 10.67831 0.00367
C 21.99654 11.30234 -0.01679
C 22.15453 29.9291 -0.01052
C 23.57684 30.519 0.00684
C 24.6185 34.05837 0.01259
C 29.5025 4.40195 0.00307
C 27.01828 32.72347 0.01799
C 28.28778 30.69432 -0.00416
C 30.67511 6.49326 0.02108
C 29.49805 7.21639 0.0103
C 29.51123 8.67392 0.07705
C 30.69666 9.32934 0.01908
C 30.71988 10.72643 0.01518
C 29.44856 11.48293 -0.00971
C 29.524 12.83771 -0.03735
C 30.62141 13.42122 -0.00944
C 30.38914 26.29402 -0.02155
C 30.66651 27.70555 -0.01461
C 29.44437 28.67474 -0.01303
C 29.49963 29.95026 -0.0405
C 30.7243 30.66564 0.01705
C 30.78225 32.08202 0.0101
C 29.50318 32.76623 -0.00669
C 27.00629 0.06108 0.03531
C 28.22866 0.73899 0.01836
C 28.26428 2.20331 -0.03039
C 27.02033 2.88196 -0.01415
C 27.02086 4.30475 -0.01854
C 28.26534 5.09377 -0.02049
C 28.23345 6.48827 0.03265
C 27.03764 7.13731 0.00261
C 26.99799 8.60256 0.02326
C 28.19894 9.39007 0.00924
C 28.17966 10.7612 0.0014
C 26.99164 11.41064 0.01324
C 27.8597 28.52124 0.04266
C 27.12392 29.70641 0.01177
C 28.33058 32.03744 0.01699
C 2.45798 32.6115 0.02162
