400
Graphene
C 0.01493 0.03774 0.01295
C 9.90721 34.06112 0.00165
C 12.24075 32.72627 -0.02971
C 13.51256 31.99441 0.02894
C 13.55013 30.52127 -0.01789
C 12.35232 29.86861 0.00444
C 12.32276 28.43218 -0.00925
C 13.4696 27.65378 0.01877
C 13.47679 26.2471 0.01363
C 12.26418 25.44284 -0.02162
C 12.28877 24.09984 0.00415
C 13.58336 23.45654 -0.0014
C 13.57271 21.97286 0.02162
C 12.34232 21.2817 0.0076
C 12.3318 19.84313 0.01241
C 13.49832 19.22298 -0.01454
C 13.51655 17.74138 0.01945
C 12.3173 16.96336 0.01416
C 12.20016 15.60167 0.03542
C 12.39213 8.427 0.02299
C 12.24713 7.08126 0.00244
C 13.50508 6.4427 -0.01717
C 11.08813 0.66631 0.02819
C 13.48783 5.0176 0.05265
C 10.99191 2.18636 -0.00891
C 9.86325 4.32367 -0.02689
C 11.10906 26.30007 0.02339
C 9.87435 25.59553 0.01641
C 9.85473 24.17341 -0.00719
C 11.05185 23.45279 0.01364
C 11.09455 22.01503 -0.01062
C 9.86455 21.34605 -0.00033
C 9.83371 19.97166 0.03589
C 11.03525 19.18952 -0.02759
C 11.03631 17.82416 0.0402
C 9.85707 16.98389 0.00572
C 9.83252 15.60973 0.03592
C 11.10386 14.92335 0.00406
C 11.13247 13.46243 0.00943
C 9.81556 12.73015 0.02841
C 9.83019 11.38832 -0.01111
C 11.07177 10.62967 -0.01275
C 11.04613 9.23759 0.00985
C 9.85214 8.51084 -0.02245
C 9.91238 7.12347 -0.00428
C 11.06009 6.40631 0.03101
C 11.08984 4.97847 -0.01536
C 9.80935 2.94855 -0.01046
C 11.06556 27.73697 -0.00334
C 12.26726 4.18958 -0.01952
C 13.53132 2.0824 0.00374
C 18.46206 32.01352 -0.05302
C 18.44379 30.50264 0.00213
C 17.17475 29.82815 -0.00066
C 17.20057 28.41804 -0.00289
C 18.4801 27.67272 0.00028
C 18.52419 26.3288 -0.02213
C 17.23309 25.51817 0.03698
C 17.23378 24.1211 -0.00109
C 18.45959 23.40098 -0.00491
C 18.47212 21.95264 0.03338
C 17.15689 21.30276 -0.0258
C 17.18443 19.8182 -0.0331
C 18.45263 19.15658 -0.00316
C 18.48171 4.91833 0.02188
C 17.22247 4.32062 -0.01979
C 17.18849 2.8559 0.02691
C 18.4069 2.15394 -0.01581
C 18.37281 0.75913 0.01452
C 17.19038 0.03706 0.04892
C 19.67199 32.67785 -0.00111
C 20.94896 31.91863 -0.03557
C 17.23472 32.66673 -0.04147
C 12.30683 2.83968 -0.02813
C 14.74779 0.02959 -0.02815
C 16.02992 2.1552 0.01443
C 13.53161 0.71432 0.00052
C 12.31211 34.04584 -0.03682
C 14.73267 32.62887 0.01965
C 15.9847 31.94403 0.02058
C 16.01772 30.55398 -0.01957
C 14.72657 29.82685 -0.0108
C 14.71762 28.40643 -0.00368
C 15.94484 27.70057 -0.02696
C 15.98057 26.24501 -0.00114
C 14.69719 25.56859 0.00228
C 14.75549 24.17808 0.00798
C 16.01548 23.40615 0.00422
C 15.95249 21.98297 0.0351
C 14.75166 21.21726 -0.03113
C 14.72438 19.82859 0.02098
C 15.97763 19.13061 0.01848
C 14.77091 7.02994 -0.00619
C 15.93413 6.41598 -0.02162
C 16.04796 5.01167 0.00889
C 14.71491 4.3276 -0.00481
C 14.77788 2.7952 0.00979
C 15.95398 0.72057 0.03505
C 20.88781 30.53722 0.03754
C 9.84596 28.43194 -0.01634
C 11.07963 30.46155 0.00093
C 2.46003 4.28608 0.00402
C 2.44056 2.88134 0.0073
C 3.6558 2.13444 0.0174
C 3.68247 0.71863 0.03828
C 2.45732 0.04898 0.01226
C 4.9192 32.61689 -0.00279
C 6.16121 31.99674 0.01996
C 6.1739 30.56103 -0.03996
C 4.92346 29.83832 0.01465
C 4.85898 28.47531 -0.00074
C 6.15696 27.7103 -0.00518
C 6.15136 26.2456 0.0086
C 4.87884 25.5679 -0.00643
C 4.87662 24.17381 0.017
C 6.19111 23.37286 -0.03113
C 6.20997 22.02008 -0.02566
C 4.91031 21.27895 -0.00094
C 4.99924 19.84219 0.02322
C 6.16454 19.15017 -0.00725
C 6.08754 17.73576 -0.05697
C 4.88386 17.13071 0.01087
C 3.70177 4.98108 0.02374
C 4.94295 15.59988 -0.01343
C 3.6658 6.41788 0.03267
C 2.51628 8.5223 0.00643
C 3.65558 30.4848 0.0064
C 2.49528 29.77089 0.00211
C 2.36889 28.32665 -0.00449
C 3.66264 27.76121 -0.01979
C 3.63094 26.31435 0.02784
C 2.434 25.56788 -0.01977
C 2.49304 24.17132 -0.00561
C 3.69718 23.36837 0.00208
C 3.74487 22.02689 0.01707
C 2.49131 21.36728 0.02769
C 2.47608 19.9235 -0.03291
C 3.68767 19.14905 -0.04999
C 3.63238 17.68699 0.04505
C 2.42839 16.99874 0.03284
C 2.48665 15.60124 -0.04307
C 3.69568 14.87252 0.03189
C 3.68189 13.51638 0.00031
C 2.45893 12.86043 -0.003
C 2.40628 11.38912 0.01402
C 3.7338 10.665 0.02379
C 3.75294 9.25243 0.00907
C 2.47571 7.14193 -0.01509
C 9.79798 29.73284 0.00057
C 6.13275 14.90249 0.00988
C 4.86832 12.81781 0.01305
C 8.54393 19.12901 -0.0008
C 8.61493 17.74774 0.0288
C 7.36172 17.07692 0.00393
C 7.36131 15.6625 0.00895
C 8.6323 14.86155 0.00685
C 8.58233 13.51803 0.02888
C 7.35352 12.80819 -0.00482
C 7.40479 11.38039 -0.01384
C 8.59383 10.62201 0.03693
C 8.61716 9.22641 0.01745
C 7.39949 8.55707 0.00488
C 7.35262 7.12529 -0.01004
C 8.56076 6.46308 -0.02896
C 8.65368 4.98663 -0.00131
C 7.40362 4.3224 -0.01118
C 7.37835 2.87586 -0.014
C 8.64503 2.20708 0.02147
C 8.57408 0.81283 0.00373
C 7.35694 0.07097 -0.00191
C 9.8492 32.68382 0.00438
C 11.00806 31.94252 0.01291
C 7.37686 19.90722 -0.01362
C 6.14746 13.48781 0.0276
C 7.39551 21.2762 -0.00892
C 8.58383 23.47109 0.01572
C 4.88661 11.43161 -0.00077
C 6.15678 10.66835 0.03368
C 6.09033 9.23454 -0.02929
C 4.88147 8.55788 -0.00966
C 4.90342 7.07344 -0.03337
C 6.15678 6.38762 0.01227
C 6.12051 5.02683 0.00873
C 4.90537 4.29184 -0.00049
C 4.97027 2.89784 0.00848
C 6.17254 2.10158 -0.01303
C 6.13924 0.73734 -0.01378
C 4.86256 0.00054 0.02635
C 7.39398 32.68677 0.0127
C 8.5908 31.99963 0.01396
C 8.52306 30.53848 0.01849
C 7.33261 29.82515 -0.01142
C 7.36231 28.33896 -0.00562
C 8.61847 27.72743 -0.00494
C 8.56493 26.26608 0.00054
C 7.39077 25.58764 0.03007
C 7.37328 24.10661 -0.00095
C 8.59192 22.01527 -0.04848
C 19.66772 29.84132 0.01739
C 19.73228 28.40155 0.00755
C 20.93676 27.73894 -0.0054
C 29.49149 7.07555 0.01518
C 30.73478 6.40438 0.01908
C 30.71597 4.98181 0.07705
C 29.45261 4.31704 0.0103
C 29.56961 2.83361 0.02108
C 30.76969 2.07907 0.00716
C 30.80499 0.65907 0.00307
C 29.50646 0.00547 0.00346
C 31.97179 32.67618 0.01713
C 33.21857 31.95137 -0.01694
C 33.18974 30.51546 0.01428
C 31.96905 29.80328 -0.02142
C 31.96942 28.42474 0.0544
C 33.25254 27.73874 0.00026
C 33.20703 26.20289 0.00682
C 32.00409 25.51786 -0.01779
C 32.00189 24.15106 0.03794
C 33.20543 23.45959 0.01927
C 33.2098 21.95839 0.01574
C 31.93103 21.31998 -0.02383
C 32.02095 19.84928 -0.01429
C 29.46502 8.47199 -0.00971
C 33.18779 19.20715 -0.0136
C 30.69826 9.20268 -0.03735
C 29.47436 11.38941 -0.02155
C 27.04168 34.07561 -0.00416
C 29.53596 32.59959 0.01177
C 30.7783 31.93146 0.04266
C 30.75363 30.552 0.01324
C 29.5796 29.79316 0.0014
C 29.52438 28.31093 0.00924
C 30.7702 27.67395 0.02326
C 30.77505 26.22371 0.00261
C 29.46108 25.52703 0.03265
C 29.51704 24.09406 -0.02049
C 30.75413 23.4517 -0.01854
C 30.75107 22.04762 -0.01415
C 29.55263 21.37291 -0.03039
C 29.50481 19.88322 0.01836
C 30.7853 19.21613 0.03531
C 30.70277 17.77411 -0.00669
C 29.50252 17.03334 0.0101
C 29.51691 15.60286 0.01705
C 30.79401 14.94848 -0.0405
C 30.77274 13.49562 -0.01303
C 29.48228 12.7499 -0.01461
C 30.7369 10.68571 -0.00944
C 28.29111 0.71268 0.01699
C 33.22905 17.82032 0.00594
C 31.96661 15.53821 0.00369
C 1.18426 22.00433 0.02712
C 34.4227 21.28671 -0.02213
C 0.06665 19.88691 0.01951
C 1.18269 19.13795 -0.01678
C 1.16454 17.74647 0.01223
C 34.40562 16.98838 0.00648
C 34.39265 15.59657 0.02114
C 1.20786 14.86717 -0.02957
C 1.22553 13.55103 0.00343
C 0.01106 12.81646 -0.02656
C 34.41781 11.35619 -0.02442
C 1.21337 10.64556 -0.00027
C 1.17898 9.20044 -0.00583
C 34.36199 8.53805 -0.02302
C 0.00211 7.11766 -0.02849
C 1.26176 6.33491 0.02931
C 1.23605 4.93807 0.00628
C 34.38335 4.28635 -0.0345
C 0.00641 2.85389 -0.00931
C 1.22907 2.20236 -0.00939
C 1.21976 0.73889 -0.00468
C 1.19487 23.43676 0.00723
C 31.9794 17.0826 -0.02474
C 0.012 24.16007 0.03076
C 1.23497 26.27144 -0.00598
C 33.18615 14.84967 0.00455
C 33.19339 13.46124 -0.00644
C 31.95443 12.79599 -0.01839
C 31.94955 11.42676 0.00137
C 33.18849 10.59675 0.00199
C 33.17652 9.19698 0.04381
C 31.90109 8.51965 0.02806
C 31.96849 7.1302 0.01504
C 33.23647 6.39604 -0.00069
C 33.13121 4.91386 0.04926
C 31.92611 4.26494 -0.03838
C 31.99497 2.84172 0.00349
C 33.18906 2.07739 -0.00323
C 33.17511 0.71631 -0.00841
C 32.00606 34.02845 0.0001
C 0.0189 32.65921 -0.02927
C 1.26582 31.96696 -0.01404
C 1.21284 30.50932 0.01027
C 0.01955 29.7673 0.01831
C 34.42588 28.37466 -0.01037
C 1.18953 27.66507 -0.00439
C 0.00563 25.57266 -0.05239
C 28.34142 2.10673 0.01799
C 27.04755 2.8712 0.01259
C 26.97909 4.24981 0.01495
C 23.29345 21.9741 0.00199
C 22.12613 21.22577 0.01511
C 22.09401 19.87442 -0.00478
C 23.39249 19.13974 -0.01662
C 23.39188 17.76259 -0.01185
C 21.97738 7.03909 0.01126
C 23.28945 6.32995 0.01852
C 23.35732 4.94592 -0.00381
C 22.15343 4.2261 0.03046
C 22.18822 2.78167 0.0296
C 23.42358 2.07427 0.03374
C 23.40849 0.68285 -0.02845
C 22.12461 0.00952 -0.03213
C 24.63358 32.60682 0.02239
C 25.78516 31.91293 0.01153
C 25.79635 30.54703 0.02734
C 24.64155 29.74243 -0.0055
C 24.65734 28.35064 0.01515
C 25.78849 27.6595 -0.00225
C 25.79587 26.26808 0.00071
C 24.60901 25.56551 -0.01107
C 23.36528 23.3875 0.01087
C 24.63187 24.14992 -0.01586
C 22.11706 24.13675 -0.01527
C 23.3759 26.2829 0.01277
C 20.97115 26.266 0.00667
C 19.75172 25.57652 0.00143
C 19.70711 24.17626 -0.017
C 20.91245 23.47919 0.00364
C 20.94523 21.94286 -0.00831
C 19.67328 21.3272 -0.02957
C 19.68757 19.88254 -0.04422
C 20.88494 19.29057 0.00654
C 20.92766 6.39578 -0.00703
C 20.9191 4.99083 -0.04076
C 19.65194 4.30098 -0.00652
C 19.67135 2.82658 0.0058
C 20.94887 2.15465 -0.00865
C 20.88877 0.77691 0.00675
C 19.66896 34.05521 -0.00311
C 22.17484 32.6967 0.00742
C 23.43169 31.93498 -0.01594
C 23.42084 30.47916 0.0106
C 22.07022 29.79228 -0.01154
C 22.15733 28.43431 -0.01721
C 23.33772 27.65963 -0.02422
C 22.27109 25.59378 0.00096
C 25.79726 23.46282 -0.01971
C 25.80542 22.00011 -0.02118
C 24.5926 21.27392 0.00733
C 28.18927 26.28833 -0.00802
C 26.96758 25.59381 -0.00218
C 27.00323 24.15153 -0.01654
C 28.24173 23.41198 -0.00037
C 28.31759 21.97092 -0.0032
C 26.96024 21.24341 0.00622
C 27.03507 19.87237 -0.02815
C 28.24551 19.17552 -0.00942
C 28.23441 17.71314 0.00487
C 26.99732 17.06568 0.00826
C 27.03279 15.63407 -0.00294
C 28.27649 14.896 0.00152
C 28.25912 13.4907 0.01257
C 27.06426 12.68043 0.02316
C 27.08091 11.33669 0.04185
C 28.2916 10.63037 0.00194
C 28.29747 9.23803 -0.00621
C 27.13749 8.60055 0.02611
C 27.0662 7.11773 0.02198
C 28.24455 6.32015 0.01094
C 28.24957 4.93512 0.00235
C 28.26347 27.73038 0.00195
C 27.00166 28.43243 0.00996
C 27.05423 29.81289 0.04306
C 28.35192 30.56061 0.00367
C 24.61476 19.88403 -0.00178
C 25.80278 19.17246 0.00768
C 25.78923 17.71473 -0.0276
C 24.55494 17.06625 0.03005
C 24.58887 15.61623 -0.04078
C 25.76392 14.90947 0.02117
C 25.79404 13.47658 0.02737
C 24.63613 12.69205 -0.00498
C 24.58725 11.44351 0.00135
C 25.81874 10.64381 0.03102
C 3.68964 31.9154 -0.00039
C 25.79927 9.27795 0.02555
C 24.63002 7.14005 -0.00285
C 25.79489 6.3823 -0.009
C 25.82278 4.93973 -0.01199
C 24.60861 4.28861 -0.00229
C 24.61069 2.90879 -0.00938
C 25.84864 2.11628 -0.0264
C 25.82453 0.67696 -0.01154
C 24.68657 0.00599 0.00684
C 27.02189 32.69002 -0.01052
C 28.29936 31.9582 -0.01679
C 24.6093 8.54962 0.01423
C 2.46476 32.65073 0.02728
