310
Graphene
C 34.37514 34.06138 0.01295
C 14.5741 12.36386 -0.00316
C 14.56658 10.69756 0.02188
C 16.01103 10.40615 -0.01979
C 16.1077 9.02171 0.02691
C 14.85528 8.4652 -0.01581
C 14.76465 7.10779 0.01452
C 15.95183 6.3568 0.04892
C 15.99888 5.04488 -0.00111
C 14.69277 4.36055 -0.03557
C 14.78218 2.94677 0.03754
C 15.97583 2.15043 0.01739
C 15.90935 0.71922 0.00755
C 14.77124 34.04565 -0.0054
C 17.22394 32.67234 0.00667
C 18.46638 31.7608 0.00143
C 15.99539 12.83839 -0.0331
C 18.3993 30.4237 -0.017
C 14.4899 30.36876 -0.0258
C 15.99439 31.93001 -0.00491
C 12.18829 17.0659 0.00889
C 12.3833 15.74498 -0.00481
C 13.33267 14.80001 0.00979
C 13.95489 13.56654 0.01443
C 13.83417 9.46499 0.03505
C 12.44452 8.8987 -0.02815
C 12.31251 7.38494 -0.04147
C 13.49156 6.58384 -0.05302
C 13.49979 5.12384 0.00213
C 12.30099 4.41264 -0.00066
C 12.24572 2.95181 -0.00289
C 13.56863 2.19567 0.00028
C 13.59246 0.73598 -0.02213
C 12.40174 34.03848 0.03698
C 14.76867 32.53984 -0.00109
C 15.87001 30.4263 0.03338
C 17.03137 29.63309 0.00364
C 17.78495 28.41913 -0.00831
C 17.1498 12.60815 -0.02957
C 19.59327 7.04607 0.01511
C 20.85417 6.4226 -0.00478
C 20.84492 4.95957 -0.01662
C 19.62437 4.24015 -0.01185
C 19.58826 2.78355 0.01126
C 20.81139 2.14413 0.01852
C 20.82622 0.74834 -0.00381
C 19.65593 33.97869 0.03046
C 22.06146 32.6111 0.0296
C 23.31628 32.0853 0.03374
C 23.31685 30.64383 -0.02845
C 22.30903 29.75467 -0.03213
C 22.90002 28.49879 0.02239
C 23.0736 13.40524 0.01153
C 22.21507 12.67705 0.02734
C 19.64031 8.47326 0.00199
C 20.79025 9.18488 0.01087
C 20.80537 10.57813 -0.01527
C 19.62673 11.33871 0.00096
C 17.15631 11.15073 -0.04422
C 18.41542 10.65462 0.00654
C 18.51326 9.16923 -0.00703
C 17.24186 8.445 -0.04076
C 17.20673 7.0409 -0.00652
C 18.39163 6.33256 0.0058
C 18.4224 4.90905 -0.00865
C 13.59918 31.70044 -0.02162
C 17.1632 4.23547 0.00675
C 18.32218 2.10615 0.00742
C 18.42571 0.64104 -0.01594
C 17.173 0.02638 0.0106
C 19.72034 32.49153 -0.01154
C 20.95603 31.72164 -0.01721
C 20.92465 30.26653 -0.02422
C 19.68305 29.77184 0.01277
C 17.1222 2.83789 -0.00311
C 12.51348 32.40342 -0.00619
C 9.85325 34.03543 0.01848
C 11.14254 0.63707 0.02098
C 4.83651 32.54177 0.03592
C 6.05835 17.92687 0.00406
C 4.86263 17.19613 0.00943
C 4.8113 15.77821 0.02841
C 6.12008 14.95001 -0.01111
C 6.10432 13.56277 -0.01275
C 4.92673 12.86246 0.00985
C 4.79827 11.4534 -0.02245
C 6.01269 10.65607 -0.00428
C 6.09545 9.27566 0.03101
C 4.82155 8.55009 -0.01536
C 4.88887 7.11421 -0.02689
C 6.12359 6.42489 -0.01046
C 6.22085 4.88269 -0.00891
C 4.93003 4.19109 0.02819
C 2.33286 34.05464 0.00572
C 3.59244 0.65337 0.0402
C 3.64686 2.06248 -0.02759
C 2.43312 2.84481 0.03589
C 2.28896 20.26006 -0.014
C 3.48311 19.39033 0.02147
C 3.55711 17.91317 0.00373
C 2.3828 17.16441 -0.00191
C 2.41861 15.70748 0.00438
C 3.59338 15.02667 0.01291
C 3.65254 13.55295 0.00093
C 4.91549 2.84251 0.00165
C 2.40159 12.90097 0.00057
C 3.60003 10.75762 -0.00334
C 3.54271 9.31587 0.02339
C 2.3427 8.56365 0.01641
C 2.4469 7.1195 -0.00719
C 3.60498 6.3891 0.01364
C 3.70236 4.89978 -0.01062
C 2.37812 4.25421 -0.00033
C 2.32125 11.44747 -0.01634
C 21.97634 11.21488 -0.0055
C 6.18101 2.12619 -0.02971
C 4.93444 33.97554 -0.01789
C 9.74676 17.02035 0.00374
C 9.80617 15.64315 0.00052
C 11.00922 14.92431 -0.03682
C 10.86458 13.46593 0.01965
C 9.6284 12.77145 0.02058
C 9.68374 11.40602 -0.01957
C 10.95164 10.89458 -0.0108
C 11.10316 9.54317 -0.00368
C 9.88186 8.6505 -0.02696
C 9.82033 7.26897 -0.00114
C 11.1062 6.61296 0.00228
C 11.08032 5.10671 0.00798
C 9.90022 4.38209 0.00422
C 9.90291 2.82948 0.0351
C 11.08303 2.09558 -0.03113
C 11.21249 17.98821 -0.02813
C 10.22395 18.97048 -0.01952
C 7.376 34.05356 0.05265
C 8.58634 0.53605 -0.01717
C 8.68893 17.79079 0.00444
C 7.37563 17.31018 -0.00925
C 7.35523 15.77812 0.01877
C 8.56979 15.05482 0.01363
C 8.5505 13.58005 -0.02162
C 7.28994 12.83927 0.00415
C 7.27459 11.37946 -0.0014
C 6.10583 0.63667 0.02894
C 8.53322 10.74135 0.02162
C 7.31048 8.6095 0.01241
C 7.34991 7.0952 -0.01454
C 8.62888 6.52933 0.01945
C 8.63379 5.05481 0.01416
C 7.43379 4.26636 0.03542
C 7.47214 2.84404 0.02299
C 8.69011 2.17497 0.00244
C 8.5548 9.30426 0.0076
C 23.25926 10.59708 0.01515
C 23.26966 9.19014 -0.00225
C 21.99803 8.52705 0.00071
C 33.08412 26.26886 0.01927
C 31.81176 25.53178 0.01574
C 31.92332 24.16611 -0.02383
C 33.16202 23.48172 -0.01429
C 33.28635 22.0475 -0.0136
C 31.98667 21.37264 0.00594
C 31.92365 19.92036 -0.02474
C 33.17794 19.27353 0.00369
C 33.04624 17.78237 0.00455
C 31.80091 17.11442 -0.00644
C 31.79066 15.67621 -0.01839
C 33.08673 14.97483 0.00137
C 33.12774 13.62718 0.00199
C 31.89124 12.87332 0.04381
C 31.89794 11.38876 0.02806
C 33.05979 27.70332 0.03794
C 31.83509 28.40676 -0.01779
C 31.83952 29.83043 0.00682
C 33.14749 30.49219 0.00026
C 30.70362 13.5572 -0.00944
C 29.47603 12.83815 -0.03735
C 29.39709 11.44794 -0.00971
C 30.58331 10.74607 0.01518
C 30.6365 9.36717 0.01908
C 29.41852 8.5829 0.07705
C 29.45833 7.20943 0.0103
C 33.10587 10.68519 0.01504
C 30.73288 6.51775 0.02108
C 29.49454 4.27323 0.00307
C 29.52047 2.83419 0.00346
C 30.73408 2.15409 0.01713
C 30.77214 0.69435 -0.01694
C 29.52148 0.06029 0.01428
C 31.91753 32.65704 -0.02142
C 33.14465 31.89436 0.0544
C 30.63343 5.02136 0.00716
C 30.60256 14.9915 -0.02155
C 33.12221 9.28098 -0.00069
C 31.93156 7.16171 -0.03838
C 34.27854 15.72841 0.02114
C 1.16011 14.99107 -0.02957
C 1.17047 13.60659 0.00343
C 34.4025 12.88243 -0.02656
C 34.38966 11.39225 -0.02442
C 1.17815 10.66269 -0.00027
C 1.16249 9.23388 -0.00583
C 34.3772 8.56613 -0.02302
C 34.41473 7.10523 -0.02849
C 1.18755 6.37394 0.02931
C 1.22544 4.91578 0.00628
C 34.36533 4.29374 -0.0345
C 34.36509 2.87527 -0.00931
C 1.15022 2.23475 -0.00939
C 1.15291 0.68688 -0.00468
C 34.30002 17.14502 0.00648
C 1.12447 17.89864 0.01223
C 1.21199 19.32681 -0.01678
C 34.38418 19.96022 0.01951
C 33.19539 6.42992 0.00349
C 33.13798 5.0095 -0.00323
C 31.93749 4.30246 -0.00841
C 31.96172 2.8513 0.0001
C 33.13975 2.13665 -0.02927
C 33.24025 0.70649 -0.01404
C 32.00615 0.04365 0.01027
C 31.89056 8.58325 0.04926
C 34.37288 32.61013 0.01831
C 1.17763 30.44677 -0.00439
C 0.02024 29.62545 -0.00598
C 34.34564 28.31931 -0.05239
C 34.21847 25.51803 0.03076
C 34.22678 24.36015 0.00723
C 1.46732 21.62565 0.02712
C 0.06024 21.33683 -0.02213
C 1.15527 31.84494 -0.01037
C 3.72746 32.07666 -0.01118
C 29.32469 15.75633 -0.01461
C 30.64683 17.7945 -0.0405
C 25.65959 9.29627 -0.00229
C 24.53224 8.53819 -0.00938
C 24.53293 7.16595 -0.0264
C 25.7502 6.37384 -0.01154
C 25.78002 4.98608 0.00684
C 24.5242 4.18614 -0.01052
C 24.55622 2.84534 -0.01679
C 25.72658 2.21172 0.00367
C 25.81535 0.76175 0.04306
C 24.5841 34.06929 0.00996
C 27.0215 32.67956 0.00195
C 28.27192 32.01537 -0.00802
C 28.18263 30.56758 -0.00218
C 26.94877 29.82685 -0.01654
C 26.76673 28.38173 -0.00037
C 25.78992 10.67408 -0.01199
C 24.3911 11.35749 -0.009
C 24.45764 12.81311 -0.00285
C 25.62068 13.52763 0.01423
C 22.10954 7.10756 -0.01107
C 23.28621 6.32609 -0.01586
C 23.33836 4.92292 -0.01971
C 22.05934 4.28609 -0.02118
C 22.01703 2.87448 0.00733
C 23.30012 2.07783 -0.00178
C 23.32425 0.7428 0.00768
C 28.06353 27.7189 -0.0032
C 22.10215 34.03496 -0.0276
C 25.75843 31.99676 -0.04078
C 25.74137 30.59332 0.02117
C 24.53084 29.98649 0.02737
C 24.46082 28.52067 -0.00498
C 25.43448 27.66682 0.00135
C 25.61143 26.34764 0.03102
C 25.68402 14.89837 0.02555
C 24.55197 32.73154 0.03005
C 29.40014 17.15449 -0.01303
C 28.03881 26.24729 0.00622
C 27.00022 24.19228 -0.00942
C 27.03575 0.02231 0.01324
C 29.44784 32.69417 0.0014
C 30.66346 31.94085 0.00924
C 30.67253 30.51678 0.02326
C 29.39665 29.83448 0.00261
C 29.30696 28.36088 0.03265
C 30.57598 27.6405 -0.02049
C 30.53027 26.28548 -0.01854
C 29.24738 25.5316 -0.01415
C 29.40154 24.06412 -0.03039
C 30.66206 23.44718 0.01836
C 30.73806 22.0512 0.03531
C 29.58459 21.34636 -0.00669
C 29.49734 19.94525 0.0101
C 30.72519 19.2163 0.01705
C 28.2535 0.72844 0.04266
C 28.27719 2.22888 0.01177
C 27.0493 2.85284 -0.00416
C 27.06811 4.34423 0.01699
C 28.08634 23.3562 0.00487
C 28.25148 21.97056 0.00826
C 28.22528 19.43045 -0.00294
C 28.0561 18.06078 0.00152
C 27.05129 17.2 0.01257
C 26.81562 15.81476 0.02316
C 28.09929 15.00242 0.04185
C 26.72739 25.47724 -0.02815
C 28.20351 13.55326 0.00194
C 27.03171 11.32129 0.02611
C 28.30798 10.68219 0.02198
C 28.21535 9.28675 0.01094
C 26.96806 8.54478 0.00235
C 27.01288 7.11953 0.01495
C 28.28942 6.48387 0.01259
C 28.3093 5.02358 0.01799
C 26.96902 12.83513 -0.00621
C 2.38513 32.59524 -0.00131
