419
Graphene
C 34.3635 34.03711 0.01295
C 12.29401 25.67486 0.00943
C 12.28395 24.20161 0.02841
C 13.45171 23.49048 -0.01111
C 13.40277 22.0203 -0.01275
C 12.19746 21.28251 0.00985
C 12.1971 19.93157 -0.02245
C 13.48302 19.27547 -0.00428
C 13.51949 17.75551 0.03101
C 12.25207 17.113 -0.01536
C 12.17479 15.53351 -0.02689
C 13.50586 26.39418 0.00406
C 13.395 14.89378 -0.01046
C 12.23237 12.70388 0.02819
C 12.35387 11.26566 0.00165
C 13.64003 10.58927 -0.02971
C 13.65584 9.16546 0.02894
C 12.4158 8.44662 -0.01789
C 12.29716 7.06666 0.00444
C 13.45617 6.29635 -0.00925
C 13.38271 4.83606 0.01877
C 12.1215 4.12358 0.01363
C 12.23916 2.8175 -0.02162
C 13.43366 13.43172 -0.00891
C 13.55023 2.05319 0.00415
C 13.5642 27.79049 0.03592
C 12.29125 29.92848 0.0402
C 11.00922 19.23069 -0.01004
C 10.98502 17.71219 -0.02896
C 9.75248 16.97338 -0.00131
C 9.7308 15.5271 -0.01118
C 10.98452 14.76636 -0.014
C 10.99171 13.29437 0.02147
C 9.6384 12.36955 0.00373
C 9.77063 10.87945 -0.00191
C 11.1198 10.56994 0.00438
C 11.28584 9.18557 0.01291
C 12.34289 28.56477 0.00572
C 9.9089 8.56655 0.00093
C 11.08287 6.40183 -0.01634
C 11.04313 4.96588 -0.00334
C 9.73401 4.39503 0.02339
C 9.7596 2.9107 0.01641
C 10.95501 2.13553 -0.00719
C 10.98641 0.72499 0.01364
C 9.6945 0.02019 -0.01062
C 12.29927 32.73512 -0.00033
C 13.61271 31.99149 0.03589
C 13.53826 30.61328 -0.02759
C 9.91699 7.1008 0.00057
C 13.43753 0.74687 -0.0014
C 12.26141 0.01198 0.02162
C 14.80733 32.76672 0.0076
C 14.78017 0.07557 0.01848
C 17.22343 32.71608 -0.00619
C 18.46609 31.98801 -0.02162
C 18.5122 30.48007 0.00889
C 17.27615 29.90147 -0.00481
C 17.20528 28.46224 0.00979
C 18.41902 27.68097 0.01443
C 18.47216 26.28944 0.03505
C 17.24677 25.57782 -0.02815
C 17.20702 24.14535 -0.04147
C 16.01475 0.81383 0.02098
C 18.39914 23.41453 -0.05302
C 17.10112 21.23516 -0.00066
C 17.1802 19.75583 -0.00289
C 18.36154 19.06695 0.00028
C 18.40138 17.69409 -0.02213
C 17.1391 16.96961 0.03698
C 17.15343 15.61688 -0.00109
C 18.44467 14.96323 -0.00491
C 18.42076 13.58759 0.03338
C 17.29134 12.89998 -0.0258
C 17.02168 4.29175 -0.0331
C 18.37666 22.02944 0.00213
C 15.99031 2.20653 -0.03113
C 14.69138 2.88259 0.0351
C 14.66897 4.22956 0.00422
C 16.04091 32.05471 0.01241
C 16.00107 30.5945 -0.01454
C 14.79406 29.86814 0.01945
C 14.848 28.40228 0.01416
C 16.053 27.70825 0.03542
C 15.94295 26.3281 0.02299
C 14.731 25.66103 0.00244
C 14.71976 24.19943 -0.01717
C 15.9487 23.46115 0.05265
C 15.8955 22.03063 -0.01952
C 14.60435 21.38795 -0.02813
C 14.73688 19.99867 0.00374
C 15.88941 19.1357 0.00052
C 15.93204 17.68901 -0.03682
C 14.70371 16.97364 0.01965
C 14.63721 15.58789 0.02058
C 15.91949 14.8581 -0.01957
C 16.02429 13.38579 -0.0108
C 14.79955 12.6432 -0.00368
C 14.87575 11.32133 -0.02696
C 14.80615 8.18867 -0.00114
C 14.73223 6.90684 0.00228
C 15.85862 4.9705 0.00798
C 9.80182 19.9385 0.00488
C 17.22566 2.88007 -0.00316
C 9.84464 21.37517 0.01745
C 11.05067 23.50586 -0.01384
C 2.38862 2.90811 0.00208
C 3.58201 2.17571 0.01707
C 3.58615 0.7968 0.02769
C 2.38658 0.01596 -0.03291
C 4.89353 32.73349 -0.04999
C 6.10904 31.98289 0.04505
C 6.11779 30.54551 0.03284
C 4.8671 29.82065 -0.04307
C 4.87034 28.41117 0.03189
C 6.08923 27.81388 0.00031
C 2.37491 4.28109 -0.00561
C 6.13054 26.29056 -0.003
C 4.81708 24.16154 0.02379
C 6.08711 23.46318 0.00907
C 6.09056 22.10667 0.00643
C 4.88439 21.30449 -0.01509
C 4.87697 19.92483 0.03267
C 6.16368 19.19273 0.02374
C 6.17503 17.77586 0.00402
C 4.89112 17.09362 0.0073
C 4.91707 15.67377 0.0174
C 6.03768 14.88721 0.03828
C 4.95728 25.59947 0.01402
C 6.07435 13.44835 0.01226
C 3.64927 5.07606 -0.01977
C 2.4995 7.12894 -0.01979
C 3.65533 30.53451 0.00662
C 2.4873 29.81399 -0.0154
C 2.43329 28.36233 -0.01299
C 3.65638 27.67353 -0.00407
C 3.7011 26.30475 0.01138
C 2.47937 25.5728 0.03278
C 2.40222 24.13125 -0.00177
C 3.64759 23.41892 0.04421
C 3.62823 22.01271 0.00088
C 2.46975 21.29254 0.00828
C 3.74752 6.46065 0.02784
C 2.37736 19.82063 -0.02375
C 3.68773 17.72796 -0.0059
C 2.37461 17.04621 -0.01386
C 2.35552 15.69297 -0.02805
C 3.58818 14.9798 0.00081
C 3.53087 13.58722 0.00245
C 2.38008 12.78211 0.02728
C 2.44139 11.40617 -0.00039
C 3.67541 10.79597 0.0064
C 3.67155 9.31237 0.00211
C 2.41552 8.51319 -0.00449
C 3.60292 19.18387 0.00558
C 4.73935 12.93415 -0.00279
C 4.92321 11.45843 0.01996
C 6.26172 11.05784 -0.03996
C 8.50191 14.73347 -0.01378
C 8.40223 13.15904 0.02635
C 7.09531 12.53793 0.0127
C 8.95555 9.56341 0.01396
C 7.53916 8.83411 0.01849
C 7.48971 7.40009 -0.01142
C 8.64094 6.50184 -0.00562
C 8.48615 5.0636 -0.00494
C 7.25804 4.36748 0.00054
C 7.31958 2.91761 0.03007
C 7.31227 15.53642 -0.01303
C 8.55337 2.16454 -0.00095
C 7.25615 0.08116 -0.04848
C 9.7638 32.74933 -0.00892
C 11.07024 32.0075 -0.01362
C 11.03736 30.57196 -0.0008
C 9.75793 29.90169 0.0288
C 9.76193 28.48143 0.00393
C 11.04464 27.83961 0.00895
C 11.03668 26.34921 0.00685
C 9.79826 25.65306 0.02888
C 9.85616 24.21414 -0.00482
C 8.49187 0.74698 0.01572
C 7.35993 17.08808 0.00848
C 8.58792 17.78469 -0.00049
C 8.5769 19.21946 0.00873
C 6.27623 9.58733 0.01465
C 4.98461 8.77328 -0.00074
C 4.93829 7.30005 -0.00518
C 6.20589 6.70956 0.0086
C 6.05172 5.16505 -0.00643
C 4.81549 4.36485 0.017
C 4.85867 2.97478 -0.03113
C 6.08781 2.15858 -0.02566
C 6.0369 0.76243 -0.00094
C 4.78528 0.0727 0.02322
C 7.38819 32.82916 -0.00725
C 8.54117 31.99373 -0.05697
C 8.58952 30.60503 0.01087
C 7.34412 29.8963 -0.01343
C 7.38508 28.47106 0.00988
C 8.59375 27.7827 0.0276
C 8.56017 26.35029 0.01305
C 7.37008 25.6001 -0.00077
C 7.38654 24.15018 0.03368
C 8.62116 23.53415 -0.02929
C 8.6258 22.08915 -0.00966
C 7.35787 21.38505 -0.03337
C 7.4411 19.97113 0.01227
C 11.06479 22.08033 0.03693
C 3.69096 31.9969 0.00748
C 18.44383 2.19635 0.02188
C 17.22815 0.04333 0.02691
C 29.51817 11.32347 -0.02155
C 30.71704 10.66933 -0.00944
C 30.73041 9.16024 -0.03735
C 29.41294 8.51712 -0.00971
C 29.4612 7.08512 0.01518
C 30.68292 6.34101 0.01908
C 30.69008 4.94523 0.07705
C 29.46754 4.28232 0.0103
C 29.45561 2.84102 0.02108
C 30.77509 2.07561 0.00716
C 29.39103 12.72797 -0.01461
C 30.75334 0.68751 0.00307
C 31.99277 32.57183 0.01713
C 33.17794 31.89053 -0.01694
C 33.20582 30.49916 0.01428
C 31.99565 29.8041 -0.02142
C 32.02019 28.40369 0.0544
C 33.16427 27.62651 0.00026
C 33.19162 26.23963 0.00682
C 31.93336 25.54758 -0.01779
C 31.93987 24.04281 0.03794
C 33.13936 23.32944 0.01927
C 29.47065 0.05611 0.00346
C 33.07816 21.99161 0.01574
C 30.66207 13.47331 -0.01303
C 29.52428 15.59392 0.01705
C 28.20761 4.9873 0.00235
C 27.0619 4.16245 0.01495
C 27.0273 2.84264 0.01259
C 28.1459 2.06728 0.01799
C 28.21015 0.7016 0.01699
C 26.97396 0.00181 -0.00416
C 29.49744 32.73488 0.01177
C 30.66936 31.98105 0.04266
C 30.73199 30.54253 0.01324
C 29.53423 29.80342 0.0014
C 30.70346 14.90302 -0.0405
C 29.54095 28.40049 0.00924
C 30.72575 26.25902 0.00261
C 29.46823 25.50964 0.03265
C 29.46891 24.11869 -0.02049
C 30.71253 23.41736 -0.01854
C 30.70571 22.03562 -0.01415
C 29.48411 21.24938 -0.03039
C 29.44911 19.80776 0.01836
C 30.72283 19.14969 0.03531
C 30.71053 17.67837 -0.00669
C 29.50544 17.0094 0.0101
C 30.79483 27.74186 0.02326
C 31.86103 21.25681 -0.02383
C 31.91264 19.84482 -0.01429
C 33.16273 19.13351 -0.0136
C 1.17418 23.39112 0.00723
C 1.24075 21.93678 0.02712
C 34.34335 21.32672 -0.02213
C 34.37905 19.91609 0.01951
C 1.14969 19.15763 -0.01678
C 1.18703 17.72025 0.01223
C 34.41615 17.01513 0.00648
C 34.42131 15.53401 0.02114
C 1.20882 14.84518 -0.02957
C 1.22435 13.47113 0.00343
C 34.38424 24.05744 0.03076
C 34.40173 12.84788 -0.02656
C 1.16682 10.62001 -0.00027
C 1.17197 9.21999 -0.00583
C 34.32939 8.47911 -0.02302
C 34.33552 7.06549 -0.02849
C 1.22646 6.39848 0.02931
C 1.17874 4.97549 0.00628
C 34.36713 4.21512 -0.0345
C 34.38921 2.82128 -0.00931
C 1.1487 2.14944 -0.00939
C 1.14031 0.76735 -0.00468
C 34.39796 11.36881 -0.02442
C 34.41366 25.50244 -0.05239
C 1.18542 26.26116 -0.00598
C 1.18982 27.75153 -0.00439
C 33.22819 17.65382 0.00594
C 31.94763 17.01457 -0.02474
C 31.95551 15.64893 0.00369
C 33.13233 14.92326 0.00455
C 33.15618 13.52382 -0.00644
C 31.92419 12.74316 -0.01839
C 31.94908 11.35929 0.00137
C 33.15379 10.6049 0.00199
C 33.10461 9.16508 0.04381
C 31.87826 8.44452 0.02806
C 31.94254 6.99083 0.01504
C 33.1708 6.30211 -0.00069
C 33.20895 4.92223 0.04926
C 31.93646 4.29314 -0.03838
C 31.95769 2.8295 0.00349
C 33.14184 2.09997 -0.00323
C 33.11968 0.69664 -0.00841
C 31.95158 33.92879 0.0001
C 34.41469 32.64313 -0.02927
C 1.19234 31.95686 -0.01404
C 1.21191 30.5325 0.01027
C 34.41884 29.83844 0.01831
C 34.36935 28.36713 -0.01037
C 28.16139 6.38523 0.01094
C 18.45293 0.79215 -0.01979
C 27.00429 7.1279 0.02198
C 28.28799 9.3104 -0.00621
C 22.13043 29.84757 0.0106
C 22.15892 28.37021 -0.01154
C 23.36761 27.70244 -0.01721
C 23.45081 26.31079 -0.02422
C 22.20121 25.55406 0.01277
C 22.15884 24.12962 0.00096
C 23.3653 23.36267 -0.01527
C 23.29995 21.95768 0.01087
C 22.13348 21.2455 0.00199
C 22.12495 19.77888 0.01511
C 23.40337 30.601 -0.01594
C 23.2701 19.07225 -0.00478
C 22.06354 17.07946 -0.01185
C 22.04428 15.60384 0.01126
C 23.34456 14.84318 0.01852
C 23.23921 13.42376 -0.00381
C 21.94209 12.95295 0.03046
C 22.19457 2.95376 0.0296
C 23.35119 2.16433 0.03374
C 23.3227 0.75222 -0.02845
C 22.06034 0.15693 -0.03213
C 24.5735 32.72357 0.02239
C 23.33424 17.71419 -0.01662
C 25.74184 31.9502 0.01153
C 23.39109 32.04533 0.00742
C 19.67374 0.10716 0.00675
C 19.70829 32.71343 -0.01581
C 20.91431 32.01117 0.01452
C 20.98649 30.6184 0.04892
C 19.71602 29.80964 -0.00111
C 19.72841 28.41697 -0.03557
C 20.8259 27.53879 0.03754
C 20.92348 26.14065 0.01739
C 19.71188 25.476 0.00755
C 19.60538 24.06587 -0.0054
C 20.92196 23.38725 0.00667
C 22.15897 32.77548 -0.00311
C 20.88255 21.96575 0.00143
C 19.60204 19.85133 0.00364
C 20.76846 19.18999 -0.00831
C 20.86697 17.80164 -0.02957
C 19.5999 17.12226 -0.04422
C 19.64049 15.70032 0.00654
C 20.77547 14.97768 -0.00703
C 20.75753 13.56192 -0.04076
C 19.56466 2.9946 -0.00652
C 20.8949 2.38536 0.0058
C 20.91483 0.91055 -0.00865
C 19.62891 21.37333 -0.017
C 25.87173 30.52639 0.02734
C 24.6731 29.80546 -0.0055
C 24.56187 28.40881 0.01515
C 26.9374 32.69364 -0.01052
C 28.19925 32.04296 -0.01679
C 28.29692 30.58267 0.00367
C 27.11606 29.84236 0.04306
C 27.11691 28.41504 0.00996
C 28.386 27.66621 0.00195
C 28.25124 26.22429 -0.00802
C 27.09476 25.46945 -0.00218
C 27.14229 24.11188 -0.01654
C 28.30425 23.4079 -0.00037
C 24.60656 0.15548 0.00684
C 28.2329 21.91955 -0.0032
C 27.02982 19.81745 -0.02815
C 28.23816 19.08024 -0.00942
C 28.29768 17.66323 0.00487
C 27.02372 16.9753 0.00826
C 27.0141 15.53591 -0.00294
C 28.23012 14.84916 0.00152
C 28.13314 13.40152 0.01257
C 26.99386 12.62565 0.02316
C 26.99835 11.25516 0.04185
C 28.28145 10.65716 0.00194
C 27.04046 21.24972 0.00622
C 25.77877 0.75006 -0.01154
C 25.79469 2.14551 -0.0264
C 24.51557 2.90416 -0.00938
C 25.86121 27.74405 -0.00225
C 25.84916 26.20968 0.00071
C 24.60917 25.48121 -0.01107
C 24.53932 24.06211 -0.01586
C 25.87434 23.35982 -0.01971
C 25.81606 21.89467 -0.02118
C 24.51499 21.25322 0.00733
C 24.46513 19.86619 -0.00178
C 25.73149 19.1431 0.00768
C 25.76887 17.67132 -0.0276
C 24.52864 16.92039 0.03005
C 24.54657 15.55343 -0.04078
C 25.77853 14.8002 0.02117
C 25.76948 13.38826 0.02737
C 24.45909 12.66126 -0.00498
C 24.52129 11.31613 0.00135
C 25.72319 10.66017 0.03102
C 25.84085 9.21325 0.02555
C 24.68294 8.59788 0.01423
C 24.67064 7.14195 -0.00285
C 25.74687 6.38275 -0.009
C 25.77626 5.00843 -0.01199
C 24.51145 4.2561 -0.00229
C 27.07343 8.49749 0.02611
C 2.43569 32.67619 0.03345
