346
Graphene
C 0.04395 34.05471 0.01295
C 12.05125 8.42299 -0.03113
C 12.27659 7.02303 0.02098
C 13.53691 6.29762 0.01848
C 13.52272 4.93416 -0.00619
C 12.19499 4.32009 -0.02162
C 12.20804 2.85304 0.00889
C 13.49729 2.19042 -0.00481
C 13.4506 0.7928 0.00979
C 12.25655 0.11667 0.01443
C 14.64332 32.73971 0.03505
C 15.89746 32.01226 -0.02815
C 15.96375 30.62254 -0.04147
C 14.72182 30.00167 -0.05302
C 14.82796 28.53312 0.00213
C 15.8563 27.59097 -0.00066
C 14.43 12.81652 -0.00289
C 14.49338 11.43754 0.00028
C 13.32509 9.07957 0.0351
C 13.21407 10.56427 0.00422
C 11.98916 11.26816 0.00798
C 12.15981 12.55211 0.00228
C 11.07438 6.45073 0.01416
C 11.02196 5.03598 0.03542
C 9.86447 4.31761 0.02299
C 9.82137 2.91299 0.00244
C 10.9684 2.05508 -0.01717
C 11.00938 0.66413 0.05265
C 9.70944 34.00099 -0.01952
C 12.18786 32.80999 -0.02813
C 15.824 10.68292 -0.02213
C 13.45933 32.09106 0.00374
C 12.34964 29.93234 -0.03682
C 12.34878 28.52062 0.01965
C 13.59327 27.79636 0.02058
C 13.73921 26.52309 -0.01957
C 12.52219 25.64057 -0.0108
C 12.36637 24.32631 -0.00368
C 13.56382 14.91522 -0.02696
C 13.19875 13.1806 -0.00114
C 13.51459 30.68887 0.00052
C 9.91606 7.46429 0.01945
C 15.80461 9.22717 0.03698
C 14.68613 6.97487 -0.00491
C 18.40884 2.12976 -0.04422
C 18.43697 0.70345 0.00654
C 17.23186 34.01046 -0.00703
C 19.62689 32.58065 -0.04076
C 20.84001 31.86092 -0.00652
C 20.82036 30.47548 0.0058
C 19.6349 29.73041 -0.00865
C 19.5881 28.17549 0.00675
C 20.89927 27.66362 -0.00311
C 19.58332 11.30508 0.00742
C 20.83017 10.85984 -0.01594
C 20.85888 9.38569 0.0106
C 19.60941 8.61739 -0.01154
C 19.65747 7.21899 -0.01721
C 20.85538 6.45787 -0.02422
C 20.89866 5.07126 0.01277
C 19.67278 4.29191 0.00096
C 17.2046 2.90469 -0.02957
C 17.24929 4.30918 -0.00831
C 18.40645 5.03518 0.00364
C 18.40777 6.44572 -0.017
C 15.93071 6.41496 0.03338
C 15.98191 4.99033 -0.0258
C 14.76096 4.26232 -0.0331
C 14.76418 2.86595 -0.00316
C 16.04371 2.15518 0.02188
C 15.96334 0.73901 -0.01979
C 14.69341 0.06471 0.02691
C 17.20209 32.59395 -0.01581
C 14.64008 8.36609 -0.00109
C 18.47669 31.80689 0.01452
C 17.12651 29.80634 -0.00111
C 17.11863 28.25344 -0.03557
C 18.34349 27.73686 0.03754
C 17.07681 11.40124 0.01739
C 18.30415 10.83401 0.00755
C 18.33606 9.26157 -0.0054
C 17.10307 8.63548 0.00667
C 17.17814 7.12158 0.00143
C 18.42456 30.36541 0.04892
C 10.64217 8.52104 -0.01454
C 9.68767 17.27541 0.01241
C 10.75554 17.76757 0.0076
C 3.64187 0.67865 0.0288
C 2.42584 0.04401 0.00393
C 4.92358 32.68383 0.00895
C 6.11293 31.96991 0.00685
C 6.14236 30.52603 0.02888
C 4.95014 29.84096 -0.00482
C 4.84437 28.39799 -0.01384
C 6.08674 27.69342 0.03693
C 6.21372 26.27621 0.01745
C 4.97303 25.60079 0.00488
C 4.88592 24.1915 -0.01004
C 6.1721 23.4867 -0.02896
C 6.11928 22.1402 -0.00131
C 4.89851 21.41111 -0.01118
C 4.91002 19.93422 -0.014
C 6.12413 19.31298 0.02147
C 4.81513 7.17213 0.00373
C 3.63868 2.03496 -0.0008
C 2.44058 2.75609 -0.01362
C 2.47268 4.15269 -0.00892
C 3.70075 4.90845 -0.04848
C 3.67774 30.46637 -0.03337
C 2.45197 29.82025 0.01227
C 2.44788 28.42766 0.00873
C 3.6369 27.69933 -0.00049
C 3.67693 26.28678 0.00848
C 2.47401 25.61502 -0.01303
C 2.40013 24.18004 -0.01378
C 3.67022 23.48129 0.02635
C 6.05183 6.70106 -0.00191
C 3.66819 22.13568 0.0127
C 2.40419 19.97379 0.01849
C 3.72687 19.22789 -0.01142
C 3.66497 17.8053 -0.00562
C 2.63126 16.92386 -0.00494
C 2.31732 15.65481 0.00054
C 2.53186 8.52371 0.03007
C 2.45952 7.06502 -0.00095
C 3.62926 6.30057 0.01572
C 2.47108 21.32541 0.01396
C 6.13362 5.05122 0.00438
C 4.97776 4.23093 0.01291
C 4.84947 2.82826 0.00093
C 7.38699 3.00581 0.03101
C 8.56087 2.17298 -0.01536
C 8.57352 0.75134 -0.02689
C 7.38366 0.03674 -0.01046
C 9.84629 32.65403 -0.00891
C 11.0567 32.00388 0.02819
C 11.03655 30.63407 0.00165
C 9.84564 29.90555 -0.02971
C 7.38963 4.44706 -0.00428
C 9.86922 28.44432 0.02894
C 11.22607 26.30744 0.00444
C 10.00676 25.6351 -0.00925
C 10.00281 24.23934 0.01877
C 11.31831 23.44524 0.01363
C 11.14006 22.09761 -0.02162
C 9.94859 21.47157 0.00415
C 9.88658 19.94949 -0.0014
C 10.94742 19.12088 0.02162
C 11.15163 27.79829 -0.01789
C 19.65893 2.86767 -0.01527
C 8.61807 5.16257 -0.02245
C 7.37466 7.25418 -0.01275
C 6.07646 2.19643 0.00057
C 6.12027 0.76831 -0.01634
C 4.87329 34.06013 -0.00334
C 7.35665 32.63154 0.02339
C 8.61067 31.93919 0.01641
C 8.61576 30.5233 -0.00719
C 7.30972 29.82922 0.01364
C 7.3525 28.40521 -0.01062
C 8.7065 6.74953 0.00985
C 8.63266 27.64634 -0.00033
C 7.46314 25.57216 -0.02759
C 7.41047 24.22212 0.0402
C 8.68309 23.52381 0.00572
C 8.64892 22.0864 0.03592
C 7.32557 21.39294 0.00406
C 7.35154 19.94987 0.00943
C 8.57153 19.1989 0.02841
C 8.55556 17.74662 -0.01111
C 8.67284 26.27201 0.03589
C 20.85996 2.07001 0.01087
C 20.80585 0.73397 0.00199
C 19.62132 34.03336 0.01511
C 33.13711 30.52777 0.01428
C 31.89208 29.80748 -0.02142
C 31.91109 28.43863 0.0544
C 33.10934 27.70416 0.00026
C 33.15073 26.23708 0.00682
C 31.95843 25.58944 -0.01779
C 31.94138 24.22284 0.03794
C 33.14265 23.482 0.01927
C 33.14067 22.06715 0.01574
C 31.95253 21.35926 -0.02383
C 31.92144 20.0049 -0.01429
C 33.11458 19.16456 -0.0136
C 33.19651 17.77552 0.00594
C 31.99411 17.05417 -0.02474
C 31.90469 15.62064 0.00369
C 33.0524 14.88557 0.00455
C 33.14706 13.45232 -0.00644
C 33.20279 32.01416 -0.01694
C 31.90036 32.65017 0.01713
C 29.53233 34.02874 0.00346
C 30.75754 0.6429 0.00307
C 29.46894 19.96075 0.01836
C 30.65685 19.23873 0.03531
C 30.82039 17.80576 -0.00669
C 29.48818 17.20362 0.0101
C 29.49113 15.70182 0.01705
C 30.74671 15.0009 -0.0405
C 30.66692 13.5823 -0.01303
C 29.41931 12.82521 -0.01461
C 31.85259 12.84176 -0.01839
C 29.47255 11.3807 -0.02155
C 30.69526 9.2232 -0.03735
C 29.45913 8.45858 -0.00971
C 29.47558 7.08268 0.01518
C 30.73367 6.40208 0.01908
C 30.75147 4.98248 0.07705
C 29.46365 4.18005 0.0103
C 29.45607 2.81164 0.02108
C 30.71 2.07248 0.00716
C 30.655 10.57482 -0.00944
C 31.87005 11.33855 0.00137
C 33.11015 10.63823 0.00199
C 33.12893 9.24021 0.04381
C 1.26112 19.16708 -0.01678
C 1.29942 17.75193 0.01223
C 0.0191 17.10249 0.00648
C 34.26604 15.60939 0.02114
C 1.15394 14.90228 -0.02957
C 1.28418 13.40115 0.00343
C 34.38567 12.75039 -0.02656
C 34.39898 11.35705 -0.02442
C 34.38701 19.88128 0.01951
C 1.24014 10.751 -0.00027
C 34.41631 8.6294 -0.02302
C 34.4304 7.18544 -0.02849
C 1.16295 6.40115 0.02931
C 1.188 5.02208 0.00628
C 34.40299 4.23059 -0.0345
C 34.42989 2.85621 -0.00931
C 1.23091 2.05293 -0.00939
C 1.2313 0.67484 -0.00468
C 1.40491 9.38325 -0.00583
C 29.52302 21.33477 -0.03039
C 34.36973 21.31007 -0.02213
C 1.17118 23.46181 0.00723
C 31.92518 8.42768 0.02806
C 32.00883 7.06416 0.01504
C 33.24913 6.39273 -0.00069
C 33.21877 5.00187 0.04926
C 31.90943 4.23908 -0.03838
C 31.9079 2.84297 0.00349
C 33.16622 2.12764 -0.00323
C 33.23181 0.69676 -0.00841
C 1.12125 22.09677 0.02712
C 31.98272 0.05523 0.0001
C 1.21494 31.88429 -0.01404
C 1.17152 30.52044 0.01027
C 34.40609 29.78769 0.01831
C 34.3571 28.38905 -0.01037
C 1.21087 27.67524 -0.00439
C 1.15082 26.31343 -0.00598
C 34.41536 25.5689 -0.05239
C 34.32532 24.11431 0.03076
C 0.00322 32.5708 -0.02927
C 3.65777 31.93172 -0.00966
C 30.70852 22.15186 -0.01415
C 29.49998 24.15044 -0.02049
C 24.47787 29.74816 0.00733
C 24.53254 28.30926 -0.00178
C 25.68818 27.59424 0.00768
C 25.80452 26.15212 -0.0276
C 24.40864 25.66062 0.03005
C 26.03014 22.80308 -0.04078
C 25.77064 14.92085 0.02117
C 25.62358 13.59445 0.02737
C 24.48257 12.75161 -0.00498
C 24.58683 11.36515 0.00135
C 25.79042 10.68226 0.03102
C 25.7525 9.2522 0.02555
C 24.54425 8.51696 0.01423
C 24.58134 7.07421 -0.00285
C 25.84412 6.34351 -0.009
C 25.84958 4.9402 -0.01199
C 24.52345 4.32766 -0.00229
C 25.70517 30.4295 -0.02118
C 25.75653 31.89396 -0.01971
C 24.61804 32.59695 -0.01586
C 22.09636 34.05865 -0.01107
C 22.10843 32.58006 -0.00478
C 23.36613 31.89573 -0.01662
C 23.30876 30.43121 -0.01185
C 22.14933 29.81041 0.01126
C 22.10843 28.35203 0.01852
C 23.28603 27.6474 -0.00381
C 23.4879 26.35038 0.03046
C 22.19055 11.31671 0.0296
C 24.59695 2.84157 -0.00938
C 23.36803 10.70263 0.03374
C 22.07203 8.51422 -0.03213
C 22.11002 7.11614 0.02239
C 23.39237 6.50163 0.01153
C 23.26829 5.01918 0.02734
C 22.09054 4.24341 -0.0055
C 22.05906 2.76155 0.01515
C 23.30555 2.04636 -0.00225
C 23.39346 0.64386 0.00071
C 23.3194 9.22022 -0.02845
C 25.81615 2.07914 -0.0264
C 25.83763 0.68128 -0.01154
C 24.59864 34.01048 0.00684
C 28.20945 9.26212 -0.00621
C 27.03814 8.54157 0.02611
C 27.06173 7.05612 0.02198
C 28.31744 6.40542 0.01094
C 28.32905 4.97285 0.00235
C 27.06276 4.30915 0.01495
C 27.02617 2.86006 0.01259
C 28.19196 2.07234 0.01799
C 28.1571 10.67736 0.00194
C 28.23439 0.60852 0.01699
C 29.43747 32.65726 0.01177
C 30.72651 31.93015 0.04266
C 30.71056 30.53015 0.01324
C 29.40623 29.87689 0.0014
C 29.37139 28.46609 0.00924
C 30.62061 27.77868 0.02326
C 30.70094 26.35178 0.00261
C 29.43647 25.62928 0.03265
C 26.9808 0.00238 -0.00416
C 30.74358 23.52589 -0.01854
C 26.96241 11.46281 0.04185
C 28.20029 13.59563 0.01257
C 26.94033 32.58089 -0.01052
C 28.24486 31.94942 -0.01679
C 28.17565 30.50275 0.00367
C 26.93909 29.74875 0.04306
C 26.91106 28.348 0.00996
C 28.16386 27.66732 0.00195
C 28.19574 26.21405 -0.00802
C 26.94897 25.4072 -0.00218
C 26.93866 12.84371 0.02316
C 26.8978 24.03133 -0.01654
C 28.33211 22.06882 -0.0032
C 26.89243 21.72019 0.00622
C 27.04456 20.25896 -0.02815
C 28.11925 19.42554 -0.00942
C 28.16548 17.96608 0.00487
C 26.99418 17.26856 0.00826
C 26.81819 15.88946 -0.00294
C 28.2249 15.06038 0.00152
C 28.2858 23.41288 -0.00037
C 2.43978 32.58838 -0.02929
