403
Graphene
C 0.01887 0.02868 0.01295
C 13.60767 21.98317 -0.00891
C 12.27038 21.36829 0.02819
C 12.30422 19.92735 0.00165
C 13.5489 19.15711 -0.02971
C 13.56684 17.79236 0.02894
C 12.30964 17.07837 -0.01789
C 12.24643 15.59983 0.00444
C 13.47266 14.89005 -0.00925
C 13.49871 13.38247 0.01877
C 12.30136 12.75085 0.01363
C 12.35735 11.37816 -0.02162
C 13.55612 10.61269 0.00415
C 13.56921 9.21562 -0.0014
C 12.35357 8.50416 0.02162
C 12.2662 7.16515 0.0076
C 13.52747 6.35026 0.01241
C 13.52495 4.8831 -0.01454
C 12.23956 4.22513 0.01945
C 12.33869 2.7919 0.01416
C 13.47612 2.10952 0.03542
C 13.51629 0.74633 0.02299
C 13.53903 23.3964 -0.01046
C 12.27553 0.04396 0.00244
C 12.21233 24.19744 -0.02689
C 13.54869 26.30987 0.03101
C 11.08906 14.93363 -0.01634
C 11.10904 13.52056 -0.00334
C 9.86994 12.80464 0.02339
C 9.83809 11.38708 0.01641
C 11.09917 10.65677 -0.00719
C 11.10636 9.27253 0.01364
C 9.85389 8.6318 -0.01062
C 9.8064 7.12813 -0.00033
C 11.03336 6.45399 0.03589
C 11.07684 4.91028 -0.02759
C 9.84712 4.25996 0.0402
C 9.85904 2.87185 0.00572
C 11.12808 2.13293 0.03592
C 11.03722 0.6653 0.00406
C 9.81892 0.02909 0.00943
C 12.30173 32.63351 0.02841
C 13.45962 31.94429 -0.01111
C 13.55187 30.53672 -0.01275
C 12.38267 29.83566 0.00985
C 12.29262 28.43644 -0.02245
C 13.53658 27.71353 -0.00428
C 12.2467 25.6479 -0.01536
C 14.74203 32.67596 -0.01717
C 15.97203 31.87237 0.05265
C 15.98487 30.46788 -0.01952
C 16.00454 2.19576 -0.04147
C 15.98731 0.70143 -0.05302
C 14.72719 0.01107 0.00213
C 17.19571 32.66658 -0.00066
C 18.47006 31.93815 -0.00289
C 18.52994 30.59321 0.00028
C 17.24294 29.78255 -0.02213
C 17.23316 28.39696 0.03698
C 18.45791 27.64703 -0.00109
C 18.47719 26.18902 -0.00491
C 17.16166 25.55235 0.03338
C 17.19846 24.11873 -0.0258
C 18.46584 23.38595 -0.0331
C 18.44006 21.98694 -0.00316
C 17.1896 21.33927 0.02188
C 17.18609 19.88371 -0.01979
C 18.42713 19.20201 0.02691
C 18.39189 17.80659 -0.01581
C 17.20053 17.07094 0.01452
C 17.20224 15.6229 0.04892
C 18.5009 14.87814 -0.00111
C 14.76296 2.83253 -0.02815
C 14.76671 4.26486 0.03505
C 15.99676 5.01335 0.01443
C 16.01411 6.41238 0.00979
C 14.74953 29.8168 -0.02813
C 14.7581 28.35229 0.00374
C 15.95409 27.66196 0.00052
C 15.9869 26.27404 -0.03682
C 14.80478 25.58971 0.01965
C 14.73311 24.13737 0.02058
C 15.95058 23.4379 -0.01957
C 15.94565 22.03433 -0.0108
C 14.76978 21.27398 -0.00368
C 14.71492 19.86327 -0.02696
C 9.83696 15.63071 0.00057
C 16.02731 19.1495 -0.00114
C 14.72917 17.02695 0.00798
C 14.72197 15.56912 0.00422
C 15.94615 14.86955 0.0351
C 15.98783 13.4463 -0.03113
C 14.71076 12.73724 0.02098
C 14.78111 11.32613 0.01848
C 16.03799 10.66982 -0.00619
C 15.95798 9.29155 -0.02162
C 14.77947 8.49437 0.00889
C 14.71473 7.11197 -0.00481
C 15.96558 17.76464 0.00228
C 18.45264 13.52093 -0.03557
C 9.85178 16.97798 0.00093
C 11.06492 19.19775 0.00438
C 6.10687 31.9738 -0.01509
C 6.1293 30.52808 0.03267
C 4.93046 29.83367 0.02374
C 4.9334 28.45119 0.00402
C 6.17493 27.64913 0.0073
C 6.15882 26.29765 0.0174
C 4.93225 25.57196 0.03828
C 4.90679 24.15903 0.01226
C 6.08147 23.51142 -0.00279
C 6.15879 22.05419 0.01996
C 4.90633 21.27098 -0.03996
C 4.91221 19.86404 0.01465
C 6.087 19.21544 -0.00074
C 6.18681 13.4267 -0.00518
C 5.03284 12.81634 0.0086
C 4.90509 11.35941 -0.00643
C 6.21865 10.63746 0.017
C 6.16205 9.21858 -0.03113
C 4.87298 8.50348 -0.02566
C 4.87749 7.17984 -0.00094
C 6.13534 6.3803 0.02322
C 4.9432 32.65527 0.00643
C 6.1368 4.96979 -0.00725
C 2.50585 34.07229 0.00907
C 3.64137 2.10538 0.01402
C 3.73725 30.51244 0.00245
C 2.3846 29.78778 0.02728
C 2.41766 28.47303 -0.00039
C 3.63688 27.73379 0.0064
C 3.67529 26.2761 0.00211
C 2.49704 25.57628 -0.00449
C 2.457 24.04505 -0.01979
C 3.72138 23.43117 0.02784
C 3.6985 22.05477 -0.01977
C 2.44951 21.32112 -0.00561
C 2.43512 19.86462 0.00208
C 2.40359 12.75412 0.01707
C 2.46148 11.36869 0.02769
C 3.74783 10.632 -0.03291
C 3.70817 9.19415 -0.04999
C 2.47058 8.53998 0.04505
C 2.45159 7.14087 0.03284
C 3.63497 6.38141 -0.04307
C 3.73098 4.95022 0.03189
C 2.5126 4.26291 0.00031
C 2.47893 2.89749 -0.003
C 3.64363 0.63093 0.02379
C 4.90516 4.24666 -0.05697
C 4.86541 2.85956 0.01087
C 6.09364 2.07971 -0.01343
C 7.36857 7.08515 -0.00892
C 8.58113 6.42322 -0.01362
C 8.58606 5.01504 -0.0008
C 7.41808 4.21244 0.0288
C 7.36429 2.87003 0.00393
C 8.59893 2.16766 0.00895
C 8.6307 0.74504 0.00685
C 7.36675 34.07133 0.02888
C 9.83892 32.66121 -0.00482
C 11.08875 31.96927 -0.01384
C 11.06893 30.52453 0.03693
C 9.80073 29.8544 0.01745
C 9.85595 28.40024 0.00488
C 11.05812 27.75746 -0.01004
C 11.05352 26.33413 -0.02896
C 9.87729 25.62077 -0.00131
C 9.80355 24.21779 -0.01118
C 11.03022 23.46778 -0.014
C 11.07761 22.03274 0.02147
C 9.78029 21.31503 0.00373
C 9.85055 19.92977 -0.00191
C 7.37686 8.49546 -0.04848
C 8.60598 9.22456 0.01572
C 8.58559 10.685 -0.00095
C 7.35249 11.39967 0.03007
C 6.14914 0.71559 0.00988
C 4.8474 0.00847 0.0276
C 7.32707 32.70159 0.01305
C 8.59678 31.94004 -0.00077
C 8.62768 30.52771 0.03368
C 7.34662 29.86433 -0.02929
C 7.35813 28.42449 -0.00966
C 8.64338 27.74819 -0.03337
C 8.63639 26.2405 0.01227
C 7.39223 25.58965 0.00873
C 11.01262 17.75759 0.01291
C 7.38711 24.14705 -0.00049
C 8.59648 22.05294 -0.01303
C 7.30508 21.3241 -0.01378
C 7.32978 19.88027 0.02635
C 8.59521 19.13402 0.0127
C 8.61421 17.78961 0.01396
C 7.33037 17.03925 0.01849
C 7.41939 15.70245 -0.01142
C 8.59624 14.865 -0.00562
C 8.61227 13.46284 -0.00494
C 7.38134 12.80149 0.00054
C 8.64275 23.43119 0.00848
C 3.71586 31.99188 0.00081
C 17.21327 12.76324 0.03754
C 18.41275 10.6458 0.00755
C 30.71684 10.65718 -0.00971
C 30.69707 9.29107 0.01518
C 29.55746 8.52131 0.01908
C 29.53159 7.0601 0.07705
C 30.77997 6.36381 0.0103
C 30.74112 4.98765 0.02108
C 29.51282 4.27339 0.00716
C 29.53584 2.83249 0.00307
C 30.73007 2.10397 0.00346
C 30.72221 0.68753 0.01713
C 29.48837 0.02231 -0.01694
C 32.02826 32.69434 0.01428
C 33.21974 31.86795 -0.02142
C 33.2528 30.48359 0.0544
C 31.99481 29.84158 0.00026
C 31.95408 28.43547 0.00682
C 33.19928 27.64734 -0.01779
C 33.161 26.287 0.03794
C 32.03267 25.49748 0.01927
C 31.95497 24.08758 0.01574
C 33.18977 23.45782 -0.02383
C 29.47195 11.34595 -0.03735
C 33.16932 22.04546 -0.01429
C 29.5269 12.78459 -0.00944
C 30.75527 14.86716 -0.01461
C 27.07998 2.81716 0.01699
C 28.28466 2.15355 -0.00416
C 28.32388 0.69405 0.01177
C 27.06015 34.00515 0.04266
C 29.5216 32.66659 0.01324
C 30.78626 31.92218 0.0014
C 30.71928 30.50888 0.00924
C 29.53401 29.77936 0.02326
C 29.4943 28.39032 0.00261
C 30.72004 27.68115 0.03265
C 30.77728 26.29806 -0.02049
C 29.50117 25.57731 -0.01854
C 29.55495 24.2105 -0.01415
C 30.71797 23.46034 -0.03039
C 30.75307 22.00949 0.01836
C 29.483 21.26539 0.03531
C 29.58881 19.90501 -0.00669
C 30.75709 19.15512 0.0101
C 30.72215 17.70402 0.01705
C 29.54736 17.07445 -0.0405
C 29.49486 15.65129 -0.01303
C 30.77221 13.54537 -0.02155
C 31.92951 21.23065 -0.0136
C 31.93031 19.85893 0.00594
C 33.17891 19.17765 -0.02474
C 0.05319 24.16187 0.02712
C 1.16387 23.39469 -0.02213
C 1.16951 22.02153 0.01951
C 34.42189 21.26901 -0.01678
C 34.40801 19.86437 0.01223
C 1.23913 19.08865 0.00648
C 34.43001 17.07727 0.02114
C 0.0021 15.67973 -0.02957
C 1.24819 13.48499 0.00343
C 0.0025 12.76031 -0.02656
C 34.37048 11.32894 -0.02442
C 1.16532 10.69115 -0.00027
C 1.23777 9.2521 -0.00583
C 0.03067 8.47989 -0.02302
C 34.42679 7.08988 -0.02849
C 1.17911 6.41319 0.02931
C 1.23162 4.98183 0.00628
C 34.4265 4.3004 -0.0345
C 34.41334 2.84629 -0.00931
C 1.2173 2.14138 -0.00939
C 1.25365 0.75409 -0.00468
C 0.0166 25.58026 0.00723
C 1.24875 26.28153 0.03076
C 1.20229 27.67804 -0.05239
C 34.41544 28.38591 -0.00598
C 33.20585 17.75394 0.00369
C 31.97258 17.08542 0.00455
C 31.98636 15.56691 -0.00644
C 33.21196 14.87499 -0.01839
C 33.14071 13.45616 0.00137
C 31.9637 12.79594 0.00199
C 31.9908 11.36101 0.04381
C 33.12862 10.59296 0.02806
C 33.16156 9.22722 0.01504
C 31.97834 8.53133 -0.00069
C 27.04543 4.20451 0.01799
C 31.93821 7.1257 0.04926
C 33.23193 4.94719 0.00349
C 31.98573 4.24845 -0.00323
C 32.00151 2.8387 -0.00841
C 33.18685 2.11 0.0001
C 33.22086 0.65528 -0.02927
C 31.95601 34.06607 -0.01404
C 34.40233 32.64312 0.01027
C 1.23352 31.94952 0.01831
C 1.27143 30.51516 -0.01037
C 0.00381 29.83569 -0.00439
C 33.1261 6.39572 -0.03838
C 17.16957 11.33892 0.01739
C 28.28546 4.90481 0.01259
C 27.04647 7.12232 0.00235
C 20.98335 13.42571 0.01087
C 19.71356 12.7687 0.00199
C 19.57396 11.368 0.01511
C 20.83699 10.5913 -0.00478
C 20.91457 9.21221 -0.01662
C 19.6772 8.4839 -0.01185
C 19.73315 7.04005 0.01126
C 20.94508 6.32391 0.01852
C 20.94388 4.93457 -0.00381
C 19.66829 4.26216 0.03046
C 19.69895 2.77673 0.0296
C 20.87456 2.09322 0.03374
C 20.8816 0.7228 -0.02845
C 19.71548 34.03189 -0.03213
C 22.22293 32.63976 0.02239
C 23.36071 31.90634 0.01153
C 23.34273 30.4992 0.02734
C 22.13488 29.81608 -0.0055
C 22.12533 28.38075 0.01515
C 23.39242 27.717 -0.00225
C 23.32692 26.28232 0.00071
C 19.67041 15.68753 -0.01527
C 22.17489 25.54575 -0.01107
C 19.69342 16.99572 0.00096
C 19.68367 21.32382 -0.02422
C 18.45419 9.25311 -0.0054
C 17.24313 8.45648 0.00667
C 17.21036 7.09812 0.00143
C 18.48267 6.41556 -0.017
C 18.43187 5.04612 0.00364
C 17.20264 4.28259 -0.00831
C 17.22727 2.8875 -0.02957
C 18.41519 2.16876 -0.04422
C 18.43822 0.70953 0.00654
C 17.23597 0.00979 -0.00703
C 19.6776 32.70799 -0.04076
C 20.93397 31.92481 -0.00652
C 20.93786 30.58345 0.0058
C 19.72833 29.81974 -0.00865
C 19.72154 28.37298 0.00675
C 20.84329 27.65035 -0.00311
C 20.93878 26.28277 0.00742
C 19.68031 25.50499 -0.01594
C 19.80666 24.16324 0.0106
C 20.88986 23.45877 -0.01154
C 20.89167 21.99758 -0.01721
C 19.68944 19.86093 0.01277
C 22.0506 24.14556 -0.01586
C 23.29647 23.44635 -0.01971
C 23.25322 21.98978 -0.02118
C 24.56986 4.26957 0.00195
C 24.62802 2.82459 -0.00802
C 25.75088 2.09623 -0.00218
C 25.82013 0.71197 -0.01654
C 24.55897 0.01233 -0.00037
C 27.03344 32.6287 -0.0032
C 28.24918 31.96494 0.00622
C 28.28525 30.51769 -0.02815
C 27.0573 29.793 -0.00942
C 27.04082 28.40434 0.00487
C 28.27918 27.60802 0.00826
C 28.29851 26.2681 -0.00294
C 27.0426 25.53051 0.00152
C 27.06112 24.13636 0.01257
C 28.36456 23.48528 0.02316
C 28.2908 22.0322 0.04185
C 28.25142 14.84041 0.00194
C 28.27502 13.47194 -0.00621
C 27.06234 12.82819 0.02611
C 28.22446 10.65088 0.02198
C 28.30762 9.229 0.01094
C 25.86979 5.00028 0.00996
C 25.86111 6.44617 0.04306
C 24.55524 7.11294 0.00367
C 25.84521 21.93695 -0.01679
C 22.14903 21.38721 0.00733
C 22.10956 12.71855 -0.00178
C 22.05344 11.38313 0.00768
C 22.09398 8.50978 -0.0276
C 22.1265 7.09795 0.03005
C 23.32435 6.38083 -0.04078
C 23.3722 4.97223 0.02117
C 22.16964 4.24769 0.02737
C 22.14763 2.90682 -0.00498
C 23.41585 2.17192 0.00135
C 28.22378 6.39159 0.01495
C 23.36899 0.67846 0.03102
C 24.6073 32.6722 0.01423
C 25.83814 31.99255 -0.00285
C 25.84185 30.50089 -0.009
C 24.58364 29.77279 -0.01199
C 24.65919 28.40916 -0.00229
C 25.80002 27.74913 -0.00938
C 25.8402 26.30085 -0.0264
C 24.60912 25.60811 -0.01154
C 24.58459 24.13063 0.00684
C 25.83168 23.31787 -0.01052
C 22.07881 34.04606 0.02555
C 2.50667 32.65122 -0.02805
