374
Graphene
C 34.36883 34.06649 0.01295
C 13.55651 13.52235 0.02299
C 12.31423 12.75922 0.00244
C 12.31151 11.36446 -0.01717
C 13.55839 10.55676 0.05265
C 13.47536 9.16528 -0.01952
C 12.34459 2.88831 -0.02813
C 13.46884 2.14212 0.00374
C 13.52527 0.69179 0.00052
C 12.21248 34.06409 -0.03682
C 14.73194 32.62688 0.01965
C 16.00139 31.91262 0.02058
C 15.98592 30.47308 -0.01957
C 14.72601 29.78544 -0.0108
C 14.76586 28.40453 -0.00368
C 15.93292 27.65437 -0.02696
C 15.96581 26.20651 -0.00114
C 14.6543 25.5659 0.00228
C 14.66176 24.22175 0.00798
C 15.98906 23.33496 0.00422
C 13.55735 14.94298 0.03542
C 15.95391 21.95832 0.0351
C 12.31345 15.61416 0.01416
C 13.50231 17.7826 -0.01454
C 9.89586 4.48868 -0.01536
C 9.89094 3.07613 -0.02689
C 11.06402 2.25818 -0.01046
C 11.04926 0.77555 -0.00891
C 9.82157 0.07886 0.02819
C 12.15751 32.67229 0.00165
C 13.39419 31.98931 -0.02971
C 13.4187 30.57425 0.02894
C 12.20282 29.75796 -0.01789
C 12.23788 28.37412 0.00444
C 13.51464 27.73654 -0.00925
C 13.41075 26.25988 0.01877
C 12.38877 25.42938 0.01363
C 12.37281 24.06177 -0.02162
C 13.61486 23.3959 0.00415
C 13.55485 21.92996 -0.0014
C 12.29201 21.24393 0.02162
C 12.28995 19.79791 0.0076
C 13.45187 19.11306 0.01241
C 12.31721 17.07992 0.01945
C 14.76612 21.22177 -0.03113
C 14.71411 19.84249 0.02098
C 15.94464 19.13971 0.01848
C 17.1705 25.53842 0.02691
C 17.18681 24.07981 -0.01581
C 18.50232 23.48012 0.01452
C 18.43447 22.07826 0.04892
C 17.17324 21.24679 -0.00111
C 17.27065 19.81353 -0.03557
C 18.4922 19.14533 0.03754
C 18.4132 17.73345 0.01739
C 17.2143 17.04118 0.00755
C 17.20429 15.58035 -0.0054
C 18.44392 14.91445 0.00667
C 18.39234 13.52707 0.00143
C 17.20367 12.75948 -0.017
C 17.21135 11.29304 0.00364
C 18.38386 10.59363 -0.00831
C 18.35501 9.19312 -0.02957
C 17.17656 8.48325 -0.04422
C 17.03587 7.02539 0.00654
C 18.27799 6.28454 -0.00703
C 18.391 26.20674 -0.01979
C 18.40078 27.58909 0.02188
C 17.14511 28.32394 -0.00316
C 17.21801 29.78843 -0.0331
C 15.95535 17.71077 -0.00619
C 14.8019 17.0503 -0.02162
C 14.81883 15.638 0.00889
C 16.00496 14.85043 -0.00481
C 15.97897 13.44846 0.00979
C 14.73016 12.75406 0.01443
C 14.77558 11.37923 0.03505
C 15.93845 10.64492 -0.02815
C 15.83483 9.15834 -0.04147
C 9.83634 7.09238 0.03101
C 14.69671 8.34732 -0.05302
C 15.61732 5.05748 -0.00066
C 14.49697 4.17409 -0.00289
C 14.7068 2.78796 0.00028
C 16.00586 2.064 -0.02213
C 16.00487 0.6137 0.03698
C 14.73969 0.05565 -0.00109
C 17.25491 32.61985 -0.00491
C 18.50845 31.94491 0.03338
C 18.44118 30.53081 -0.0258
C 15.74262 6.51353 0.00213
C 10.00799 8.48656 -0.00428
C 11.25292 9.28429 -0.02245
C 11.05299 10.65093 0.00985
C 3.73171 2.18471 -0.00077
C 3.68197 0.76847 0.03368
C 2.42075 0.10711 -0.02929
C 4.93367 32.69678 -0.00966
C 6.20423 32.15601 -0.03337
C 6.03552 30.80057 0.01227
C 5.0628 30.07634 0.00873
C 4.68789 21.43119 -0.00049
C 4.85395 20.00183 0.00848
C 6.1433 19.29305 -0.01303
C 6.14378 17.79558 -0.01378
C 4.90559 17.24089 0.02635
C 4.89134 15.75059 0.0127
C 6.0769 14.99223 0.01396
C 6.15704 13.60801 0.01849
C 4.91527 12.88474 -0.01142
C 4.8535 11.46931 -0.00562
C 6.16194 10.77229 -0.00494
C 6.15993 9.27644 0.00054
C 2.46554 2.92591 0.01305
C 2.43431 4.34479 0.0276
C 3.65752 5.02809 0.00988
C 3.66684 6.4832 -0.01343
C 3.68292 30.55418 0.0073
C 2.4458 29.91494 0.0174
C 2.31887 28.62471 0.03828
C 2.09372 25.31496 0.01226
C 2.30928 24.02619 -0.00279
C 3.54513 22.03309 0.01996
C 2.33681 21.33883 -0.03996
C 2.38033 19.92029 0.01465
C 3.67489 19.31963 -0.00074
C 4.89468 8.65164 0.03007
C 3.69338 17.93649 -0.00518
C 2.44333 15.76428 -0.00643
C 3.66655 14.98356 0.017
C 3.64661 13.58399 -0.03113
C 2.39287 12.84646 -0.02566
C 2.42298 11.43153 -0.00094
C 3.63614 10.7285 0.02322
C 3.67446 9.34862 -0.00725
C 2.46273 8.55526 -0.05697
C 2.3794 7.10611 0.01087
C 2.39525 17.14717 0.0086
C 18.2119 4.8119 -0.04076
C 4.85142 7.25735 -0.00095
C 6.11095 5.05897 -0.04848
C 7.41214 2.93996 0.00057
C 8.70055 2.25036 -0.01634
C 8.63808 0.84209 -0.00334
C 7.44381 0.11352 0.02339
C 9.81542 32.63552 0.01641
C 10.96881 31.91555 -0.00719
C 11.06085 30.46876 0.01364
C 9.6554 29.99776 -0.01062
C 11.06495 21.92538 -0.00033
C 9.88837 21.39217 0.03589
C 9.78622 19.87159 -0.02759
C 11.02285 19.14187 0.0402
C 11.01936 17.79996 0.00572
C 9.78635 17.1166 0.03592
C 9.84435 15.62432 0.00406
C 11.07917 14.91892 0.00943
C 11.0851 13.45621 0.02841
C 9.81206 12.8287 -0.01111
C 9.73718 11.35525 -0.01275
C 7.33497 4.32043 0.00093
C 8.67404 5.04481 0.01291
C 8.58818 6.46161 0.00438
C 7.33017 7.19477 -0.00191
C 4.81772 4.32184 -0.00892
C 4.93584 2.90698 -0.01362
C 6.18887 2.20693 -0.0008
C 6.18874 0.80355 0.0288
C 4.9046 0.07402 0.00393
C 7.32933 32.84554 0.00895
C 8.51495 32.06062 0.00685
C 8.66673 30.64572 0.02888
C 7.38263 20.04313 -0.00482
C 6.09158 6.50096 0.01572
C 8.53684 19.22274 -0.01384
C 7.33952 17.08299 0.01745
C 7.30286 15.64725 0.00488
C 8.60982 14.93193 -0.01004
C 8.55935 13.54589 -0.02896
C 7.31467 12.87718 -0.00131
C 7.38941 11.41477 -0.01118
C 8.62337 10.60901 -0.014
C 8.69126 9.26756 0.02147
C 7.43524 8.63542 0.00373
C 8.53597 17.81989 0.03693
C 16.95452 4.22675 -0.00652
C 17.08581 2.88627 0.0058
C 18.33888 2.13019 -0.00865
C 29.48506 8.52249 0.00716
C 29.46723 7.0948 0.00307
C 30.70363 6.38675 0.00346
C 30.63795 4.93702 0.01713
C 29.34177 4.26426 -0.01694
C 29.39589 2.81571 0.01428
C 30.6751 2.124 -0.02142
C 30.71785 0.68914 0.0544
C 29.65628 33.96016 0.00026
C 31.88876 32.79398 0.00682
C 33.03845 31.99383 -0.01779
C 33.24154 30.61257 0.03794
C 33.08906 23.4747 0.01927
C 33.04387 22.0605 0.01574
C 31.74788 21.31025 -0.02383
C 31.88948 19.91501 -0.01429
C 33.12634 19.26708 -0.0136
C 33.18033 17.82505 0.00594
C 31.90468 17.05058 -0.02474
C 30.71555 9.19439 0.02108
C 30.85864 10.65465 0.0103
C 29.55303 11.34582 0.07705
C 29.50685 12.73147 0.01908
C 28.26218 10.69322 0.02326
C 28.23148 9.22559 0.00261
C 26.95622 8.55202 0.03265
C 26.95261 7.17047 -0.02049
C 28.19039 6.43189 -0.01854
C 28.18261 4.99102 -0.01415
C 26.98319 4.17736 -0.03039
C 26.9608 2.64151 0.01836
C 28.27458 1.91793 0.03531
C 31.91171 15.68761 0.00369
C 28.36412 0.45964 -0.00669
C 30.35303 21.84295 0.01705
C 29.18833 21.23039 -0.0405
C 29.42705 19.73976 -0.01303
C 30.70849 19.1668 -0.01461
C 30.67875 17.77022 -0.02155
C 29.53659 17.04073 -0.00944
C 29.53566 15.56473 -0.03735
C 30.75673 14.92039 -0.00971
C 30.72468 13.45599 0.01518
C 27.04387 33.98778 0.0101
C 27.01041 11.39307 0.00924
C 33.2419 14.98245 0.00455
C 32.02573 12.77631 -0.01839
C 34.37204 19.96594 0.01951
C 1.10605 19.24284 -0.01678
C 1.15981 17.85198 0.01223
C 34.33926 17.11092 0.00648
C 0.05674 15.67674 0.02114
C 1.24025 15.0141 -0.02957
C 1.2031 13.58563 0.00343
C 0.00542 12.85603 -0.02656
C 34.41617 11.3491 -0.02442
C 1.21992 10.69585 -0.00027
C 1.24685 9.27263 -0.00583
C 34.4009 8.5009 -0.02302
C 34.43074 7.10549 -0.02849
C 1.19799 6.40772 0.02931
C 1.22567 5.01639 0.00628
C 34.40347 4.34826 -0.0345
C 34.38818 2.98781 -0.00931
C 1.19422 2.26388 -0.00939
C 1.1857 0.79493 -0.00468
C 34.23198 21.33988 -0.02213
C 1.04306 21.99169 0.02712
C 1.08479 23.38904 0.00723
C 34.34668 24.13642 0.03076
C 32.04117 11.35617 0.00137
C 33.2362 10.62026 0.00199
C 33.17424 9.22149 0.04381
C 31.94094 8.55373 0.02806
C 31.98272 7.08972 0.01504
C 33.17958 6.47387 -0.00069
C 33.17511 5.05193 0.04926
C 31.94768 4.32706 -0.03838
C 31.96387 2.80915 0.00349
C 33.22623 13.58555 -0.00644
C 33.21667 2.28026 -0.00323
C 32.0241 0.09009 0.0001
C 34.35641 32.65752 -0.02927
C 1.26932 32.08065 -0.01404
C 1.25903 30.7667 0.01027
C 0.07124 30.06342 0.01831
C 0.31713 28.69222 -0.01037
C 1.25947 27.69408 -0.00439
C 1.1199 26.20374 -0.00598
C 34.31157 25.54442 -0.05239
C 33.23463 0.85321 -0.00841
C 3.71185 32.01086 0.00402
C 27.06839 12.75597 0.0014
C 28.2652 14.95279 0.04266
C 20.79528 9.15752 -0.03213
C 19.58071 8.36421 0.02239
C 19.51716 6.98167 0.01153
C 20.83351 6.28068 0.02734
C 20.76674 4.89596 -0.0055
C 19.58032 4.17646 0.01515
C 19.60318 2.77986 -0.00225
C 20.85796 2.0463 0.00071
C 20.88291 0.62984 -0.01107
C 19.69493 33.99857 -0.01586
C 22.29196 32.53456 -0.01971
C 23.58018 32.11586 -0.02118
C 21.89897 29.15866 0.00733
C 21.89285 25.55785 -0.00178
C 22.22391 24.16913 0.00768
C 23.46088 23.35201 -0.0276
C 23.4513 21.99568 0.03005
C 22.16032 21.32463 -0.04078
C 22.17859 19.87381 0.02117
C 20.82853 10.54904 -0.02845
C 19.60739 11.31213 0.03374
C 19.65327 12.75697 0.0296
C 20.85268 13.50764 0.03046
C 18.4181 0.65704 0.00675
C 17.19716 33.9732 -0.00311
C 19.7396 32.54814 0.00742
C 21.04975 31.71903 -0.01594
C 20.96489 30.2978 0.0106
C 19.62545 29.83578 -0.01154
C 19.66445 28.42762 -0.01721
C 20.95745 27.93504 -0.02422
C 20.89792 26.43486 0.01277
C 23.43393 19.13748 0.02737
C 19.66647 25.59913 0.00096
C 20.9608 23.50319 0.01087
C 20.9087 22.01284 0.00199
C 19.73393 21.33936 0.01511
C 19.72559 19.97651 -0.00478
C 20.96833 19.24507 -0.01662
C 20.92555 17.76605 -0.01185
C 19.63213 17.05807 0.01126
C 19.6743 15.60507 0.01852
C 20.8785 14.89487 -0.00381
C 19.80226 24.20603 -0.01527
C 28.29532 13.47717 0.01324
C 23.40362 17.72479 -0.00498
C 22.15007 15.54975 0.03102
C 24.60336 12.78721 0.00487
C 24.52604 11.32016 0.00826
C 25.75493 10.6419 -0.00294
C 25.74643 9.26489 0.00152
C 24.50435 8.50697 0.01257
C 24.541 7.08708 0.02316
C 25.74649 6.35135 0.04185
C 25.77142 4.93189 0.00194
C 24.54402 4.24524 -0.00621
C 24.62212 2.82695 0.02611
C 25.71784 1.9884 0.02198
C 25.75924 0.45019 0.01094
C 24.4453 33.90167 0.00235
C 27.13151 21.20216 0.01495
C 27.07318 19.76145 0.01259
C 28.2669 18.99411 0.01799
C 28.27382 17.6027 0.01699
C 27.03287 16.96386 -0.00416
C 27.06008 15.53141 0.01177
C 25.76822 13.4173 -0.00942
C 25.75546 14.82598 -0.02815
C 24.60025 15.61566 0.00622
C 24.62012 17.06935 -0.0032
C 23.42953 14.8522 0.02555
C 23.33851 13.43886 0.01423
C 22.12905 12.79412 -0.00285
C 22.07147 11.34648 -0.009
C 23.2552 10.65861 -0.01199
C 23.3322 9.24253 -0.00229
C 22.06185 8.50507 -0.00938
C 22.07524 7.07757 -0.0264
C 23.2749 6.34514 -0.01154
C 22.14532 16.97654 0.00135
C 23.28013 4.91358 0.00684
C 22.0294 2.82242 -0.01679
C 23.42955 2.11798 0.00367
C 23.37653 0.68379 0.04306
C 22.06885 34.00228 0.00996
C 26.06616 21.84353 0.00195
C 24.74739 21.321 -0.00802
C 24.64226 19.84265 -0.00218
C 25.83071 19.11194 -0.01654
C 25.8276 17.75286 -0.00037
C 22.04324 4.26118 -0.01052
C 2.52101 32.75335 0.02374
