299
Graphene
C 34.34892 0.1092 0.01295
C 11.0428 0.77448 -0.03557
C 9.83724 34.03577 0.03754
C 12.28421 32.69884 0.01739
C 13.46643 32.01582 0.00755
C 13.7406 30.65594 -0.0054
C 12.50931 29.8669 0.00667
C 11.04103 2.12402 -0.00111
C 12.65759 28.47809 0.00143
C 13.76703 26.36583 0.00364
C 12.48039 25.64693 -0.00831
C 12.34883 24.11043 -0.02957
C 13.55919 23.41538 -0.04422
C 13.51318 21.95908 0.00654
C 12.30033 21.26257 -0.00703
C 13.92851 27.89053 -0.017
C 9.82057 2.95432 0.04892
C 9.85679 4.43663 0.01452
C 9.85733 19.94071 -0.01581
C 8.6609 2.13297 0.00213
C 8.58269 0.71007 -0.00066
C 7.3645 34.03139 -0.00289
C 9.85462 32.55915 0.00028
C 11.07935 31.93925 -0.02213
C 11.14827 30.55171 0.03698
C 9.94994 29.83873 -0.00109
C 10.04126 28.39374 -0.00491
C 11.37228 27.78375 0.03338
C 11.2487 26.33733 -0.0258
C 9.98467 25.59518 -0.0331
C 9.9171 24.1163 -0.00316
C 11.10293 23.41603 0.02188
C 11.10781 22.07521 -0.01979
C 9.85627 21.26964 0.02691
C 12.22925 2.75554 -0.04076
C 13.56032 2.43134 -0.00652
C 13.50031 0.78959 0.0058
C 12.29666 0.07746 -0.00865
C 17.13258 25.42524 -0.00381
C 17.1431 23.98116 0.03046
C 18.29336 23.33229 0.0296
C 18.44622 21.82677 0.03374
C 17.18393 21.09215 -0.02845
C 17.25007 2.86568 -0.03213
C 18.49065 2.20839 0.02239
C 18.29777 0.68015 0.01153
C 17.14411 33.82191 0.02734
C 19.50912 32.56793 -0.0055
C 20.77495 32.04491 0.01515
C 20.67294 30.66022 -0.00225
C 19.17967 30.21718 0.00071
C 18.98718 28.74452 -0.01107
C 20.34463 27.90841 -0.01586
C 18.2325 26.39858 0.01852
C 7.39387 2.84783 -0.05302
C 17.97614 27.75905 0.01126
C 17.2124 32.06947 -0.01662
C 14.73338 32.55525 0.00675
C 15.89997 31.64984 -0.00311
C 15.18159 30.3522 0.00742
C 15.41687 28.75664 -0.01594
C 16.35609 27.78511 0.0106
C 16.0543 26.32885 -0.01154
C 14.85991 25.54784 -0.01721
C 14.84138 24.06727 -0.02422
C 15.91938 23.24252 0.01277
C 15.95601 21.77717 0.00096
C 14.68152 21.31958 -0.01527
C 14.88735 2.65248 0.01087
C 16.05577 2.04262 0.00199
C 16.00657 0.47665 0.01511
C 14.75895 34.00283 -0.00478
C 18.443 31.54225 -0.01185
C 20.54709 26.45127 -0.01971
C 7.29002 4.2504 -0.04147
C 8.66512 19.29251 0.03505
C 3.61712 10.66572 -0.01536
C 3.60875 9.27378 -0.02689
C 2.44086 8.50687 -0.01046
C 2.44461 7.16643 -0.00891
C 3.62176 6.4105 0.02819
C 3.58305 4.98831 0.00165
C 2.39081 11.47593 0.03101
C 2.3826 4.32145 -0.02971
C 3.6278 2.20608 -0.01789
C 3.54467 0.81713 0.00444
C 2.38326 0.14221 -0.00925
C 4.89361 32.69796 0.01877
C 6.10163 31.96476 0.01363
C 6.05241 30.55736 -0.02162
C 2.40036 2.91272 0.02894
C 2.39353 12.89198 -0.00428
C 3.57908 13.54211 -0.02245
C 3.60655 14.94971 0.00985
C 3.59885 30.61401 0.01641
C 2.36284 29.90394 -0.00719
C 2.41501 28.3441 0.01364
C 3.6101 27.64232 -0.01062
C 3.62341 26.24035 -0.00033
C 2.41957 25.52361 0.03589
C 2.34659 24.05169 -0.02759
C 3.55574 23.37371 0.0402
C 3.60762 21.95057 0.00572
C 2.38343 21.22635 0.03592
C 2.53496 19.844 0.00406
C 3.77985 19.20692 0.00943
C 3.64722 17.7493 0.02841
C 2.44077 17.03173 -0.01111
C 2.3662 15.5962 -0.01275
C 4.87405 29.85472 0.00415
C 4.86557 28.41669 -0.0014
C 6.16195 27.69427 0.02162
C 6.08461 26.28873 0.0076
C 6.14948 0.71175 -0.02696
C 4.81086 0.03327 -0.00114
C 7.37965 32.65358 0.00228
C 8.58688 31.88187 0.00798
C 8.63987 30.47109 0.00422
C 7.35567 29.83597 0.0351
C 7.42201 28.34819 -0.03113
C 8.64323 27.68282 0.02098
C 8.62109 26.33683 0.01848
C 7.34255 25.62176 -0.00619
C 7.3423 24.18595 -0.02162
C 8.64953 23.49495 0.00889
C 8.71187 21.99031 -0.00481
C 7.33511 21.28916 0.00979
C 7.38685 19.87879 0.01443
C 6.09465 2.1275 -0.00368
C 8.53886 4.6949 -0.02815
C 4.90905 2.90136 -0.0108
C 6.09836 4.96852 0.02058
C 4.86093 25.57854 0.01241
C 4.77605 24.15157 -0.01454
C 6.0249 23.44318 0.01945
C 6.05489 22.02838 0.01416
C 4.90884 21.26983 0.03542
C 4.96247 19.81784 0.02299
C 6.19004 19.12548 0.00244
C 6.23839 17.73149 -0.01717
C 5.05327 16.97365 0.05265
C 4.81629 15.62551 -0.01952
C 4.76817 12.77486 -0.02813
C 4.85315 11.39203 0.00374
C 4.88135 8.73482 0.00052
C 4.87732 7.34312 -0.03682
C 6.05091 6.37096 0.01965
C 4.85259 4.33866 -0.01957
C 3.57798 31.96483 0.02339
C 19.45708 25.62801 -0.02118
C 20.75194 23.5206 -0.00178
C 33.11491 27.68743 -0.02383
C 33.09164 26.26926 -0.01429
C 31.84293 25.55329 -0.0136
C 31.86558 24.23927 0.00594
C 32.9669 23.27407 -0.02474
C 33.1035 21.99397 0.00369
C 31.92962 28.44576 0.01574
C 33.09986 14.91595 0.00455
C 31.70666 12.79819 -0.01839
C 31.86675 11.45155 0.00137
C 33.03505 10.6752 0.00199
C 33.03288 9.26193 0.04381
C 31.79212 8.49867 0.02806
C 32.03138 7.14841 0.01504
C 32.94047 13.60561 -0.00644
C 31.85157 29.88557 0.01927
C 33.10896 30.57182 0.03794
C 33.03713 32.05755 -0.01779
C 30.6552 27.802 0.01518
C 30.63392 26.33491 0.01908
C 29.47506 25.63949 0.07705
C 30.3404 13.02152 0.0103
C 29.09144 13.48591 0.02108
C 30.39525 8.7822 0.00716
C 29.52697 7.4804 0.00307
C 30.73074 6.58405 0.00346
C 30.77 5.20163 0.01713
C 29.42498 4.59808 -0.01694
C 29.40453 3.07136 0.01428
C 30.70635 2.31178 -0.02142
C 30.60916 0.86035 0.0544
C 29.36557 0.1575 0.00026
C 31.81196 32.74807 0.00682
C 33.25051 6.49312 -0.00069
C 33.19147 5.04449 0.04926
C 31.91359 4.46449 -0.03838
C 31.87377 2.98173 0.00349
C 34.20947 15.70195 0.02114
C 1.13832 14.9896 -0.02957
C 1.02013 13.5523 0.00343
C 34.22081 12.88236 -0.02656
C 34.28981 11.40247 -0.02442
C 1.11208 10.70102 -0.00027
C 1.21483 9.2781 -0.00583
C 34.28909 8.60624 -0.02302
C 34.42542 7.19908 -0.02849
C 1.19406 6.42432 0.02931
C 1.24445 5.01725 0.00628
C 34.38766 4.34796 -0.0345
C 34.38662 2.91559 -0.00931
C 1.14038 2.19001 -0.00939
C 1.13212 0.78368 -0.00468
C 34.40326 17.16213 0.00648
C 29.35172 28.47932 -0.00971
C 1.20636 17.76538 0.01223
C 0.0757 19.88375 0.01951
C 33.14569 2.25119 -0.00323
C 33.10026 0.82699 -0.00841
C 31.8101 0.11855 0.0001
C 34.27844 32.79526 -0.02927
C 1.09644 32.05693 -0.01404
C 1.10803 30.59626 0.01027
C 34.35819 29.86357 0.01831
C 34.38104 28.42369 -0.01037
C 1.18078 27.68433 -0.00439
C 1.20899 26.24625 -0.00598
C 34.37295 25.50173 -0.05239
C 34.18867 24.07356 0.03076
C 1.0919 23.34694 0.00723
C 1.17274 22.02921 0.02712
C 34.29373 21.23869 -0.02213
C 1.2249 19.13395 -0.01678
C 19.44728 24.14604 0.00733
C 29.36266 29.84234 -0.03735
C 30.57772 31.96492 -0.02155
C 23.20242 23.45045 -0.01052
C 22.18452 21.41526 -0.01679
C 24.0064 13.98221 0.00367
C 23.89335 10.40109 0.04306
C 23.3389 9.22284 0.00996
C 21.74163 6.44824 0.00195
C 21.97558 24.19191 0.00684
C 23.15864 6.32297 -0.00802
C 22.1677 4.2377 -0.01654
C 22.13172 2.79594 -0.00037
C 23.40967 2.2151 -0.0032
C 23.32302 0.81893 0.00622
C 22.05719 0.01155 -0.02815
C 24.53083 32.70459 -0.00942
C 23.39565 4.97605 -0.00218
C 21.81243 25.65011 -0.01154
C 23.11524 26.29637 -0.0264
C 22.99528 27.67578 -0.00938
C 20.85232 22.0875 0.00768
C 19.72164 21.20176 -0.0276
C 19.97629 19.71386 0.03005
C 21.17416 19.12914 -0.04078
C 20.97699 5.03646 0.02117
C 19.96322 4.34305 0.02737
C 19.69812 2.94967 -0.00498
C 20.80676 2.0931 0.00135
C 20.82577 0.65292 0.03102
C 19.56071 33.97211 0.02555
C 22.08857 32.65171 0.01423
C 23.25576 31.95497 -0.00285
C 23.18152 30.56853 -0.009
C 21.87202 29.92888 -0.01199
C 21.69775 28.47954 -0.00229
C 25.83079 31.96242 0.00487
C 25.72048 30.53341 0.00826
C 24.43707 29.79446 -0.00294
C 24.41922 28.34415 0.00152
C 28.15732 30.53418 0.02326
C 26.96107 29.79432 0.00261
C 26.88404 28.38182 0.03265
C 28.18654 27.68969 -0.02049
C 28.22709 26.14529 -0.01854
C 26.9088 25.55096 -0.01415
C 26.80219 7.47243 -0.03039
C 28.10809 6.91302 0.01836
C 28.26531 5.42055 0.03531
C 27.10503 4.59635 -0.00669
C 27.07275 3.11075 0.0101
C 28.2327 2.35477 0.01705
C 28.16129 0.89478 -0.0405
C 27.07549 0.07476 -0.01303
C 29.38197 32.75271 -0.01461
C 28.21862 31.96246 0.00924
C 30.60256 30.59043 -0.00944
C 27.01135 32.76516 0.0014
C 25.84669 0.84434 0.04266
C 25.63153 27.61621 0.01257
C 25.71999 26.19372 0.02316
C 24.39076 25.56955 0.04185
C 24.3428 24.25572 0.00194
C 24.34736 12.61514 -0.00621
C 24.62048 11.44349 0.02611
C 26.39259 9.98482 0.02198
C 25.89865 8.77635 0.01094
C 24.5214 8.35698 0.00235
C 24.39846 7.04099 0.01495
C 25.73151 6.57473 0.01259
C 25.85746 5.15625 0.01799
C 24.68365 4.40842 0.01699
C 24.62881 2.97177 -0.00416
C 25.86568 2.29609 0.01177
C 24.61644 0.09024 0.01324
C 2.33943 32.81253 -0.00334
