380
Graphene
C 34.32965 0.10915 0.01295
C 15.9936 27.7794 -0.01454
C 15.98474 26.35722 0.01945
C 14.70506 25.65015 0.01416
C 14.60912 24.19726 0.03542
C 15.92844 23.48318 0.02299
C 16.1298 22.12859 0.00244
C 15.65902 18.76581 -0.01717
C 15.93534 17.45364 0.05265
C 14.68352 16.70588 -0.01952
C 14.68867 15.27747 -0.02813
C 16.05682 14.82604 0.00374
C 16.1573 13.3672 0.00052
C 14.82752 12.8229 -0.03682
C 14.59653 11.40031 0.01965
C 15.93846 10.71384 0.02058
C 16.0435 9.23285 -0.01957
C 14.82181 8.52974 -0.0108
C 14.72095 7.16383 -0.00368
C 16.01252 6.40824 -0.02696
C 14.67547 28.39688 0.01241
C 14.71582 29.88671 0.0076
C 15.96007 30.59931 0.02162
C 15.93859 32.06023 -0.0014
C 13.50798 31.95651 -0.01275
C 13.47479 30.57067 0.00985
C 12.21202 29.83727 -0.02245
C 12.24003 28.41583 -0.00428
C 13.43544 27.73984 0.03101
C 13.36982 26.28682 -0.01536
C 12.16922 25.55466 -0.02689
C 14.09537 18.07385 -0.01046
C 13.4426 10.57222 -0.00891
C 15.99246 4.95536 -0.00114
C 13.58805 9.2524 0.02819
C 12.38322 7.06988 -0.02971
C 13.56616 6.44571 0.02894
C 13.54002 4.97468 -0.01789
C 12.25681 4.36352 0.00444
C 12.28025 2.91798 -0.00925
C 13.54957 2.19271 0.01877
C 13.5043 0.77556 0.01363
C 12.26221 0.00452 -0.02162
C 14.77389 32.71997 0.00415
C 12.38526 8.50636 0.00165
C 14.76081 4.20825 0.00228
C 14.79763 2.86164 0.00798
C 16.04383 2.11308 0.00422
C 18.50247 9.12153 -0.0331
C 17.25048 8.45881 -0.00316
C 17.25365 7.05899 0.02188
C 18.4478 6.38821 -0.01979
C 18.47064 4.92833 0.02691
C 17.24299 4.22991 -0.01581
C 17.2058 2.85399 0.01452
C 18.4772 2.10482 0.04892
C 18.43178 0.70759 -0.00111
C 18.46576 10.49365 -0.0258
C 17.21172 34.07724 -0.03557
C 20.88574 31.94629 0.01739
C 20.93131 30.51732 0.00755
C 19.64144 29.85831 -0.0054
C 19.71858 28.40001 0.00667
C 20.98073 27.64325 0.00143
C 21.12167 26.28692 -0.017
C 19.87438 25.52443 0.00364
C 19.53724 24.11432 -0.00831
C 19.17213 20.31019 -0.02957
C 19.56647 32.65428 0.03754
C 12.30393 32.73292 -0.01111
C 17.23838 11.22765 0.03338
C 18.49464 13.4645 -0.00109
C 15.94948 0.71728 0.0351
C 14.77034 0.06048 -0.03113
C 17.21117 32.68127 0.02098
C 18.43906 31.9404 0.01848
C 18.46354 30.5341 -0.00619
C 17.18749 29.86369 -0.02162
C 17.18286 28.42734 0.00889
C 18.49828 27.71562 -0.00481
C 18.62389 26.29443 0.00979
C 17.33024 12.61529 -0.00491
C 17.23543 25.51029 0.01443
C 18.38213 23.2902 -0.02815
C 18.3743 21.69757 -0.04147
C 16.95456 21.09247 -0.05302
C 16.87931 19.70488 0.00213
C 18.26082 19.26458 -0.00066
C 18.34514 17.79194 -0.00289
C 17.21948 16.95785 0.00028
C 17.24249 15.60367 -0.02213
C 18.4769 14.8477 0.03698
C 17.14458 24.09705 0.03505
C 20.85791 17.58466 -0.04422
C 9.7926 0.0521 0.02841
C 11.05175 2.20381 0.00406
C 2.40242 2.85534 -0.05697
C 3.59216 2.14778 0.01087
C 3.5992 0.77969 -0.01343
C 2.42935 0.03888 0.00988
C 4.95417 32.67827 0.0276
C 6.11266 32.05873 0.01305
C 6.07672 30.64459 -0.00077
C 4.85244 29.89146 0.03368
C 4.82481 28.46567 -0.02929
C 6.06656 27.75979 -0.00966
C 6.10441 26.26167 -0.03337
C 4.86151 25.69121 0.01227
C 4.90799 24.26402 0.00873
C 6.18332 23.49938 -0.00049
C 6.11292 22.138 0.00848
C 4.93954 21.44828 -0.01303
C 5.24967 20.01857 -0.01378
C 5.98377 9.25746 0.02635
C 4.85211 8.48869 0.0127
C 2.36024 4.30362 -0.00725
C 3.61076 5.00332 0.02322
C 3.63939 6.37038 -0.00094
C 2.43856 7.05862 -0.02566
C 3.66418 30.60331 0.00907
C 2.39756 29.9016 0.00643
C 2.39055 28.47408 -0.01509
C 3.63777 27.76635 0.03267
C 3.57449 26.34971 0.02374
C 2.38208 25.68407 0.00402
C 2.37694 24.27552 0.0073
C 3.64151 23.57078 0.0174
C 3.70611 22.13323 0.03828
C 4.86067 7.06246 0.01396
C 2.41823 21.39786 0.01226
C 3.91713 19.23387 0.01996
C 3.55174 17.93358 -0.03996
C 2.56516 17.01466 0.01465
C 2.41012 15.51143 -0.00074
C 2.40147 12.84739 -0.00518
C 2.59442 11.43082 0.0086
C 3.70954 10.55203 -0.00643
C 3.65631 9.15383 0.017
C 2.38006 8.46352 -0.03113
C 2.56791 19.916 -0.00279
C 6.23347 6.5322 0.01849
C 6.18785 5.06884 -0.01142
C 4.90247 4.28742 -0.00562
C 8.60101 2.23713 0.02147
C 8.54236 0.82177 0.00373
C 7.38326 0.05347 -0.00191
C 9.77554 32.75061 0.00438
C 11.09175 32.07185 0.01291
C 10.94814 30.58629 0.00093
C 9.80175 29.88187 0.00057
C 9.76429 28.46675 -0.01634
C 10.93518 27.70925 -0.00334
C 7.44 2.90793 -0.014
C 10.97815 26.31975 0.02339
C 9.80247 24.13005 -0.00719
C 8.80136 20.4237 0.01364
C 11.18071 9.33928 -0.01062
C 9.84677 8.75175 -0.00033
C 9.9176 7.29658 0.03589
C 11.07883 6.56675 -0.02759
C 11.00632 5.11598 0.0402
C 9.86895 4.35723 0.00572
C 9.87694 2.89215 0.03592
C 9.77882 25.57207 0.01641
C 11.06099 0.75423 0.00943
C 7.42566 4.40829 -0.01118
C 8.64347 6.59417 -0.02896
C 4.95157 2.84967 -0.00494
C 6.19444 2.14369 0.00054
C 6.15288 0.76696 0.03007
C 4.91998 0.067 -0.00095
C 7.32216 32.77626 0.01572
C 8.54584 31.98785 -0.04848
C 8.55926 30.53977 -0.00892
C 7.31806 29.86451 -0.01362
C 7.27786 28.44813 -0.0008
C 8.66065 5.13538 -0.00131
C 8.55522 27.78686 0.0288
C 7.30994 25.52043 0.00895
C 7.40657 24.10472 0.00685
C 8.72267 23.21133 0.02888
C 8.7062 21.72456 -0.00482
C 7.2704 21.34074 -0.01384
C 7.06745 19.97287 0.03693
C 8.59838 9.36078 0.01745
C 7.32347 8.79164 0.00488
C 7.43573 7.35912 -0.01004
C 8.55079 26.28882 0.00393
C 19.5693 16.9877 0.00654
C 19.69968 15.592 -0.00703
C 20.85659 14.80791 -0.04076
C 29.39491 2.80513 0.02108
C 30.62878 2.15108 0.00716
C 30.64842 0.79232 0.00307
C 29.37501 0.05328 0.00346
C 31.86904 32.73492 0.01713
C 33.10447 32.00054 -0.01694
C 33.19756 30.58988 0.01428
C 31.96124 29.92946 -0.02142
C 31.97131 28.48012 0.0544
C 33.15119 27.72607 0.00026
C 33.12351 26.25273 0.00682
C 31.83296 25.61565 -0.01779
C 31.97542 24.14884 0.03794
C 33.1581 23.47458 0.01927
C 33.15026 22.00323 0.01574
C 31.89481 21.30844 -0.02383
C 31.96371 19.93905 -0.01429
C 33.19756 19.21042 -0.0136
C 33.23993 17.79725 0.00594
C 29.46062 4.27462 0.0103
C 30.70088 4.96494 0.07705
C 30.7099 6.34347 0.01908
C 29.48951 7.07639 0.01518
C 29.4285 28.3806 0.00924
C 30.68973 27.7438 0.02326
C 30.62875 26.33747 0.00261
C 29.43903 25.58061 0.03265
C 29.50616 24.17458 -0.02049
C 30.76688 23.41284 -0.01854
C 30.65226 22.06645 -0.01415
C 29.54046 21.23471 -0.03039
C 29.41555 19.8369 0.01836
C 32.01677 17.05424 -0.02474
C 30.70861 19.15627 0.03531
C 29.54669 17.07244 0.0101
C 29.40916 15.64718 0.01705
C 30.69026 14.88808 -0.0405
C 30.69059 13.54454 -0.01303
C 29.46468 12.80751 -0.01461
C 29.52182 11.38221 -0.02155
C 30.77376 10.73518 -0.00944
C 30.70141 9.21593 -0.03735
C 29.49238 8.5186 -0.00971
C 30.74851 17.80268 -0.00669
C 31.96234 15.62136 0.00369
C 33.19225 14.9342 0.00455
C 33.18427 13.52614 -0.00644
C 34.39299 21.3164 -0.02213
C 0.00629 19.89729 0.01951
C 1.3112 19.21538 -0.01678
C 1.32421 17.75949 0.01223
C 0.06656 17.06087 0.00648
C 34.39739 15.65326 0.02114
C 1.19793 15.01146 -0.02957
C 1.24846 13.51188 0.00343
C 34.40855 12.76542 -0.02656
C 1.19125 22.03164 0.02712
C 0.09479 11.3483 -0.02442
C 1.26724 9.35322 -0.00583
C 0.00057 8.46721 -0.02302
C 34.41082 7.05413 -0.02849
C 1.23711 6.37498 0.02931
C 1.17761 4.97287 0.00628
C 34.34532 4.2413 -0.0345
C 34.38665 2.83704 -0.00931
C 1.19181 2.13541 -0.00939
C 1.14423 0.76324 -0.00468
C 1.34244 10.69264 -0.00027
C 29.40847 29.81271 0.0014
C 1.2048 23.45029 0.00723
C 34.42101 25.60885 -0.05239
C 32.00068 12.80322 -0.01839
C 32.07535 11.33548 0.00137
C 33.28251 10.62054 0.00199
C 33.22433 9.13161 0.04381
C 31.93554 8.54527 0.02806
C 32.02949 7.04002 0.01504
C 33.22843 6.32596 -0.00069
C 33.1653 4.91611 0.04926
C 31.9164 4.24634 -0.03838
C 34.42017 24.2183 0.03076
C 31.86559 2.76087 0.00349
C 33.06063 0.76842 -0.00841
C 31.81074 0.07121 0.0001
C 34.35009 32.74735 -0.02927
C 1.15249 31.98809 -0.01404
C 1.17653 30.57538 0.01027
C 0.00075 29.87404 0.01831
C 34.34596 28.43375 -0.01037
C 1.17396 27.75744 -0.00439
C 1.22394 26.32819 -0.00598
C 33.11944 2.16898 -0.00323
C 30.67797 30.5356 0.01324
C 30.62707 31.97206 0.04266
C 29.4122 32.64252 0.01177
C 23.28519 13.4267 0.0296
C 22.14748 12.71588 0.03374
C 22.13897 11.29225 -0.02845
C 23.36872 10.64082 -0.03213
C 23.37434 9.09894 0.02239
C 22.15474 8.38669 0.01153
C 22.17713 6.96573 0.02734
C 23.42513 6.36411 -0.0055
C 23.38511 4.8977 0.01515
C 23.33754 14.82314 0.03046
C 22.14219 4.27618 -0.00225
C 23.36296 2.04534 -0.01107
C 23.31331 0.61808 -0.01586
C 22.00414 34.01164 -0.01971
C 24.52127 32.64468 -0.02118
C 25.83001 31.90335 0.00733
C 25.81138 30.4526 -0.00178
C 24.52966 29.80997 0.00768
C 24.5795 28.4165 -0.0276
C 25.7988 27.67937 0.03005
C 22.12929 2.82855 0.00071
C 25.846 26.15878 -0.04078
C 22.13046 15.58922 -0.00381
C 23.24874 26.19534 0.01126
C 20.88533 13.35431 -0.00652
C 19.68984 12.66557 0.0058
C 19.70755 11.27865 -0.00865
C 20.92959 10.60394 0.00675
C 20.96918 9.09986 -0.00311
C 19.70726 8.36675 0.00742
C 19.66695 7.01039 -0.01594
C 20.93963 6.2821 0.0106
C 20.97581 4.94424 -0.01154
C 21.95393 17.02455 0.01852
C 19.73564 4.2752 -0.01721
C 20.88993 2.13901 0.01277
C 20.82523 0.70029 0.00096
C 19.59658 34.03754 -0.01527
C 22.13637 32.61963 0.01087
C 23.34436 31.80634 0.00199
C 23.33527 30.42986 0.01511
C 22.09478 29.78567 -0.00478
C 22.16353 28.44899 -0.01662
C 23.34989 27.62717 -0.01185
C 19.74179 2.84452 -0.02422
C 3.68536 32.04618 0.02379
C 25.61943 17.64216 0.02117
C 24.48726 15.60529 -0.00498
C 28.27565 22.03166 -0.02815
C 28.20582 19.18641 -0.00942
C 28.28333 17.80189 0.00487
C 27.01482 17.07354 0.00826
C 27.02918 15.67055 -0.00294
C 28.19606 14.9616 0.00152
C 28.19596 13.45166 0.01257
C 27.0701 12.80985 0.02316
C 27.0119 11.38439 0.04185
C 28.32266 23.32588 0.00622
C 28.19188 10.67806 0.00194
C 27.04782 8.5632 0.02611
C 27.05922 7.06824 0.02198
C 28.24264 6.32877 0.01094
C 28.19526 4.93268 0.00235
C 27.02324 4.24155 0.01495
C 27.0324 2.775 0.01259
C 28.1924 2.08687 0.01799
C 28.14773 0.67197 0.01699
C 26.97373 34.07189 -0.00416
C 28.27315 9.26285 -0.00621
C 24.58393 17.03843 0.02737
C 26.87874 25.60665 -0.0032
C 28.18142 27.5999 -0.01654
C 25.78356 14.96355 0.00135
C 25.79176 13.5118 0.03102
C 24.60559 12.78284 0.02555
C 24.59513 11.33596 0.01423
C 25.79821 10.61983 -0.00285
C 25.83362 9.23627 -0.009
C 24.62208 8.49369 -0.01199
C 24.6885 7.0633 -0.00229
C 25.80341 6.30867 -0.00938
C 28.17098 26.18025 -0.00037
C 25.85337 4.92685 -0.0264
C 24.56692 2.79254 0.00684
C 25.79472 2.13511 -0.01052
C 25.70058 0.70478 -0.01679
C 24.57646 34.0215 0.00367
C 27.03019 32.66615 0.04306
C 28.27064 31.89747 0.00996
C 28.25737 30.48858 0.00195
C 27.06145 29.72651 -0.00802
C 27.00568 28.32622 -0.00218
C 24.55287 4.20383 -0.01154
C 2.42181 32.73613 0.01402
