395
Graphene
C 34.39381 34.00342 0.01295
C 11.02805 0.81044 0.00444
C 9.75095 0.03458 -0.00925
C 12.17964 32.69238 0.01877
C 13.46329 31.92142 0.01363
C 13.462 30.52997 -0.02162
C 12.19263 29.83186 0.00415
C 12.20104 28.40473 -0.0014
C 13.47833 27.75733 0.02162
C 13.47984 26.23409 0.0076
C 11.02845 2.24582 -0.01789
C 12.33658 25.55067 0.01241
C 13.56906 23.38661 0.01945
C 13.57785 21.97764 0.01416
C 12.33126 21.26159 0.03542
C 12.30577 19.88438 0.02299
C 13.56749 19.19753 0.00244
C 13.55812 17.78014 -0.01717
C 12.31167 17.10624 0.05265
C 12.27529 15.63141 -0.01952
C 13.44924 14.92657 -0.02813
C 12.34181 24.14371 -0.01454
C 9.81714 2.90787 0.02894
C 9.85429 4.37016 -0.02971
C 11.01819 5.03032 0.00165
C 10.99382 27.77508 -0.01062
C 11.01079 26.3067 -0.00033
C 9.74921 25.60335 0.03589
C 9.82485 24.18706 -0.02759
C 11.08062 23.50638 0.0402
C 11.05286 22.05775 0.00572
C 9.88716 21.34217 0.03592
C 9.92209 19.94359 0.00406
C 11.07654 19.09653 0.00943
C 11.06979 17.76413 0.02841
C 9.86086 17.04557 -0.01111
C 9.82769 15.65536 -0.01275
C 11.05088 14.92337 0.00985
C 11.13567 13.40315 -0.02245
C 9.80817 12.73566 -0.00428
C 9.80664 11.39847 0.03101
C 11.11822 10.60387 -0.01536
C 11.08993 9.26099 -0.02689
C 9.8941 8.61844 -0.01046
C 9.8449 7.20065 -0.00891
C 11.02568 6.43541 0.02819
C 13.53676 13.47829 0.00374
C 12.2874 12.74597 0.00052
C 12.33171 11.30981 -0.03682
C 13.56702 10.61542 0.01965
C 14.76907 17.04633 -0.00289
C 14.83647 15.68958 0.00028
C 16.13148 14.86937 -0.02213
C 16.06292 13.46776 0.03698
C 14.81166 12.82985 -0.00109
C 14.72353 11.38908 -0.00491
C 15.89536 10.75327 0.03338
C 15.95871 9.21578 -0.0258
C 14.73075 8.55358 -0.0331
C 14.80361 7.12395 -0.00316
C 16.08664 6.3812 0.02188
C 16.01531 4.97962 -0.01979
C 14.72744 4.30197 0.02691
C 14.72518 2.86864 -0.01581
C 15.95618 2.17346 0.01452
C 15.99711 0.81023 0.04892
C 14.77296 0.03815 -0.00111
C 17.1809 32.66682 -0.03557
C 18.38604 31.94923 0.03754
C 18.30363 30.52576 0.01739
C 17.04814 29.78759 0.00755
C 16.03255 17.66722 -0.00066
C 9.73903 28.49533 0.01364
C 15.99919 19.13305 0.00213
C 14.7866 21.24509 -0.04147
C 13.56033 9.262 0.02058
C 12.33934 8.52005 -0.01957
C 12.3291 7.05791 -0.0108
C 13.53282 6.35349 -0.00368
C 13.48152 4.94379 -0.02696
C 12.31809 4.22771 -0.00114
C 12.27974 2.84296 0.00228
C 13.47109 2.11976 0.00798
C 13.50375 0.70624 0.00422
C 12.20217 0.0374 0.0351
C 14.69159 32.68795 -0.03113
C 15.9481 31.98311 0.02098
C 15.90095 30.52459 0.01848
C 14.66017 29.80982 -0.00619
C 14.74032 28.39406 -0.02162
C 15.91646 27.64569 0.00889
C 15.99621 26.24023 -0.00481
C 14.71671 25.56434 0.00979
C 14.75978 24.13239 0.01443
C 15.98643 23.34745 0.03505
C 16.0087 21.9121 -0.02815
C 14.7994 19.79157 -0.05302
C 17.07691 28.39785 -0.0054
C 9.79345 29.90837 -0.00719
C 10.98031 31.96262 0.02339
C 2.40104 4.26802 -0.00279
C 2.38159 2.89093 0.01996
C 3.67119 2.18617 -0.03996
C 3.62444 0.75643 0.01465
C 2.447 0.04614 -0.00074
C 4.83807 32.80579 -0.00518
C 6.11514 32.03813 0.0086
C 6.11374 30.63444 -0.00643
C 4.85754 29.79761 0.017
C 3.63112 5.00219 0.01226
C 4.84637 28.34274 -0.03113
C 6.10686 26.31218 -0.00094
C 4.84715 25.55695 0.02322
C 4.90818 24.13658 -0.00725
C 6.11457 23.51456 -0.05697
C 6.17264 22.00554 0.01087
C 4.96303 21.33284 -0.01343
C 4.87232 19.87571 0.00988
C 6.23027 19.21489 0.0276
C 6.1594 17.72801 0.01305
C 6.11819 27.67789 -0.02566
C 3.64984 6.4909 0.03828
C 2.4093 7.16904 0.0174
C 2.43046 8.57372 0.0073
C 3.59612 30.59167 -0.01977
C 2.44438 29.84912 -0.00561
C 2.36357 28.4208 0.00208
C 3.61522 27.72179 0.01707
C 3.54393 26.25138 0.02769
C 2.40854 25.57382 -0.03291
C 2.42328 24.08703 -0.04999
C 3.70002 23.43967 0.04505
C 3.76253 22.09123 0.03284
C 2.51501 21.26637 -0.04307
C 2.58575 19.91329 0.03189
C 3.73181 19.12141 0.00031
C 3.68422 17.72333 -0.003
C 2.47104 16.98328 0.01402
C 2.44634 15.58613 0.02379
C 3.63256 14.91367 0.00907
C 3.6547 13.53438 0.00643
C 2.34377 12.77205 -0.01509
C 2.33932 11.38649 0.03267
C 3.62698 10.68378 0.02374
C 3.61992 9.23406 0.00402
C 4.93845 16.99559 -0.00077
C 4.89037 15.60672 0.03368
C 6.13176 15.00168 -0.02929
C 6.18937 13.42844 -0.00966
C 7.43969 19.89986 0.00685
C 8.663 19.23816 0.02888
C 8.62925 17.75981 -0.00482
C 7.45415 17.03989 -0.01384
C 7.39689 15.58699 0.03693
C 8.61654 14.91536 0.01745
C 8.64455 13.42614 0.00488
C 7.40152 12.77518 -0.01004
C 7.35547 11.36929 -0.02896
C 8.60679 10.66259 -0.00131
C 8.57121 9.25713 -0.01118
C 7.31724 8.54673 -0.014
C 7.32008 7.20998 0.02147
C 8.50447 6.41499 0.00373
C 8.58352 5.00046 -0.00191
C 7.30097 4.36481 0.00438
C 7.28103 2.98165 0.01291
C 8.55908 2.21702 0.00093
C 8.60641 0.78911 0.00057
C 7.26516 0.19254 -0.01634
C 9.75896 32.66971 -0.00334
C 7.43256 21.36557 0.00895
C 10.97994 30.53261 0.01641
C 8.66191 22.08449 0.00393
C 7.35988 24.20985 -0.0008
C 4.93765 12.79649 -0.03337
C 4.86666 11.39546 0.01227
C 6.11772 10.68665 0.00873
C 6.1256 9.27259 -0.00049
C 4.8536 8.55057 0.00848
C 4.86829 7.22787 -0.01303
C 6.08851 6.54318 -0.01378
C 6.05498 5.141 0.02635
C 4.84167 4.35355 0.0127
C 4.85152 2.91964 0.01396
C 6.0943 2.28011 0.01849
C 6.10019 0.7813 -0.01142
C 4.87506 0.07912 -0.00562
C 7.26863 32.78738 -0.00494
C 8.52815 32.01146 0.00054
C 8.56451 30.62051 0.03007
C 7.28217 29.88475 -0.00095
C 7.29421 28.47262 0.01572
C 8.48197 27.68938 -0.04848
C 8.54881 26.36887 -0.00892
C 7.28091 25.62287 -0.01362
C 8.62537 23.50675 0.0288
C 3.64088 31.97066 0.02784
C 18.31278 27.66404 0.00667
C 17.21622 25.5632 -0.017
C 30.86388 6.28976 0.01908
C 30.58287 5.02597 0.07705
C 29.3153 4.16552 0.0103
C 29.50827 2.76721 0.02108
C 30.70708 1.99074 0.00716
C 30.69134 0.64331 0.00307
C 29.48712 34.04133 0.00346
C 31.95792 32.60251 0.01713
C 33.23621 31.89504 -0.01694
C 30.56009 15.00385 0.01518
C 33.23646 30.51304 0.01428
C 31.99715 28.3629 0.0544
C 33.17649 27.66001 0.00026
C 33.16227 26.24256 0.00682
C 31.96277 25.56476 -0.01779
C 31.99339 24.17226 0.03794
C 33.19889 23.41316 0.01927
C 33.18604 21.99965 0.01574
C 31.95207 21.27281 -0.02383
C 31.92225 19.84799 -0.01429
C 32.0237 29.75039 -0.02142
C 29.46078 15.5944 -0.00971
C 29.3771 17.04559 -0.03735
C 30.59566 17.71569 -0.00944
C 28.21224 19.25053 0.01177
C 28.1553 17.83409 0.04266
C 27.00176 17.19232 0.01324
C 27.12633 2.68694 0.0014
C 28.34816 2.03608 0.00924
C 28.25803 0.68607 0.02326
C 27.01735 34.07932 0.00261
C 29.52238 32.61639 0.03265
C 30.70497 31.85619 -0.02049
C 30.74392 30.4919 -0.01854
C 29.51161 29.78398 -0.01415
C 29.47611 28.37385 -0.03039
C 30.77359 27.64328 0.01836
C 30.7769 26.24485 0.03531
C 29.55435 25.56119 -0.00669
C 29.57189 24.18371 0.0101
C 30.7297 23.39307 0.01705
C 30.77572 22.02529 -0.0405
C 29.46476 21.30801 -0.01303
C 29.44589 19.91966 -0.01461
C 30.65136 19.13722 -0.02155
C 33.20896 19.1915 -0.0136
C 33.13062 17.76003 0.00594
C 31.84413 17.0454 -0.02474
C 31.99113 15.6685 0.00369
C 1.25593 21.96092 0.02712
C 0.00564 21.34251 -0.02213
C 34.43267 19.79189 0.01951
C 1.29332 19.16041 -0.01678
C 1.25331 17.69143 0.01223
C 34.42574 17.01404 0.00648
C 34.37662 15.55609 0.02114
C 1.22678 14.95913 -0.02957
C 1.13183 13.50823 0.00343
C 34.34008 12.82823 -0.02656
C 34.34668 11.38217 -0.02442
C 1.10214 10.70719 -0.00027
C 1.10337 9.27572 -0.00583
C 34.32955 8.53021 -0.02302
C 34.40243 7.13802 -0.02849
C 1.155 6.39906 0.02931
C 1.11726 5.02439 0.00628
C 34.37925 4.31903 -0.0345
C 34.3804 2.84223 -0.00931
C 1.16104 2.11613 -0.00939
C 1.12256 0.70024 -0.00468
C 1.21458 23.37052 0.00723
C 27.02952 19.91302 -0.00416
C 0.00303 24.14873 0.03076
C 1.19477 26.24333 -0.00598
C 33.20021 14.95195 0.00455
C 33.18466 13.51043 -0.00644
C 31.93794 12.64244 -0.01839
C 31.98695 11.41029 0.00137
C 33.17434 10.61238 0.00199
C 33.10699 9.23835 0.04381
C 31.93714 8.63283 0.02806
C 31.86231 7.19043 0.01504
C 33.14784 6.47093 -0.00069
C 33.08395 5.01675 0.04926
C 31.86709 4.30673 -0.03838
C 31.90386 2.84275 0.00349
C 33.05609 2.10849 -0.00323
C 33.18257 0.69971 -0.00841
C 32.01195 34.04474 0.0001
C 0.00503 32.55017 -0.02927
C 1.24897 31.9651 -0.01404
C 1.22843 30.48895 0.01027
C 0.0254 29.76807 0.01831
C 34.41681 28.3686 -0.01037
C 1.16867 27.69794 -0.00439
C 34.41679 25.52136 -0.05239
C 18.43019 26.25091 0.00143
C 26.99283 21.28102 0.01699
C 28.35831 23.42321 0.01259
C 19.64514 29.81405 -0.01662
C 19.56873 28.41848 -0.01185
C 20.81831 27.6696 0.01126
C 20.89963 26.25983 0.01852
C 19.69362 25.5747 -0.00381
C 19.64628 24.21386 0.03046
C 20.94622 23.47853 0.0296
C 21.01056 22.06761 0.03374
C 19.71657 21.30256 -0.02845
C 20.82678 30.53515 -0.00478
C 19.63645 19.88871 -0.03213
C 20.88772 17.76705 0.01153
C 19.68092 17.05523 0.02734
C 19.87781 15.68363 -0.0055
C 20.9804 4.89876 0.01515
C 19.57445 4.30325 -0.00225
C 19.70942 2.81967 0.00071
C 20.88063 2.11367 -0.01107
C 20.85234 0.71813 -0.01586
C 19.62097 0.01715 -0.01971
C 20.89308 19.19104 0.02239
C 20.83006 31.94488 0.01511
C 19.62541 32.69043 0.00199
C 17.18252 0.00607 0.01087
C 17.19313 24.05008 0.00364
C 18.50715 23.41057 -0.00831
C 18.54308 21.93909 -0.02957
C 17.31949 21.25769 -0.04422
C 17.2709 19.81519 0.00654
C 18.48474 19.11021 -0.00703
C 18.45767 17.73609 -0.04076
C 17.26911 17.03037 -0.00652
C 17.34575 15.56099 0.0058
C 18.74232 14.85784 -0.00865
C 18.41581 13.54238 0.00675
C 17.2742 12.73647 -0.00311
C 17.10819 11.22692 0.00742
C 17.19657 8.65702 -0.01594
C 17.31862 7.23726 0.0106
C 18.40719 6.31266 -0.01154
C 18.36145 4.99688 -0.01721
C 17.21925 4.21805 -0.02422
C 17.21707 2.74111 0.01277
C 18.47516 2.17425 0.00096
C 18.38456 0.73375 -0.01527
C 22.11042 32.60293 -0.02118
C 23.2709 31.9165 0.00733
C 23.3236 30.49418 -0.00178
C 22.04359 29.75406 0.00768
C 24.67216 24.15616 -0.00218
C 25.77026 23.4637 -0.01654
C 25.7912 22.0099 -0.00037
C 24.54836 21.3116 -0.0032
C 24.53669 19.84576 0.00622
C 25.79533 19.08867 -0.02815
C 25.70503 17.68687 -0.00942
C 24.46109 17.05981 0.00487
C 24.60749 2.83025 0.00826
C 25.78897 2.23528 -0.00294
C 25.82345 0.73426 0.00152
C 24.59365 0.01183 0.01257
C 27.06353 32.57467 0.02316
C 28.30451 31.8866 0.04185
C 28.26899 30.47083 0.00194
C 27.03034 29.85362 -0.00621
C 27.00795 28.48383 0.02611
C 28.2774 27.66408 0.02198
C 28.35199 26.29215 0.01094
C 27.07674 25.57213 0.00235
C 27.09359 24.14972 0.01495
C 24.62525 25.57875 -0.00802
C 28.30321 22.01498 0.01799
C 25.75972 26.26032 0.00195
C 24.57516 28.37085 0.04306
C 22.12014 28.40078 -0.0276
C 23.3306 27.7091 0.03005
C 23.32643 26.24444 -0.04078
C 22.15445 25.56951 0.02117
C 22.15424 24.18871 0.02737
C 23.29436 23.47034 -0.00498
C 23.30028 22.02282 0.00135
C 22.13 21.31161 0.03102
C 22.10857 19.85419 0.02555
C 23.28673 19.1037 0.01423
C 23.23194 17.62047 -0.00285
C 21.97059 16.83941 -0.009
C 22.00125 4.25991 -0.01199
C 22.20549 2.77797 -0.00229
C 23.41095 1.9995 -0.00938
C 23.32369 0.60531 -0.0264
C 22.1046 34.01121 -0.01154
C 24.58511 32.67782 0.00684
C 25.87439 31.88895 -0.01052
C 25.79055 30.52656 -0.01679
C 24.5672 29.84316 0.00367
C 25.82893 27.73928 0.00996
C 2.44083 32.69555 -0.01979
