340
Graphene
C 0.03129 0.05185 0.01295
C 9.81143 19.81864 -0.00619
C 11.04672 19.23779 -0.02162
C 9.8882 17.12441 0.00889
C 9.93198 15.64068 -0.00481
C 11.13682 14.96158 0.00979
C 9.8344 12.88325 0.01443
C 9.85036 11.3931 0.03505
C 10.92281 10.57478 -0.02815
C 11.08806 9.12125 -0.04147
C 9.8223 8.44354 -0.05302
C 9.89113 7.10155 0.00213
C 11.12616 6.35534 -0.00066
C 11.152 4.94904 -0.00289
C 9.87391 4.3039 0.00028
C 9.84724 2.88911 -0.02213
C 11.0891 2.056 0.03698
C 11.07768 0.65558 -0.00109
C 9.76585 21.2782 0.01848
C 9.86275 34.04282 -0.00491
C 10.87558 21.94847 0.02098
C 9.83555 24.21867 0.0351
C 7.36487 8.52661 -0.01717
C 7.30306 7.15315 0.05265
C 8.5615 6.46944 -0.01952
C 8.67059 5.03428 -0.02813
C 7.39951 4.31774 0.00374
C 7.41622 2.86816 0.00052
C 8.6119 2.14516 -0.03682
C 8.63221 0.72136 0.01965
C 7.40883 0.00102 0.02058
C 9.90229 32.63115 -0.01957
C 11.10239 32.01206 -0.0108
C 11.00857 30.58936 -0.00368
C 9.79911 29.86518 -0.02696
C 9.8477 28.36326 -0.00114
C 11.0886 27.68475 0.00228
C 11.07425 26.34309 0.00798
C 9.95088 25.57842 0.00422
C 11.12814 23.30972 -0.03113
C 12.35148 32.66218 0.03338
C 13.5163 31.88194 -0.0258
C 13.48668 30.50079 -0.0331
C 14.85373 25.62987 -0.04076
C 16.19229 4.90567 -0.00652
C 14.81635 4.36273 0.0058
C 14.77767 2.93399 -0.00865
C 15.96606 2.22611 0.00675
C 15.92689 0.78104 -0.00311
C 14.7185 34.02005 0.00742
C 17.22209 32.72012 -0.01594
C 18.45187 31.97805 0.0106
C 18.42266 30.51915 -0.01154
C 17.16912 29.84177 -0.01721
C 17.16566 28.42586 -0.02422
C 18.43866 27.67825 0.01277
C 18.55915 26.36738 0.00096
C 17.18634 4.19106 -0.01527
C 17.2696 2.86612 0.01087
C 18.44544 2.10944 0.00199
C 15.95789 26.18346 -0.00703
C 15.94 27.62347 0.00654
C 14.70851 28.35614 -0.04422
C 14.73761 29.77783 -0.02957
C 12.26898 29.79065 -0.00316
C 12.26714 28.42802 0.02188
C 13.44297 27.70797 -0.01979
C 13.49068 26.22962 0.02691
C 12.24149 25.58596 -0.01581
C 12.19982 24.23706 0.01452
C 12.22732 8.47616 0.04892
C 12.40947 7.09635 -0.00111
C 8.60389 9.21506 0.00244
C 13.55844 6.36776 -0.03557
C 12.33169 4.28396 0.01739
C 12.35801 2.84066 0.00755
C 13.53859 2.11718 -0.0054
C 13.52951 0.64148 0.00667
C 12.2885 34.04968 0.00143
C 14.76971 32.61394 -0.017
C 16.01915 31.9327 0.00364
C 15.9166 30.55844 -0.00831
C 13.53015 5.01289 0.03754
C 18.40118 0.73873 0.01511
C 8.50314 10.61755 0.02299
C 7.34649 12.75395 0.01416
C 2.4735 8.48664 -0.00482
C 2.47832 7.06381 -0.01384
C 3.67202 6.32505 0.03693
C 3.66068 4.90163 0.01745
C 2.3935 4.22432 0.00488
C 2.48031 2.83426 -0.01004
C 3.66603 2.12029 -0.02896
C 3.72364 0.73192 -0.00131
C 2.51708 0.07641 -0.01118
C 4.90186 32.71594 -0.014
C 6.18554 31.97713 0.02147
C 6.09098 30.58256 0.00373
C 4.90335 29.85441 -0.00191
C 4.87574 28.47682 0.00438
C 6.18486 27.66623 0.01291
C 6.1242 26.23527 0.00093
C 4.88808 25.61651 0.00057
C 3.65048 9.30126 0.02888
C 4.9171 24.13338 -0.01634
C 3.67085 10.70543 0.00685
C 2.48334 12.7546 0.00393
C 3.70064 30.55682 -0.01378
C 2.49658 29.89097 0.02635
C 2.42308 28.45792 0.0127
C 3.66919 27.8099 0.01396
C 3.67417 26.32145 0.01849
C 2.45446 25.5345 -0.01142
C 2.41164 24.13596 -0.00562
C 3.65742 23.45827 -0.00494
C 3.7675 21.95775 0.00054
C 2.54301 21.29466 0.03007
C 2.5076 19.88814 -0.00095
C 3.76335 19.11283 0.01572
C 3.70273 17.73358 -0.04848
C 2.35879 17.09234 -0.00892
C 2.44026 15.67436 -0.01362
C 3.65768 14.93073 -0.0008
C 3.6924 13.52068 0.0288
C 2.40011 11.37755 0.00895
C 6.18406 23.41547 -0.00334
C 6.17731 21.97899 0.02339
C 4.96822 21.24262 0.01641
C 8.54852 30.51944 0.02819
C 7.27541 29.88358 0.00165
C 7.30973 28.4688 -0.02971
C 8.56404 27.75467 0.02894
C 8.63749 26.27751 -0.01789
C 7.40163 25.5395 0.00444
C 7.45107 24.12073 -0.00925
C 8.66431 23.47456 0.01877
C 8.56343 22.05183 0.01363
C 7.36049 21.30814 -0.02162
C 7.36067 19.80416 0.00415
C 8.54727 19.13199 -0.0014
C 8.63728 17.73142 0.02162
C 7.37011 17.05877 0.0076
C 7.36989 15.62989 0.01241
C 8.57257 14.99195 -0.01454
C 8.58647 13.49414 0.01945
C 8.6613 31.9002 -0.00891
C 7.48315 32.58564 -0.01046
C 4.90369 0.02706 -0.02689
C 6.18127 0.63805 -0.01536
C 4.889 19.87016 -0.00719
C 6.08574 19.11373 0.01364
C 6.0908 17.66028 -0.01062
C 4.88044 17.02888 -0.00033
C 4.89509 15.63945 0.03589
C 6.11109 14.93684 -0.02759
C 6.10988 13.48448 0.0402
C 4.93345 12.82933 0.00572
C 7.3905 11.39089 0.03542
C 4.95674 11.39621 0.03592
C 6.16149 9.26125 0.00943
C 4.90832 8.53247 0.02841
C 4.93104 7.14625 -0.01111
C 6.11728 6.40665 -0.01275
C 6.14363 5.04047 0.00985
C 4.95134 4.27535 -0.02245
C 4.93634 2.86136 -0.00428
C 6.1291 2.12146 0.03101
C 6.16893 10.68743 0.00406
C 17.12611 0.07706 -0.00478
C 19.69145 32.70386 -0.01662
C 20.89747 31.93743 -0.01185
C 33.197 30.55509 -0.02142
C 31.97988 29.78423 0.0544
C 31.98498 28.34664 0.00026
C 33.20825 27.69112 0.00682
C 33.17982 26.32551 -0.01779
C 31.93174 25.57896 0.03794
C 31.96194 24.20818 0.01927
C 33.12585 23.43853 0.01574
C 33.12853 22.00828 -0.02383
C 31.95416 21.26705 -0.01429
C 31.86953 19.85703 -0.0136
C 33.14755 19.13617 0.00594
C 33.1983 17.71452 -0.02474
C 32.12164 15.70563 0.00369
C 33.20877 14.88492 0.00455
C 33.14692 13.44857 -0.00644
C 31.93661 12.7943 -0.01839
C 33.16464 31.96165 0.01428
C 31.97341 11.43481 0.00137
C 31.89761 32.67064 -0.01694
C 30.6783 0.75449 0.00346
C 29.44284 21.3389 -0.00669
C 29.49842 19.8684 0.0101
C 30.67019 19.20068 0.01705
C 29.43597 15.67858 -0.0405
C 30.81037 15.02442 -0.01303
C 30.7354 13.50504 -0.01461
C 29.49485 12.77977 -0.02155
C 29.51181 11.39488 -0.00944
C 30.76435 10.63812 -0.03735
C 30.7341 9.24521 -0.00971
C 29.47618 8.55218 0.01518
C 29.41713 7.10223 0.01908
C 30.65742 6.43035 0.07705
C 30.75834 5.01649 0.0103
C 29.53687 4.17964 0.02108
C 29.51507 2.80184 0.00716
C 30.77179 2.16737 0.00307
C 29.49525 34.06253 0.01713
C 33.18293 10.65868 0.00199
C 33.17742 9.20765 0.04381
C 31.9129 8.51364 0.02806
C 1.21345 17.79461 0.01223
C 34.39536 17.09525 0.00648
C 0.06743 15.51404 0.02114
C 1.25653 14.89138 -0.02957
C 1.27546 13.4511 0.00343
C 34.43248 12.83136 -0.02656
C 34.40745 11.31775 -0.02442
C 1.19752 10.60648 -0.00027
C 1.21687 9.20184 -0.00583
C 34.38634 8.49923 -0.02302
C 34.36754 7.08955 -0.02849
C 1.17867 6.40232 0.02931
C 1.14257 4.98097 0.00628
C 34.37922 4.24293 -0.0345
C 0.01059 2.76946 -0.00931
C 1.23572 2.0915 -0.00939
C 1.27182 0.73308 -0.00468
C 1.25144 19.13951 -0.01678
C 0.00901 19.79689 0.01951
C 0.02032 21.2841 -0.02213
C 1.30059 21.95843 0.02712
C 31.93067 7.06855 0.01504
C 33.16843 6.37261 -0.00069
C 33.20337 4.97438 0.04926
C 31.97205 4.33085 -0.03838
C 31.98259 2.88524 0.00349
C 33.20256 2.17109 -0.00323
C 33.22115 0.77318 -0.00841
C 31.9019 0.02266 0.0001
C 30.74684 21.98911 0.03531
C 34.42085 32.67688 -0.02927
C 1.28743 30.58448 0.01027
C 0.05567 29.82865 0.01831
C 34.42222 28.3476 -0.01037
C 1.23014 27.76426 -0.00439
C 1.25961 26.30084 -0.00598
C 0.00627 25.59407 -0.05239
C 34.37268 24.09022 0.03076
C 1.14816 23.3678 0.00723
C 1.21828 31.98172 -0.01404
C 30.79574 23.44343 0.01836
C 29.47594 24.10979 -0.03039
C 29.46304 25.51267 -0.01415
C 23.34474 2.08915 -0.0276
C 23.29132 0.67557 0.03005
C 22.11018 34.0442 -0.04078
C 24.59129 32.69095 0.02117
C 25.83222 32.03102 0.02737
C 25.8197 30.53506 -0.00498
C 24.60484 29.81428 0.00135
C 24.54902 28.41156 0.03102
C 25.80119 27.73752 0.02555
C 25.84543 26.2464 0.01423
C 24.63395 25.54217 -0.00285
C 24.50925 24.06652 -0.009
C 25.7824 23.50048 -0.01199
C 25.81851 22.04988 -0.00229
C 24.55575 21.30857 -0.00938
C 24.68175 20.02994 -0.0264
C 25.66652 19.26863 -0.01154
C 22.15056 2.89795 0.00768
C 22.28207 4.34248 -0.00178
C 23.32884 4.86782 0.00733
C 23.35597 23.38258 -0.02118
C 20.86496 30.53466 0.01126
C 19.66583 29.8504 0.01852
C 19.67272 28.45565 -0.00381
C 20.8995 27.61756 0.03046
C 20.9904 26.14658 0.0296
C 19.51939 4.21197 0.03374
C 19.68182 2.91094 -0.02845
C 20.95227 2.16216 -0.03213
C 25.69709 6.26494 0.00684
C 20.86725 0.65174 0.02239
C 22.15787 32.63259 0.02734
C 23.3509 31.94539 -0.0055
C 23.35532 30.50931 0.01515
C 22.14953 29.77902 -0.00225
C 22.16479 28.31136 0.00071
C 23.34714 27.67015 -0.01107
C 23.35722 26.20253 -0.01586
C 22.10133 25.4919 -0.01971
C 19.59623 0.01719 0.01153
C 3.61325 32.01525 -0.01303
C 25.87882 4.96754 -0.01052
C 24.627 2.80827 0.00367
C 28.13805 9.33502 0.01094
C 26.97106 8.4793 0.00235
C 26.8407 7.10464 0.01495
C 28.24854 6.32406 0.01259
C 28.27317 4.94858 0.01799
C 27.10421 4.23643 0.01699
C 27.03912 2.85356 -0.00416
C 28.25662 2.06676 0.01177
C 28.1834 0.69352 0.04266
C 27.02939 34.05996 0.01324
C 29.52778 32.62262 0.0014
C 30.75229 31.86135 0.00924
C 30.77327 30.46449 0.02326
C 29.58575 29.79531 0.00261
C 29.53708 28.39566 0.03265
C 30.76385 27.67577 -0.02049
C 30.67406 26.18183 -0.01854
C 28.31306 10.71838 0.02198
C 28.3849 13.57294 0.02611
C 28.55026 14.76644 -0.00621
C 27.11444 16.97591 0.00194
C 25.81639 2.09855 0.04306
C 25.84066 0.71619 0.00996
C 24.56029 0.04337 0.00195
C 27.08048 32.68333 -0.00802
C 28.27808 31.93061 -0.00218
C 28.33134 30.54425 -0.01654
C 27.12504 29.85202 -0.00037
C 27.05428 28.40712 -0.0032
C 24.5796 4.30036 -0.01679
C 28.3086 27.71322 0.00622
C 27.10081 25.52506 -0.00942
C 27.03819 24.12403 0.00487
C 28.29189 23.45351 0.00826
C 28.2512 22.04062 -0.00294
C 27.00353 21.36719 0.00152
C 26.99362 19.88995 0.01257
C 28.28271 19.16684 0.02316
C 28.14115 17.67856 0.04185
C 28.26974 26.31176 -0.02815
C 2.44305 32.73686 0.00848
