409
Graphene
C 34.30509 34.05228 0.01295
C 12.05771 29.94572 -0.01536
C 12.22121 28.45492 -0.02689
C 13.38641 27.69527 -0.01046
C 13.38329 26.27016 -0.00891
C 12.18853 25.44113 0.02819
C 12.21807 24.04104 0.00165
C 13.53671 23.45381 -0.02971
C 13.53591 22.03999 0.02894
C 12.30817 21.40805 -0.01789
C 12.24023 19.9484 0.00444
C 13.46167 19.20197 -0.00925
C 13.45079 17.75151 0.01877
C 12.2143 16.98198 0.01363
C 12.29028 15.63611 -0.02162
C 13.63943 14.89632 0.00415
C 13.56598 13.55936 -0.0014
C 12.308 12.86292 0.02162
C 12.33055 11.41447 0.0076
C 13.45842 10.67794 0.01241
C 13.60549 9.26964 -0.01454
C 12.37297 8.53973 0.01945
C 13.33241 30.59585 0.03101
C 13.44817 31.97409 -0.00428
C 12.27101 32.79291 -0.02245
C 9.74215 0.1178 0.00985
C 10.96239 23.41531 0.00438
C 11.07881 21.98028 0.01291
C 9.85347 21.26172 0.00093
C 9.82649 19.81437 0.00057
C 11.0467 19.16142 -0.01634
C 10.95953 17.7226 -0.00334
C 9.78444 16.96697 0.02339
C 9.79979 15.61191 0.01641
C 11.05082 14.91487 -0.00719
C 11.05297 13.55194 0.01364
C 12.35182 7.15339 0.01416
C 9.79711 12.76007 -0.01062
C 11.07797 10.64598 0.03589
C 11.13799 9.27897 -0.02759
C 9.85078 8.52301 0.0402
C 9.83907 7.20761 0.00572
C 11.14881 6.47735 0.03592
C 11.11807 5.07386 0.00406
C 9.80942 4.32033 0.00943
C 9.83374 2.89708 0.02841
C 11.05286 2.22773 -0.01111
C 11.05889 0.78148 -0.01275
C 9.87693 11.35186 -0.00033
C 9.7956 24.18306 -0.00191
C 13.61241 6.41862 0.03542
C 12.34006 4.31746 0.00244
C 16.01465 9.20113 0.01443
C 14.8182 8.48574 0.03505
C 14.85368 7.05579 -0.02815
C 16.04537 6.34933 -0.04147
C 16.08361 4.88948 -0.05302
C 14.85856 4.29154 0.00213
C 14.77388 2.88949 -0.00066
C 16.03854 2.18972 -0.00289
C 15.90718 0.81141 0.00028
C 14.72915 0.09446 -0.02213
C 17.1429 32.68379 0.03698
C 18.33773 32.03537 -0.00109
C 18.35493 30.58988 -0.00491
C 17.10609 29.76361 0.03338
C 17.14903 28.34579 -0.0258
C 18.37224 27.67826 -0.0331
C 18.40564 26.21386 -0.00316
C 17.10411 25.56308 0.02188
C 17.16332 24.1593 -0.01979
C 18.38686 23.43211 0.02691
C 18.4168 22.01468 -0.01581
C 16.00571 10.62342 0.00979
C 14.76338 11.30073 -0.00481
C 14.73217 12.78817 0.00889
C 15.99809 13.45086 -0.02162
C 12.32733 2.94833 -0.01717
C 13.54509 2.14599 0.05265
C 13.49365 0.74453 -0.01952
C 12.19755 0.11589 -0.02813
C 14.67686 32.7915 0.00374
C 15.87232 31.97447 0.00052
C 15.84036 30.53393 -0.03682
C 14.55149 29.86647 0.01965
C 14.70501 28.46301 0.02058
C 15.91301 27.62663 -0.01957
C 13.54145 4.98409 0.02299
C 15.91678 26.27016 -0.0108
C 14.73546 24.22957 -0.02696
C 16.00337 23.43622 -0.00114
C 16.00859 21.97676 0.00228
C 14.80362 21.31678 0.00798
C 14.80706 19.85125 0.00422
C 15.97098 19.1056 0.0351
C 16.02539 17.65264 -0.03113
C 14.73537 17.03725 0.02098
C 14.80372 15.62812 0.01848
C 15.99977 14.86125 -0.00619
C 14.67449 25.55532 -0.00368
C 9.77437 25.61218 0.00373
C 11.04735 26.26974 0.02147
C 11.01859 27.76924 -0.014
C 2.36118 2.86464 -0.003
C 3.61156 2.21203 0.01402
C 3.57477 0.74749 0.02379
C 2.26894 0.11216 0.00907
C 4.77364 32.68481 0.00643
C 6.10751 31.99732 -0.01509
C 6.02382 30.6203 0.03267
C 4.82002 29.87056 0.02374
C 4.75607 28.45918 0.00402
C 6.10203 27.76534 0.0073
C 6.13346 26.29239 0.0174
C 4.89898 25.61888 0.03828
C 4.82108 24.26925 0.01226
C 6.06936 23.45196 -0.00279
C 6.11921 22.08224 0.01996
C 4.84026 21.32004 -0.03996
C 4.9212 19.87507 0.01465
C 6.14766 19.21565 -0.00074
C 6.05357 17.76666 -0.00518
C 4.80959 17.10408 0.0086
C 4.84389 15.67251 -0.00643
C 2.3942 4.28677 0.00031
C 3.54202 5.08556 0.03189
C 3.57051 6.46892 -0.04307
C 2.33947 7.11532 0.03284
C 3.60462 30.6276 -0.02375
C 2.40744 29.80599 0.00558
C 2.35204 28.40624 -0.0059
C 3.5836 27.67187 -0.01386
C 3.64162 26.26011 -0.02805
C 2.42472 25.65118 0.00081
C 2.39355 24.24208 0.00245
C 3.6021 23.55825 0.02728
C 3.64952 22.07904 -0.00039
C 2.37675 21.31018 0.0064
C 6.15508 14.9873 0.017
C 2.42945 19.89423 0.00211
C 3.56964 17.79557 -0.01979
C 2.42366 17.05211 0.02784
C 2.45679 15.56423 -0.01977
C 3.66025 14.8412 -0.00561
C 3.6938 13.44965 0.00208
C 2.40904 12.75709 0.01707
C 2.46163 11.39033 0.02769
C 3.6782 10.69119 -0.03291
C 3.6914 9.35653 -0.04999
C 2.45841 8.54599 0.04505
C 3.69737 19.20141 -0.00449
C 6.16814 13.64906 -0.03113
C 4.9354 12.85492 -0.02566
C 4.97217 11.44253 -0.00094
C 7.30675 17.09056 0.00054
C 7.39149 15.69026 0.03007
C 8.63601 14.86993 -0.00095
C 8.63724 13.47155 0.01572
C 7.35731 12.82928 -0.04848
C 7.31225 11.39154 -0.00892
C 8.59227 10.65421 -0.01362
C 8.56202 9.17296 -0.0008
C 7.32488 8.55688 0.0288
C 7.37334 7.15801 0.00393
C 8.57219 17.75282 -0.00494
C 8.57771 6.48021 0.00895
C 7.32207 4.30171 0.02888
C 7.33543 2.92764 -0.00482
C 8.59749 2.20951 -0.01384
C 8.54281 0.84341 0.03693
C 7.27157 0.10944 0.01745
C 9.75313 32.79292 0.00488
C 10.92746 32.05959 -0.01004
C 10.87452 30.61028 -0.02896
C 9.62967 29.91503 -0.00131
C 9.72596 28.43768 -0.01118
C 8.56217 5.06321 0.00685
C 17.21607 21.28174 0.01452
C 8.64254 19.12233 -0.00562
C 7.33756 21.30781 0.01849
C 6.11077 10.69293 0.02322
C 6.11601 9.29592 -0.00725
C 4.91511 8.56913 -0.05697
C 4.79629 7.18294 0.01087
C 6.03567 6.43615 -0.01343
C 6.06842 5.02129 0.00988
C 4.81322 4.32457 0.0276
C 4.81039 2.96049 0.01305
C 6.06926 2.26255 -0.00077
C 6.05241 0.81625 0.03368
C 7.3762 19.88828 -0.01142
C 4.80589 0.09936 -0.02929
C 8.4773 32.11823 -0.03337
C 8.47921 30.65824 0.01227
C 7.26813 29.96357 0.00873
C 7.28924 28.5188 -0.00049
C 8.52757 27.84146 0.00848
C 8.56187 26.34083 -0.01303
C 7.33829 25.5759 -0.01378
C 7.32763 24.21083 0.02635
C 8.57513 23.4559 0.0127
C 8.63987 22.07492 0.01396
C 7.26017 32.7553 -0.00966
C 3.48095 32.02234 0.00828
C 17.20017 19.85471 0.04892
C 18.52665 17.73224 -0.03557
C 30.71225 26.27378 -0.00971
C 29.44055 25.5575 0.01518
C 29.53191 24.13291 0.01908
C 30.74031 23.42602 0.07705
C 30.70554 22.03024 0.0103
C 29.46476 21.18 0.02108
C 29.53896 19.83798 0.00716
C 30.74458 19.14766 0.00307
C 30.69238 17.70023 0.00346
C 29.49487 17.03062 0.01713
C 29.53443 15.4776 -0.01694
C 30.79362 14.80558 0.01428
C 30.74668 13.34847 -0.02142
C 29.55957 12.61995 0.0544
C 30.60797 0.54343 0.00026
C 29.39665 33.981 0.00682
C 31.81684 32.68149 -0.01779
C 33.02255 31.90472 0.03794
C 33.01345 30.56239 0.01927
C 31.84962 29.73016 0.01574
C 31.95066 28.35936 -0.02383
C 30.74495 27.68795 -0.03735
C 29.44063 28.40921 -0.00944
C 29.42446 29.7766 -0.02155
C 30.61421 30.46335 -0.01461
C 28.18184 31.85666 0.01799
C 28.16028 30.40523 0.01699
C 26.90494 29.76508 -0.00416
C 26.99948 28.31923 0.01177
C 28.23037 27.63163 0.04266
C 28.23468 26.14216 0.01324
C 27.03418 25.57478 0.0014
C 27.0834 24.16006 0.00924
C 28.34741 23.47326 0.02326
C 28.21222 21.92851 0.00261
C 33.14288 27.61153 -0.01429
C 27.014 21.30273 0.03265
C 28.35022 19.23335 -0.01854
C 28.22548 17.76048 -0.01415
C 27.04253 17.0099 -0.03039
C 27.08723 15.59102 0.01836
C 28.32237 14.82433 0.03531
C 28.31058 13.32779 -0.00669
C 26.95967 12.80212 0.0101
C 26.88785 33.92769 0.01705
C 29.38268 32.59433 -0.0405
C 30.6221 31.83984 -0.01303
C 27.05737 19.89466 -0.02049
C 26.98083 32.55774 0.01259
C 33.18173 26.21606 -0.0136
C 31.96833 24.14194 -0.02474
C 1.15459 22.01446 0.02712
C 34.42682 21.34038 -0.02213
C 34.41462 19.88684 0.01951
C 1.16244 19.1803 -0.01678
C 1.14646 17.7771 0.01223
C 34.4017 17.01683 0.00648
C 0.03089 15.59442 0.02114
C 1.23876 14.89038 -0.02957
C 1.20399 13.48819 0.00343
C 34.42758 12.81648 -0.02656
C 0.06053 11.3716 -0.02442
C 1.32153 10.68341 -0.00027
C 1.22148 9.32823 -0.00583
C 34.37282 8.66049 -0.02302
C 34.36544 7.29277 -0.02849
C 1.10897 6.48659 0.02931
C 1.14735 5.00317 0.00628
C 34.34913 4.3313 -0.0345
C 34.22764 2.91902 -0.00931
C 1.05619 2.22706 -0.00939
C 1.02555 0.81779 -0.00468
C 1.2696 23.46941 0.00723
C 0.03622 24.06045 0.03076
C 34.41662 25.53067 -0.05239
C 1.15239 26.28007 -0.00598
C 33.22903 23.41067 0.00369
C 33.21937 21.97921 0.00455
C 31.94221 21.32039 -0.00644
C 31.99134 19.90245 -0.01839
C 33.2311 19.19909 0.00137
C 33.186 17.67606 0.00199
C 31.96532 16.97929 0.04381
C 31.99368 15.52665 0.02806
C 33.24887 14.89941 0.01504
C 33.24726 13.47531 -0.00069
C 31.90188 25.53386 0.00594
C 32.05785 12.60567 0.04926
C 33.40967 10.55775 0.00349
C 33.06289 2.15039 -0.00323
C 33.10099 0.75016 -0.00841
C 31.83547 34.0656 0.0001
C 34.27606 32.64048 -0.02927
C 1.08633 31.92006 -0.01404
C 1.20125 30.57517 0.01027
C 34.35775 29.87808 0.01831
C 34.28547 28.47513 -0.01037
C 1.11235 27.75526 -0.00439
C 32.20626 11.21016 -0.03838
C 24.44218 33.95643 0.01495
C 25.64113 0.49632 0.00235
C 24.75786 11.40189 0.01094
C 20.91447 23.48354 0.00096
C 20.91251 22.02252 -0.01527
C 19.6385 21.32669 0.01087
C 19.73524 19.89595 0.00199
C 20.98448 19.19897 0.01511
C 20.91595 17.73633 -0.00478
C 19.74535 17.04648 -0.01662
C 19.7526 15.63945 -0.01185
C 20.88269 14.90878 0.01126
C 20.87441 13.52263 0.01852
C 19.63326 12.74924 -0.00381
C 19.70121 11.33441 0.03046
C 20.95647 10.59798 0.0296
C 20.86047 9.19542 0.03374
C 19.65115 8.53398 -0.02845
C 19.61533 7.10175 -0.03213
C 20.92769 6.34015 0.02239
C 20.91956 4.89654 0.01153
C 19.72836 4.19542 0.02734
C 19.75835 2.78701 -0.0055
C 21.03174 2.21317 0.01515
C 19.6728 24.10702 0.01277
C 19.62128 25.59179 -0.02422
C 20.85738 26.25609 -0.01721
C 20.77142 27.69292 -0.01154
C 17.27314 16.99565 0.03754
C 17.2833 15.59011 0.01739
C 18.53351 14.91643 0.00755
C 18.37947 13.4904 -0.0054
C 17.16268 12.77917 0.00667
C 17.20822 11.36451 0.00143
C 18.44544 10.59839 -0.017
C 18.44573 9.22164 0.00364
C 17.2312 8.44312 -0.00831
C 17.2057 7.06554 -0.02957
C 20.94976 0.79308 -0.00225
C 18.48826 6.37551 -0.04422
C 17.30897 4.24702 -0.00703
C 17.36153 2.81848 -0.04076
C 18.4623 2.01806 -0.00652
C 18.44391 0.64068 0.0058
C 17.12639 0.0713 -0.00865
C 19.57316 32.68252 0.00675
C 20.862 31.87821 -0.00311
C 20.79494 30.48526 0.00742
C 19.54854 29.83275 -0.01594
C 19.56987 28.44469 0.0106
C 18.49271 4.94468 0.00654
C 19.69274 0.00678 0.00071
C 22.02357 32.60267 -0.01107
C 23.24837 31.8565 -0.01586
C 23.30908 0.6257 0.04306
C 22.11674 34.00313 0.00996
C 24.48271 32.53623 0.00195
C 25.70621 31.85408 -0.00802
C 25.68208 30.42636 -0.00218
C 24.5089 29.80345 -0.01654
C 24.52777 28.37431 -0.00037
C 25.73689 27.67086 -0.0032
C 25.83026 26.31939 0.00622
C 24.57761 25.57015 -0.02815
C 23.44638 1.99055 0.00367
C 24.58236 24.19156 -0.00942
C 25.83731 22.06864 0.00826
C 24.6608 21.30776 -0.00294
C 24.65696 19.8757 0.00152
C 25.87179 19.14335 0.01257
C 25.84591 17.69917 0.02316
C 24.61712 17.01061 0.04185
C 24.6573 15.61916 0.00194
C 25.84825 14.9191 -0.00621
C 25.78871 13.52347 0.02611
C 24.53055 12.75949 0.02198
C 25.87372 23.45575 0.00487
C 18.47431 19.18069 -0.00111
C 22.36732 2.99304 -0.01679
C 22.19308 6.91253 0.00684
C 23.24622 30.43728 -0.01971
C 22.01605 29.77999 -0.02118
C 22.10556 28.32765 0.00733
C 23.29161 27.70275 -0.00178
C 23.41252 26.28628 0.00768
C 22.03904 25.52804 -0.0276
C 22.08399 24.12874 0.03005
C 23.3312 23.37475 -0.04078
C 23.4012 21.98676 0.02117
C 22.14632 21.28179 0.02737
C 22.2862 4.47581 -0.01052
C 22.20958 19.82412 -0.00498
C 23.38756 17.70261 0.03102
C 22.11159 17.02502 0.02555
C 22.18671 15.58983 0.01423
C 23.44175 14.89114 -0.00285
C 23.33703 13.47883 -0.009
C 22.08279 12.76155 -0.01199
C 22.20833 11.3255 -0.00229
C 23.4465 10.5222 -0.00938
C 23.3301 9.14134 -0.0264
C 22.12054 8.41402 -0.01154
C 23.39914 19.14416 0.00135
C 2.2566 32.78512 0.00088
