337
Graphene
C 34.40748 0.06027 0.01295
C 13.40623 10.58967 -0.00481
C 13.42921 9.13846 0.00979
C 12.04745 8.4063 0.01443
C 11.96328 7.02542 0.03505
C 13.28112 6.44861 -0.02815
C 13.40522 5.06765 -0.04147
C 12.15247 4.27404 -0.05302
C 12.32052 2.86551 0.00213
C 13.55652 2.22857 -0.00066
C 13.60681 0.77401 -0.00289
C 12.31762 0.01831 0.00028
C 14.70333 32.69837 -0.02213
C 15.99999 31.94192 0.03698
C 15.98752 30.59872 -0.00109
C 14.78672 29.98786 -0.00491
C 15.95932 17.69751 0.03338
C 14.8812 16.90383 -0.0258
C 12.22605 11.36719 0.00889
C 14.73133 15.48825 -0.0331
C 12.28448 12.78994 -0.02162
C 13.52641 14.7545 0.01848
C 9.59001 8.46608 -0.02813
C 9.50636 7.01222 0.00374
C 10.65369 6.17462 0.00052
C 10.80869 4.77228 -0.03682
C 9.87412 2.71063 0.01965
C 11.06265 2.20456 0.02058
C 11.15796 0.7497 -0.01957
C 9.90626 0.08951 -0.0108
C 12.28648 32.73724 -0.00368
C 13.47134 31.96146 -0.02696
C 13.55068 30.4367 -0.00114
C 12.24928 29.74923 0.00228
C 11.73893 28.3971 0.00798
C 13.91472 18.9481 0.00422
C 13.62671 17.6069 0.0351
C 12.32266 16.91161 -0.03113
C 12.21083 15.45819 0.02098
C 13.57126 13.42507 -0.00619
C 10.8801 9.1802 -0.01952
C 15.99469 14.82434 -0.00316
C 14.74571 12.66806 -0.01979
C 18.38335 10.64176 0.0058
C 18.38507 9.2382 -0.00865
C 17.16774 8.49105 0.00675
C 17.13356 7.0877 -0.00311
C 18.4316 6.37948 0.00742
C 18.37822 5.01795 -0.01594
C 17.13672 4.32253 0.0106
C 17.19156 2.89278 -0.01154
C 18.39548 2.21005 -0.01721
C 18.36224 0.82051 -0.02422
C 17.26015 34.06387 0.01277
C 19.73387 32.6043 0.00096
C 20.85393 31.90666 -0.01527
C 20.99004 30.56834 0.01087
C 21.08162 17.8539 0.00199
C 19.76394 17.21325 0.01511
C 19.69096 15.65425 -0.00478
C 17.10758 11.39961 -0.00652
C 16.00786 13.38852 0.02188
C 17.27055 12.83191 -0.04076
C 18.44744 14.9633 0.00654
C 14.61469 11.3165 0.02691
C 15.86515 10.64302 -0.01581
C 15.88665 9.23253 0.01452
C 14.59394 8.48377 0.04892
C 14.57256 7.07568 -0.00111
C 15.86213 6.44078 -0.03557
C 15.91907 5.03188 0.03754
C 14.66828 4.39623 0.01739
C 14.78243 2.8801 0.00755
C 16.0016 2.13992 -0.0054
C 16.03981 0.68634 0.00667
C 14.77004 0.06022 0.00143
C 17.32145 32.576 -0.017
C 18.53459 31.8745 0.00364
C 18.47318 17.6406 -0.00831
C 17.24005 17.01898 -0.02957
C 17.16384 15.52834 -0.04422
C 18.55968 13.56114 -0.00703
C 10.87713 10.69204 0.05265
C 9.72937 11.36451 -0.01717
C 9.77098 12.79871 0.00244
C 2.37599 8.45525 0.01745
C 2.50336 7.02765 0.00488
C 3.81322 6.339 -0.01004
C 3.83026 4.85454 -0.02896
C 2.56112 4.23806 -0.00131
C 2.40912 2.84856 -0.01118
C 3.63804 2.08381 -0.014
C 3.64214 0.68529 0.02147
C 2.31364 0.10678 0.00373
C 5.00323 32.75425 -0.00191
C 6.32724 32.18635 0.00438
C 6.24044 30.75199 0.01291
C 5.01304 29.91867 0.00093
C 4.97821 28.50886 0.00057
C 6.27297 27.84541 -0.01634
C 4.92002 19.73525 -0.00334
C 6.067 19.08375 0.02339
C 3.55325 9.18281 0.03693
C 6.16121 17.69799 0.01641
C 3.56894 10.70606 -0.01384
C 2.37702 12.74921 0.02888
C 3.69642 30.64769 0.01396
C 2.42713 29.8541 0.01849
C 2.37476 28.49431 -0.01142
C 3.71094 27.7529 -0.00562
C 3.72408 26.36615 -0.00494
C 2.45455 25.64284 0.00054
C 2.45085 24.25085 0.03007
C 3.5225 23.36987 -0.00095
C 3.6004 22.04871 0.01572
C 2.52368 21.32848 -0.04848
C 2.33123 19.83505 -0.00892
C 3.73398 19.19851 -0.01362
C 3.76155 17.75363 -0.0008
C 2.52778 17.0256 0.0288
C 2.5 15.58715 0.00393
C 3.73546 14.82393 0.00895
C 3.66371 13.45672 0.00685
C 2.28122 11.31056 -0.00482
C 4.95738 17.01859 -0.00719
C 4.90012 15.65282 0.01364
C 6.17048 14.93216 -0.01062
C 7.23493 11.4887 0.02894
C 8.56426 10.75643 -0.01789
C 8.40556 9.20241 0.00444
C 7.21666 8.506 -0.00925
C 7.33869 7.18504 0.01877
C 8.7933 1.08211 0.01363
C 7.41937 0.44669 -0.02162
C 9.83648 32.74967 0.00415
C 11.08761 32.01535 -0.0014
C 11.01671 30.62297 0.02162
C 9.75217 29.97182 0.0076
C 9.93809 28.54433 0.01241
C 11.28847 17.70744 -0.01454
C 9.94201 17.22978 0.01945
C 9.8294 15.65517 0.01416
C 10.96389 14.91355 0.03542
C 10.93431 13.51177 0.02299
C 7.31841 12.88355 -0.02971
C 8.56534 13.52869 0.00165
C 8.66714 14.9425 0.02819
C 7.43711 15.59766 -0.00891
C 6.05286 13.59066 -0.00033
C 4.87988 12.77859 0.03589
C 4.8438 11.402 -0.02759
C 6.02982 10.72386 0.0402
C 5.97259 9.25412 0.00572
C 4.8352 8.43954 0.03592
C 4.93196 7.11751 0.00406
C 4.88972 3.98391 0.00943
C 20.90402 14.87156 -0.01662
C 4.97582 2.48522 0.02841
C 4.92763 0.0631 -0.01275
C 7.42322 33.07368 0.00985
C 8.58598 32.19046 -0.02245
C 8.5336 30.73198 -0.00428
C 7.44837 29.913 0.03101
C 7.45921 28.50235 -0.01536
C 8.69604 17.6694 -0.02689
C 7.45582 17.01078 -0.01046
C 6.003 1.03835 -0.01111
C 3.7387 31.99802 0.0127
C 20.92454 13.42217 -0.01185
C 19.63606 11.35887 0.01852
C 30.68845 0.80961 0.0544
C 29.43524 0.21914 0.00026
C 31.88855 32.68199 0.00682
C 33.15485 32.01619 -0.01779
C 33.0877 30.59469 0.03794
C 31.88221 29.89516 0.01927
C 31.88438 28.46426 0.01574
C 33.13279 27.74893 -0.02383
C 33.21324 26.306 -0.01429
C 31.95892 25.53929 -0.0136
C 31.94397 24.1686 0.00594
C 33.11515 23.48373 -0.02474
C 33.15864 22.05458 0.00369
C 31.97522 21.30629 0.00455
C 31.90791 19.78665 -0.00644
C 33.20181 19.21168 -0.01839
C 33.23086 17.83162 0.00137
C 30.9365 10.5954 -0.02142
C 32.06843 17.09358 0.00199
C 29.60178 11.10083 0.01428
C 30.77054 13.46403 0.01713
C 30.69689 32.02105 0.0101
C 30.68737 30.63666 0.01705
C 29.42109 29.86528 -0.0405
C 29.35603 28.4931 -0.01303
C 30.6177 27.71635 -0.01461
C 30.68251 26.3383 -0.02155
C 29.45785 25.64688 -0.00944
C 29.49878 24.17152 -0.03735
C 30.71584 23.46301 -0.00971
C 30.75802 21.97518 0.01518
C 29.5591 21.2273 0.01908
C 29.47531 19.83095 0.07705
C 30.68728 19.17216 0.0103
C 30.86201 17.6966 0.02108
C 29.55849 17.00296 0.00716
C 29.50256 15.56842 0.00307
C 30.67358 14.8844 0.00346
C 29.55618 12.64478 -0.01694
C 29.40775 32.8531 -0.00669
C 32.00518 15.61974 0.04381
C 33.2535 13.50158 0.01504
C 1.20295 17.71996 0.01223
C 34.36979 17.03112 0.00648
C 34.40819 15.59638 0.02114
C 1.23507 14.9418 -0.02957
C 1.18199 13.58002 0.00343
C 0.03429 12.84761 -0.02656
C 0.02897 11.35135 -0.02442
C 1.10596 10.48082 -0.00027
C 1.07424 9.0626 -0.00583
C 34.21817 8.36159 -0.02302
C 0.03258 6.93794 -0.02849
C 1.28783 6.32816 0.02931
C 1.33636 4.96655 0.00628
C 0.08284 4.38204 -0.0345
C 34.17822 2.95318 -0.00931
C 1.08292 2.22832 -0.00939
C 1.11162 0.80089 -0.00468
C 1.10951 19.12916 -0.01678
C 33.17424 14.90073 0.02806
C 34.36229 19.93695 0.01951
C 1.26311 22.07283 0.02712
C 31.94793 12.84105 -0.00069
C 32.02441 11.42499 0.04926
C 33.19734 10.64544 -0.03838
C 32.98722 9.13182 0.00349
C 33.05956 2.14102 -0.00323
C 33.11564 0.71602 -0.00841
C 31.89687 0.07797 0.0001
C 34.4074 32.67251 -0.02927
C 1.22466 31.97006 -0.01404
C 1.19902 30.60396 0.01027
C 34.38258 29.97672 0.01831
C 34.34012 28.54563 -0.01037
C 1.11905 27.90383 -0.00439
C 1.20361 26.4398 -0.00598
C 34.42985 25.55448 -0.05239
C 34.37644 24.20659 0.03076
C 1.17099 23.52388 0.00723
C 34.42264 21.40341 -0.02213
C 26.9781 0.04707 0.03531
C 28.09318 0.7859 0.01836
C 28.22509 10.5126 -0.03039
C 22.14087 12.85042 0.03005
C 22.12398 11.42458 -0.04078
C 23.26461 10.70953 0.02117
C 23.36974 9.27109 0.02737
C 22.08913 8.65037 -0.00498
C 22.16085 7.21856 0.00135
C 23.40182 6.65361 0.03102
C 23.37448 5.12041 0.02555
C 22.18775 4.33405 0.01423
C 22.19157 2.94664 -0.00285
C 23.36166 2.16786 -0.009
C 23.31319 0.76355 -0.01199
C 22.05448 0.09908 -0.00229
C 24.54425 32.64588 -0.00938
C 25.78018 31.92642 -0.0264
C 25.75973 30.54285 -0.01154
C 24.53037 29.75561 0.00684
C 23.38963 13.44675 -0.0276
C 24.4841 28.39064 -0.01052
C 23.41113 14.8468 0.00768
C 22.13968 16.93931 0.00733
C 20.84274 10.72663 -0.00381
C 20.90529 9.27486 0.03046
C 19.65199 8.57427 0.0296
C 19.60823 7.20641 0.03374
C 20.88212 6.46054 -0.02845
C 20.93499 5.02286 -0.03213
C 19.64554 4.19846 0.02239
C 19.65099 2.88873 0.01153
C 20.96054 2.25224 0.02734
C 20.85083 0.83364 -0.0055
C 19.62243 0.06563 0.01515
C 22.09016 32.7001 -0.00225
C 23.26505 32.01617 0.00071
C 23.28838 30.60282 -0.01107
C 22.10511 29.87079 -0.01586
C 23.22575 19.03718 -0.01971
C 23.40413 17.64995 -0.02118
C 22.10743 15.5515 -0.00178
C 25.71152 27.57832 -0.01679
C 25.7206 26.11586 0.00367
C 25.79657 23.48592 0.04306
C 26.88937 28.35515 0.00235
C 28.15322 27.65505 0.01495
C 28.17455 26.27611 0.01259
C 27.00941 25.46605 0.01799
C 27.02041 24.12461 0.01699
C 28.32236 23.40347 -0.00416
C 28.28181 21.96562 0.01177
C 26.96289 21.28758 0.04266
C 26.99491 19.85809 0.01324
C 28.26487 19.17327 0.0014
C 28.39967 17.74157 0.00924
C 27.15961 17.02738 0.02326
C 27.07458 15.53525 0.00261
C 28.29471 14.78466 0.03265
C 28.3027 13.37115 -0.02049
C 27.04565 12.59202 -0.01854
C 26.95309 11.13699 -0.01415
C 26.96812 29.79665 0.01094
C 28.20888 30.60736 0.02198
C 28.19159 32.00734 0.02611
C 26.96061 32.62812 -0.00621
C 25.74467 22.08212 0.00996
C 24.73961 21.10159 0.00195
C 24.5044 19.79388 -0.00802
C 25.83782 19.0108 -0.00218
C 25.84926 17.60891 -0.01654
C 24.69265 16.93579 -0.00037
C 24.62893 15.49448 -0.0032
C 25.9162 14.80123 0.00622
C 19.69796 12.80103 0.01126
C 25.86328 13.41684 -0.02815
C 24.54543 11.26693 0.00487
C 25.60851 10.3545 0.00826
C 24.62762 8.76039 -0.00294
C 24.48596 4.33792 0.00152
C 24.71955 2.89679 0.01257
C 25.76551 2.03645 0.02316
C 25.71422 0.63257 0.04185
C 24.48565 34.06317 0.00194
C 24.61596 12.72638 -0.00942
C 2.42642 32.72624 0.02635
