422
Graphene
C 34.36495 33.99171 0.01295
C 13.45073 26.39887 0.03592
C 12.29704 25.65135 0.00406
C 12.25053 24.19936 0.00943
C 13.49463 23.44407 0.02841
C 13.49078 21.97922 -0.01111
C 12.24206 21.32606 -0.01275
C 12.25945 19.9611 0.00985
C 13.57012 19.26695 -0.02245
C 13.594 17.85572 -0.00428
C 12.31356 17.09384 0.03101
C 13.43667 27.78944 0.00572
C 12.24908 15.73117 -0.01536
C 13.4724 13.43173 -0.01046
C 12.28052 12.69671 -0.00891
C 12.32689 11.27657 0.02819
C 13.56434 10.65724 0.00165
C 13.56621 9.19019 -0.02971
C 12.36003 8.48115 0.02894
C 12.23907 7.13601 -0.01789
C 13.50265 6.39877 0.00444
C 13.51518 4.9334 -0.00925
C 12.28452 4.26719 0.01877
C 13.47379 14.87639 -0.02689
C 12.24428 2.81701 0.01363
C 12.19814 28.50748 0.0402
C 13.51428 30.58273 0.03589
C 9.84987 19.88419 0.01745
C 11.03826 19.19058 0.00488
C 11.06411 17.7713 -0.01004
C 9.80157 17.14178 -0.02896
C 9.83673 15.64922 -0.00131
C 11.11245 14.90056 -0.01118
C 11.1255 13.4878 -0.014
C 9.827 12.71493 0.02147
C 9.81762 11.35374 0.00373
C 11.05334 10.67267 -0.00191
C 12.2193 29.99017 -0.02759
C 11.01474 9.25539 0.00438
C 9.78262 7.08967 0.00093
C 11.07413 6.38235 0.00057
C 11.04455 4.99575 -0.01634
C 9.74006 4.29317 -0.00334
C 9.78133 2.8525 0.02339
C 10.94049 2.16589 0.01641
C 10.9786 0.79526 -0.00719
C 9.71785 0.0889 0.01364
C 12.23863 32.67495 -0.01062
C 13.46795 31.98175 -0.00033
C 9.79204 8.55091 0.01291
C 13.4146 2.22709 -0.02162
C 13.49791 0.74314 0.00415
C 12.21916 0.11542 -0.0014
C 14.7545 4.25598 -0.03113
C 14.78089 2.79245 0.02098
C 16.04051 2.09932 0.01848
C 15.99014 0.70834 -0.00619
C 14.78699 0.11069 -0.02162
C 17.18435 32.74355 0.00889
C 18.35088 31.95089 -0.00481
C 18.40693 30.62177 0.00979
C 17.21754 29.87402 0.01443
C 17.16914 28.44095 0.03505
C 15.99839 5.06867 0.0351
C 18.36372 27.72135 -0.02815
C 17.12957 25.51857 -0.05302
C 17.13319 24.08765 0.00213
C 18.3875 23.39933 -0.00066
C 18.44197 21.93299 -0.00289
C 17.08262 21.29053 0.00028
C 17.14028 19.85559 -0.02213
C 18.48656 19.18082 0.03698
C 18.53548 17.82052 -0.00109
C 17.36878 16.95868 -0.00491
C 17.26797 15.44855 0.03338
C 18.32355 26.24331 -0.04147
C 16.03013 6.44609 0.00422
C 14.72297 7.19505 0.00798
C 14.86721 8.56219 0.00228
C 14.68486 32.74716 0.02162
C 15.92777 32.02342 0.0076
C 15.92545 30.58287 0.01241
C 14.72452 29.82309 -0.01454
C 14.69069 28.42778 0.01945
C 15.87437 27.71164 0.01416
C 15.90777 26.29281 0.03542
C 14.62325 25.5896 0.02299
C 14.60816 24.19395 0.00244
C 15.86127 23.40693 -0.01717
C 15.85852 22.06623 0.05265
C 14.77676 21.3701 -0.01952
C 14.78103 19.96306 -0.02813
C 16.01812 19.09252 0.00374
C 16.11559 17.63755 0.00052
C 14.76482 17.02884 -0.03682
C 14.70383 15.58901 0.01965
C 15.97758 14.85835 0.02058
C 15.99593 13.41117 -0.01957
C 14.76102 12.75865 -0.0108
C 14.82672 11.32889 -0.00368
C 16.10113 10.70501 -0.02696
C 16.12901 9.22562 -0.00114
C 9.83966 21.31261 0.03693
C 11.0474 22.04872 -0.01384
C 10.98638 23.51072 -0.00482
C 9.77386 24.23406 0.02888
C 3.57763 2.22168 -0.01977
C 3.63133 0.7903 -0.00561
C 2.41171 0.06029 0.00208
C 4.87347 32.76823 0.01707
C 6.15745 31.97998 0.02769
C 6.13593 30.54977 -0.03291
C 4.91514 29.80412 -0.04999
C 4.85216 28.38562 0.04505
C 6.14081 27.76902 0.03284
C 6.14529 26.37213 -0.04307
C 2.35087 2.91473 0.02784
C 4.90931 25.63582 0.03189
C 6.10345 23.49063 -0.003
C 6.11769 22.05852 0.01402
C 4.8805 21.3585 0.02379
C 4.89614 19.8378 0.00907
C 6.12276 19.17069 0.00643
C 6.15851 17.74603 -0.01509
C 4.92369 17.05566 0.03267
C 4.89638 15.66608 0.02374
C 6.15223 14.94411 0.00402
C 6.14626 13.53831 0.0073
C 4.96098 24.20881 0.00031
C 2.26667 4.38907 -0.01979
C 3.59233 5.03588 -0.00449
C 3.489 6.42059 0.00211
C 3.64615 30.46558 -0.00112
C 2.4304 29.79241 0.03345
C 2.4677 28.31249 0.00748
C 3.66132 27.62626 0.00662
C 3.67652 26.27716 -0.0154
C 2.45988 25.47304 -0.01299
C 2.49962 24.06879 -0.00407
C 3.69169 23.38875 0.01138
C 3.61232 22.00589 0.03278
C 2.46976 21.30161 -0.00177
C 2.49457 19.81489 0.04421
C 3.65636 19.11363 0.00088
C 3.70106 17.71642 0.00828
C 2.40872 16.99168 -0.02375
C 2.38754 15.62794 0.00558
C 3.67901 14.94347 -0.0059
C 3.65518 13.56173 -0.01386
C 2.36352 12.74671 -0.02805
C 2.34173 11.33194 0.00081
C 3.57622 10.75313 0.00245
C 3.49946 9.28527 0.02728
C 2.24855 8.57588 -0.00039
C 2.21574 7.17481 0.0064
C 4.93017 12.87899 0.0174
C 17.24205 12.86985 -0.0258
C 4.8994 11.40351 0.03828
C 6.07102 9.22582 -0.00279
C 8.51708 13.49115 0.00848
C 7.32412 12.75462 -0.01303
C 7.35164 11.38448 -0.01378
C 8.59787 10.68053 0.02635
C 8.555 9.26007 0.0127
C 7.31566 8.54534 0.01396
C 7.33712 7.05475 0.01849
C 8.51412 6.35017 -0.01142
C 8.43583 5.00994 -0.00562
C 7.30041 4.33159 -0.00494
C 8.63575 14.86419 -0.00049
C 7.22576 2.90607 0.00054
C 8.49654 0.81416 -0.00095
C 7.22858 0.1016 0.01572
C 9.83163 32.77524 -0.04848
C 11.01471 32.09157 -0.00892
C 10.97992 30.64848 -0.01362
C 9.80415 29.86373 -0.0008
C 9.78444 28.49825 0.0288
C 11.02497 27.79018 0.00393
C 10.99718 26.34197 0.00895
C 9.80234 25.68126 0.00685
C 8.51535 2.19329 0.03007
C 7.36786 15.57622 0.00873
C 7.43615 17.05252 0.01227
C 8.57495 17.79927 -0.03337
C 4.76399 8.56011 0.01996
C 4.70623 7.1077 -0.03996
C 6.08736 6.50262 0.01465
C 6.04178 5.08191 -0.00074
C 4.81883 4.28044 -0.00518
C 4.75567 2.91375 0.0086
C 5.97475 2.15992 -0.00643
C 6.05078 0.7955 0.017
C 4.83335 0.09212 -0.03113
C 7.35715 32.8189 -0.02566
C 8.53361 32.0204 -0.00094
C 8.5448 30.64705 0.02322
C 7.37948 29.9268 -0.00725
C 7.36293 28.48566 -0.05697
C 8.57751 27.79384 0.01087
C 8.5681 26.34574 -0.01343
C 7.41008 25.58975 0.00988
C 7.40331 24.13495 0.0276
C 8.61688 23.54905 0.01305
C 8.67743 22.08106 -0.00077
C 7.36525 21.42247 0.03368
C 7.34879 19.99934 -0.02929
C 8.60222 19.27546 -0.00966
C 6.17193 10.6904 0.01226
C 17.337 11.45312 -0.0331
C 18.52685 10.67319 -0.00316
C 18.54734 9.31087 0.02188
C 30.75578 17.81414 -0.02155
C 29.51672 17.06826 -0.00944
C 29.52706 15.60781 -0.03735
C 30.87029 14.99603 -0.00971
C 30.76534 13.55432 0.01518
C 29.63296 12.70959 0.01908
C 30.00718 11.29954 0.07705
C 29.68547 7.2496 0.0103
C 31.00282 6.55968 0.02108
C 30.69622 5.02876 0.00716
C 30.76559 19.19161 -0.01461
C 29.47626 4.1969 0.00307
C 30.67443 2.07402 0.01713
C 30.69304 0.5652 -0.01694
C 29.4395 33.97061 0.01428
C 31.94455 32.5593 -0.02142
C 33.09389 31.84739 0.0544
C 33.16026 30.40508 0.00026
C 31.94808 29.7557 0.00682
C 31.97975 28.38714 -0.01779
C 33.18608 27.61264 0.03794
C 33.16318 26.26023 0.01927
C 29.42542 2.78265 0.00346
C 29.46768 19.84365 -0.01303
C 29.4746 21.26151 -0.0405
C 30.75369 22.02189 0.01705
C 27.05768 12.76102 0.01094
C 27.19519 11.28365 0.00235
C 28.65544 10.49708 0.01495
C 28.47118 9.0579 0.01259
C 27.15453 8.58025 0.01799
C 27.15631 7.14713 0.01699
C 28.39843 6.49467 -0.00416
C 28.22292 5.0401 0.01177
C 27.04965 4.23776 0.04266
C 27.04797 2.80202 0.01324
C 28.23381 2.10588 0.0014
C 28.25105 0.67004 0.00924
C 27.05224 34.07057 0.02326
C 29.47864 32.53655 0.00261
C 30.71511 31.86968 0.03265
C 30.68929 30.48445 -0.02049
C 29.47902 29.75404 -0.01854
C 29.54052 28.3023 -0.01415
C 30.71741 27.66561 -0.03039
C 30.72453 26.22329 0.01836
C 29.46468 25.51903 0.03531
C 29.45362 24.06145 -0.00669
C 30.63241 23.36588 0.0101
C 31.96919 25.53337 0.01574
C 28.35864 13.43303 0.02198
C 31.96024 24.06553 -0.02383
C 33.21077 21.95945 -0.0136
C 1.17571 23.39881 0.00723
C 1.16106 22.0133 0.02712
C 34.36263 21.24759 -0.02213
C 0.00283 19.81142 0.01951
C 1.21926 19.09229 -0.01678
C 1.22492 17.66027 0.01223
C 0.04296 16.98536 0.00648
C 0.00859 15.56468 0.02114
C 1.18862 14.82349 -0.02957
C 1.13578 13.43068 0.00343
C 34.37576 24.13786 0.03076
C 34.34798 12.71433 -0.02656
C 1.09904 10.70404 -0.00027
C 0.94163 9.33512 -0.00583
C 34.00048 8.80203 -0.02302
C 33.85164 7.19161 -0.02849
C 0.85259 6.4991 0.02931
C 0.99237 5.11395 0.00628
C 34.2468 4.34988 -0.0345
C 34.28427 2.86776 -0.00931
C 1.16218 2.09084 -0.00939
C 1.13735 0.62571 -0.00468
C 34.25977 11.25623 -0.02442
C 34.40278 25.57337 -0.05239
C 1.22089 26.14385 -0.00598
C 1.24124 27.64415 -0.00439
C 31.93359 21.30825 0.00594
C 31.93989 19.85366 -0.02474
C 33.2332 19.1643 0.00369
C 33.24476 17.80392 0.00455
C 32.02245 17.14167 -0.00644
C 32.12114 15.73566 -0.01839
C 33.20588 14.88911 0.00137
C 33.09412 13.47951 0.00199
C 31.92869 12.74442 0.04381
C 31.60068 11.23906 0.02806
C 32.97177 10.43146 0.01504
C 32.58608 6.4306 -0.00069
C 33.02222 4.99853 0.04926
C 31.88797 4.18503 -0.03838
C 31.88072 2.73667 0.00349
C 33.19976 2.05132 -0.00323
C 33.20348 0.68521 -0.00841
C 31.92108 33.93567 0.0001
C 34.37104 32.60906 -0.02927
C 1.15573 31.90567 -0.01404
C 1.14167 30.45874 0.01027
C 34.34855 29.75285 0.01831
C 0.02814 28.30768 -0.01037
C 33.15623 23.41268 -0.01429
C 3.72074 32.03119 0.01078
C 28.26272 14.90704 0.02611
C 26.84733 16.96773 0.00194
C 20.91794 6.39886 -0.01594
C 20.91817 4.99161 0.0106
C 19.7225 4.28192 -0.01154
C 19.67533 2.92787 -0.01721
C 20.84359 2.12543 -0.02422
C 20.88432 0.63119 0.01277
C 19.66746 34.00627 0.00096
C 22.15778 32.61411 -0.01527
C 23.27975 31.84201 0.01087
C 23.2475 30.46968 0.00199
C 19.70152 7.09036 0.00742
C 22.0805 29.76976 0.01511
C 23.27738 27.66263 -0.01662
C 23.27214 26.2217 -0.01185
C 22.01083 25.53878 0.01126
C 22.06301 24.045 0.01852
C 23.28325 23.33531 -0.00381
C 23.27992 21.88414 0.03046
C 22.04875 21.20154 0.0296
C 22.0642 19.73892 0.03374
C 23.39498 19.16697 -0.02845
C 23.41563 10.81536 -0.03213
C 22.05589 28.37186 -0.00478
C 19.79161 8.5703 -0.00311
C 21.00182 9.40128 0.00675
C 21.36868 10.71281 -0.00865
C 17.34024 8.60062 -0.01979
C 17.22265 7.10217 0.02691
C 18.46797 6.40464 -0.01581
C 18.44246 4.93722 0.01452
C 17.30692 4.20317 0.04892
C 17.28596 2.81403 -0.00111
C 18.51484 2.15281 -0.03557
C 18.48687 0.69816 0.03754
C 17.2104 0.04258 0.01739
C 19.59457 32.61181 0.00755
C 20.8378 31.93825 -0.0054
C 20.77822 30.50455 0.00667
C 19.61979 29.80886 0.00143
C 19.52166 28.37869 -0.017
C 20.78003 27.64943 0.00364
C 20.81948 26.25919 -0.00831
C 19.61303 25.51938 -0.02957
C 19.57702 24.091 -0.04422
C 20.80383 23.39902 0.00654
C 20.86991 21.98298 -0.00703
C 19.64294 21.3625 -0.04076
C 19.6124 19.89947 -0.00652
C 20.79083 19.2333 0.0058
C 23.34498 9.25526 0.02239
C 26.95486 15.52713 -0.00621
C 22.15016 8.54564 0.01153
C 23.45743 6.45613 -0.0055
C 25.93131 6.45862 0.00684
C 25.88236 5.0017 -0.01052
C 24.66032 4.27571 -0.01679
C 24.56373 2.82565 0.00367
C 25.84173 2.11012 0.04306
C 25.74203 0.66659 0.00996
C 24.48617 33.95591 0.00195
C 27.03735 32.56203 -0.00802
C 28.26282 31.84139 -0.00218
C 28.2584 30.48152 -0.01654
C 24.58784 7.11886 -0.01154
C 27.04381 29.80146 -0.00037
C 28.32372 27.63683 0.00622
C 28.3014 26.24159 -0.02815
C 26.9838 25.54999 -0.00942
C 27.01601 24.13513 0.00487
C 28.30264 23.3976 0.00826
C 28.22114 22.00742 -0.00294
C 27.05359 21.34314 0.00152
C 27.10259 19.93967 0.01257
C 28.26709 19.10916 0.02316
C 28.21839 17.69199 0.04185
C 26.99068 28.28868 -0.0032
C 24.66687 8.64941 -0.0264
C 25.87606 9.38418 -0.00938
C 25.89868 10.75767 -0.00229
C 23.40325 4.99678 0.01515
C 22.18171 4.2959 -0.00225
C 22.10333 2.82112 0.00071
C 23.29776 2.06819 -0.01107
C 23.32436 0.65347 -0.01586
C 22.14195 34.02437 -0.01971
C 24.55462 32.55188 -0.02118
C 25.84385 31.88621 0.00733
C 25.7706 30.55799 -0.00178
C 24.55453 29.79508 0.00768
C 24.49386 28.33764 -0.0276
C 25.74669 27.63539 0.03005
C 25.74149 26.22018 -0.04078
C 24.46939 25.56134 0.02117
C 24.43935 24.10428 0.02737
C 25.74832 23.49949 -0.00498
C 25.74111 22.0385 0.00135
C 24.56656 21.34358 0.03102
C 24.59935 20.00359 0.02555
C 25.8477 19.21007 0.01423
C 25.76206 17.89151 -0.00285
C 26.01258 13.6354 -0.009
C 24.48251 11.35693 -0.01199
C 22.26371 7.13495 0.02734
C 2.39266 32.70667 -0.02827
