325
Graphene
C 34.42703 0.03587 0.01295
C 9.8476 24.17096 -0.00066
C 11.15008 23.45538 -0.00289
C 11.25399 22.00016 0.00028
C 9.9454 21.32152 -0.02213
C 9.89955 19.8531 0.03698
C 11.13611 19.09804 -0.00109
C 11.02893 17.74435 -0.00491
C 9.81289 25.57613 0.00213
C 9.8105 17.00563 0.03338
C 11.10397 14.8088 -0.0331
C 11.06934 13.43619 -0.00316
C 9.843 12.75754 0.02188
C 9.86504 11.39064 -0.01979
C 11.06731 10.66306 0.02691
C 11.03895 9.19743 -0.01581
C 9.80474 8.54459 0.01452
C 9.82544 15.55543 -0.0258
C 9.82137 7.13261 0.04892
C 11.07289 26.29724 -0.05302
C 9.85577 28.37024 -0.02815
C 7.39171 11.35902 -0.02696
C 8.61449 10.67648 -0.00114
C 8.58367 9.27674 0.00228
C 7.35222 8.53213 0.00798
C 7.31822 7.1854 0.00422
C 8.60223 6.486 0.0351
C 8.56063 5.04439 -0.03113
C 11.0273 27.63792 -0.04147
C 7.34778 4.33245 0.02098
C 8.59556 2.1535 -0.00619
C 8.60148 0.7149 -0.02162
C 7.37008 34.07687 0.00889
C 9.80481 32.63373 -0.00481
C 11.02233 31.92292 0.00979
C 10.99623 30.5552 0.01443
C 9.76345 29.79707 0.03505
C 7.39501 2.90416 0.01848
C 11.04594 6.43261 -0.00111
C 11.03733 4.91813 -0.03557
C 9.8475 4.2811 0.03754
C 13.55944 15.01785 -0.01154
C 13.55097 13.57123 -0.01721
C 12.35827 12.77462 -0.02422
C 12.35608 11.33937 0.01277
C 13.57326 10.67129 0.00096
C 13.48789 9.30033 -0.01527
C 12.28486 8.46145 0.01087
C 12.30149 15.63573 0.0106
C 12.2627 7.12843 0.00199
C 13.55049 4.92883 -0.00478
C 12.27036 4.20938 -0.01662
C 12.17901 2.79682 -0.01185
C 13.45311 2.12829 0.01126
C 13.48911 0.72962 0.01852
C 12.26497 0.03147 -0.00381
C 14.67885 32.6481 0.03046
C 13.47704 6.41697 0.01511
C 12.24643 17.01064 -0.01594
C 13.44124 17.7744 0.00742
C 13.5481 19.19076 -0.00311
C 9.82636 2.81833 0.01739
C 10.97811 2.12936 0.00755
C 11.05302 0.75887 -0.0054
C 9.83655 34.07517 0.00667
C 12.27726 32.69123 0.00143
C 13.46369 31.98783 -0.017
C 13.48875 30.60739 0.00364
C 12.24465 29.81008 -0.00831
C 12.23652 28.32896 -0.02957
C 13.53723 27.67826 -0.04422
C 13.62649 26.29264 0.00654
C 12.34811 25.58436 -0.00703
C 12.39103 24.21731 -0.04076
C 13.51102 23.46528 -0.00652
C 13.50817 22.12346 0.0058
C 12.46084 21.30136 -0.00865
C 12.40948 19.9376 0.00675
C 7.37405 12.76279 -0.00368
C 8.59013 13.38888 -0.0108
C 8.53103 14.77087 -0.01957
C 7.32581 15.47561 0.02058
C 2.40889 8.52445 0.00093
C 2.38327 7.11961 0.00057
C 3.64514 6.41372 -0.01634
C 3.6726 4.9668 -0.00334
C 2.42746 4.25752 0.02339
C 2.42662 2.81387 0.01641
C 3.73059 2.12433 -0.00719
C 3.57811 9.19814 0.01291
C 3.66657 0.67396 0.01364
C 4.92704 32.67094 -0.00033
C 6.18039 32.02286 0.03589
C 6.18083 30.56666 -0.02759
C 4.93313 29.86155 0.0402
C 4.89659 28.40638 0.00572
C 6.07005 27.72531 0.03592
C 6.11681 26.30605 0.00406
C 2.44806 0.02519 -0.01062
C 3.66825 10.55433 0.00438
C 2.46689 11.27973 -0.00191
C 2.42968 12.6797 0.00373
C 3.69734 30.58199 -0.0008
C 2.51339 29.81076 0.0288
C 2.46203 28.44822 0.00393
C 3.70047 27.75263 0.00895
C 3.66883 26.3845 0.00685
C 2.44537 25.65983 0.02888
C 2.43503 24.27766 -0.00482
C 3.68373 23.52264 -0.01384
C 3.70405 22.11703 0.03693
C 2.42452 21.34773 0.01745
C 2.4277 19.93695 0.00488
C 3.72159 19.18475 -0.01004
C 3.70225 17.74168 -0.02896
C 2.44768 17.02861 -0.00131
C 2.49286 15.5192 -0.01118
C 3.70556 14.88536 -0.014
C 3.65851 13.42738 0.02147
C 4.91375 25.60529 0.00943
C 15.94239 31.9841 0.0296
C 4.94913 24.21256 0.02841
C 6.13293 22.0774 -0.01275
C 7.40984 32.67517 0.0076
C 8.58116 31.95033 0.01241
C 8.58947 30.48519 -0.01454
C 7.35679 29.80517 0.01945
C 7.3609 28.41671 0.01416
C 8.59214 27.63093 0.03542
C 8.62616 26.22424 0.02299
C 4.95862 0.00959 0.02162
C 7.34778 25.50402 0.00244
C 8.63031 23.4851 0.05265
C 8.67622 22.07472 -0.01952
C 7.41211 21.35422 -0.02813
C 7.45593 19.86994 0.00374
C 8.65025 19.09238 0.00052
C 8.64416 17.70869 -0.03682
C 7.34793 17.02314 0.01965
C 7.37879 24.13942 -0.01717
C 6.1835 0.75144 -0.0014
C 6.12095 2.20016 0.00415
C 4.927 2.85693 -0.02162
C 4.90045 21.32628 0.00985
C 4.96617 19.94037 -0.02245
C 6.13149 19.22594 -0.00428
C 6.09818 17.77998 0.03101
C 4.91221 16.99675 -0.01536
C 4.94292 15.66865 -0.02689
C 6.11129 14.88699 -0.01046
C 6.1469 13.42804 -0.00891
C 4.86263 12.70552 0.02819
C 4.85198 11.31898 0.00165
C 6.13097 10.67064 -0.02971
C 6.10532 9.23096 0.02894
C 4.84091 8.53466 -0.01789
C 4.89739 7.07429 0.00444
C 6.1477 6.39933 -0.00925
C 6.12672 5.01576 0.01877
C 4.91262 4.31862 0.01363
C 6.18223 23.43119 -0.01111
C 3.68854 31.95079 -0.01362
C 15.94668 30.57725 0.03374
C 14.76018 28.36535 -0.03213
C 31.97108 32.75667 0.00682
C 33.26417 32.00106 -0.01779
C 33.22508 30.62307 0.03794
C 31.97132 29.95643 0.01927
C 31.93676 28.54406 0.01574
C 33.14475 27.74478 -0.02383
C 33.11105 26.31752 -0.01429
C 29.40278 0.08913 0.00026
C 31.87599 25.53618 -0.0136
C 33.22987 23.47929 -0.02474
C 33.19948 22.06321 0.00369
C 31.99979 21.34859 0.00455
C 31.91531 19.92746 -0.00644
C 33.07025 19.26091 -0.01839
C 33.15877 17.79363 0.00137
C 31.85353 17.05384 0.00199
C 32.03269 24.1928 0.00594
C 31.92254 15.69775 0.04381
C 30.6433 0.73059 0.0544
C 29.45402 2.92505 0.01428
C 27.0368 29.63176 -0.01303
C 27.18012 28.26061 -0.01461
C 28.51403 27.52939 -0.02155
C 26.92569 2.69077 -0.00944
C 28.14568 2.3171 -0.03735
C 28.13837 0.7458 -0.00971
C 26.98391 0.04847 0.01518
C 30.64925 2.13842 -0.02142
C 29.48264 32.77312 0.01908
C 30.70161 30.6537 0.0103
C 29.5399 29.9706 0.02108
C 29.54281 28.52016 0.00716
C 30.74858 27.85346 0.00307
C 30.68647 26.36068 0.00346
C 29.29141 25.96373 0.01713
C 30.73396 17.99305 -0.01694
C 30.74029 32.10126 0.07705
C 33.11487 14.87705 0.02806
C 33.23122 13.54127 0.01504
C 33.30507 6.29278 -0.00069
C 34.42364 16.98942 0.00648
C 34.36149 15.63127 0.02114
C 1.19439 14.87522 -0.02957
C 1.20746 13.4535 0.00343
C 34.41579 12.68463 -0.02656
C 0.09609 11.36111 -0.02442
C 1.23328 10.66151 -0.00027
C 1.20353 17.70244 0.01223
C 1.17019 9.22837 -0.00583
C 34.23875 7.22843 -0.02849
C 1.07041 6.42026 0.02931
C 1.14164 5.04414 0.00628
C 34.34558 4.28496 -0.0345
C 34.42625 2.8654 -0.00931
C 1.22146 2.12392 -0.00939
C 1.24075 0.69949 -0.00468
C 34.34078 8.62992 -0.02302
C 1.18742 19.18537 -0.01678
C 34.39514 19.90672 0.01951
C 34.4175 21.30393 -0.02213
C 33.04337 4.96095 0.04926
C 31.85579 4.14309 -0.03838
C 31.9489 2.83572 0.00349
C 33.18403 2.1558 -0.00323
C 33.17844 0.74121 -0.00841
C 31.89473 0.10578 0.0001
C 0.05832 32.68366 -0.02927
C 1.25487 31.95762 -0.01404
C 1.23861 30.51259 0.01027
C 34.38838 29.8072 0.01831
C 34.36319 28.44404 -0.01037
C 1.18283 27.7353 -0.00439
C 1.22877 26.3545 -0.00598
C 34.40268 25.65752 -0.05239
C 34.42311 24.17275 0.03076
C 1.21987 23.50558 0.00723
C 1.15122 22.05444 0.02712
C 28.26906 30.53957 -0.0405
C 28.24245 31.97917 0.01705
C 27.00299 32.68309 0.0101
C 24.56838 34.00053 -0.00669
C 17.21186 32.60901 0.03102
C 18.50855 31.91624 0.02555
C 18.50002 30.498 0.01423
C 17.17867 29.80403 -0.00285
C 17.13887 28.35484 -0.009
C 18.34849 27.65244 -0.01199
C 16.9794 17.02603 -0.00229
C 14.67391 34.05886 0.00135
C 17.2379 15.62987 -0.00938
C 18.37446 13.33516 -0.01154
C 17.0677 12.77275 0.00684
C 17.1655 11.36314 -0.01052
C 18.24097 10.52012 -0.01679
C 18.45023 9.13918 0.00367
C 17.18904 8.50371 0.04306
C 17.13079 7.06516 0.00996
C 18.45897 14.6773 -0.0264
C 15.95495 0.67404 -0.00498
C 15.91578 2.07802 0.02737
C 14.66528 2.82248 0.02117
C 15.98037 27.6975 0.02239
C 15.96567 26.37432 0.01153
C 14.80943 25.60159 0.02734
C 15.92133 17.81481 -0.0055
C 14.69339 17.07832 0.01515
C 14.77376 15.65656 -0.00225
C 15.99156 14.98898 0.00071
C 15.9371 13.54762 -0.01107
C 14.78837 12.83009 -0.01586
C 14.84809 11.42224 -0.01971
C 16.00355 10.67417 -0.02118
C 15.93914 9.26914 0.00733
C 14.71032 8.52043 -0.00178
C 14.73441 7.08998 0.00768
C 15.9755 6.3564 -0.0276
C 16.03569 4.99904 0.03005
C 14.7884 4.25548 -0.04078
C 18.43968 6.4501 0.00195
C 14.71069 29.83885 -0.02845
C 18.44933 4.95508 -0.00802
C 17.12027 2.79369 -0.01654
C 22.0841 28.18633 0.01699
C 23.39585 27.78336 -0.00416
C 22.12031 4.10611 0.01177
C 22.0968 2.63787 0.04266
C 23.31713 2.06467 0.01324
C 23.33887 0.65381 0.0014
C 22.15136 34.01874 0.00924
C 22.12674 29.66745 0.01799
C 24.61801 32.55853 0.02326
C 25.81723 30.43908 0.03265
C 24.61432 29.70218 -0.02049
C 24.67185 28.1376 -0.01854
C 25.93427 27.66274 -0.01415
C 24.40786 2.98468 -0.03039
C 25.63472 2.24993 0.01836
C 25.70404 0.73563 0.03531
C 25.82829 31.92703 0.00261
C 23.36618 30.42748 0.01259
C 23.35584 31.86395 0.01495
C 22.18259 32.6204 0.00235
C 18.40118 2.04281 -0.00037
C 18.43809 0.64607 -0.0032
C 17.1277 34.01356 0.00622
C 19.74374 32.63023 -0.02815
C 20.94084 31.92342 -0.00942
C 20.87958 30.44092 0.00487
C 19.65475 29.65902 0.00826
C 19.60285 28.08427 -0.00294
C 20.86683 27.61176 0.00152
C 19.58451 15.52276 0.01257
C 19.50957 7.36579 0.02316
C 21.01038 4.77873 0.04185
C 19.64286 4.22082 0.00194
C 19.60749 2.78052 -0.00621
C 20.85358 2.03177 0.02611
C 20.86842 0.61081 0.02198
C 19.69665 34.03789 0.01094
C 17.21703 4.23642 -0.00218
C 2.48662 32.61307 -0.00892
