441
Graphene
C 0.05668 0.03743 0.01295
C 13.43571 19.28799 -0.01634
C 13.47948 17.76413 -0.00334
C 12.24314 17.10556 0.02339
C 12.24867 15.71618 0.01641
C 13.47871 14.90872 -0.00719
C 13.46766 13.47386 0.01364
C 12.35124 12.81111 -0.01062
C 12.32356 11.36847 -0.00033
C 13.54949 10.72731 0.03589
C 13.52843 9.21536 -0.02759
C 12.27065 8.49313 0.0402
C 12.35616 7.09924 0.00572
C 13.57795 6.40687 0.03592
C 13.51045 4.99299 0.00406
C 12.34518 4.17173 0.00943
C 12.29913 2.82641 0.02841
C 13.46248 2.03966 -0.01111
C 13.51039 0.63763 -0.01275
C 12.19438 33.95681 0.00985
C 14.7925 32.66743 -0.02245
C 15.94176 31.88512 -0.00428
C 15.96175 30.52995 0.03101
C 14.77217 29.753 -0.01536
C 12.32428 19.98184 0.00057
C 12.27866 21.40431 0.00093
C 13.48404 22.05752 0.01291
C 13.55076 23.4612 0.00438
C 11.09799 14.94984 -0.00095
C 11.10292 13.54564 0.01572
C 9.82923 12.89296 -0.04848
C 9.88498 11.465 -0.00892
C 11.05281 10.62891 -0.01362
C 11.07288 9.24614 -0.0008
C 9.8342 8.54331 0.0288
C 9.81658 7.21408 0.00393
C 11.12413 6.43161 0.00895
C 11.10525 4.98164 0.00685
C 9.81446 4.3045 0.02888
C 14.73656 28.42879 -0.02689
C 9.89467 2.83403 -0.00482
C 11.01706 0.65201 0.03693
C 9.77087 0.00838 0.01745
C 12.19883 32.55622 0.00488
C 13.47689 31.90426 -0.01004
C 13.52031 30.51539 -0.02896
C 12.20819 29.96388 -0.00131
C 12.30228 28.45611 -0.01118
C 13.47016 27.72139 -0.014
C 13.5291 26.34467 0.02147
C 12.29614 25.61878 0.00373
C 12.247 24.14901 -0.00191
C 11.07659 2.06404 -0.01384
C 9.8939 15.63456 0.03007
C 16.02353 27.72833 -0.01046
C 14.80389 25.61248 0.02819
C 17.22351 28.36863 0.02058
C 18.44372 27.69075 -0.01957
C 18.45133 26.23583 -0.0108
C 17.19504 25.5346 -0.00368
C 17.21072 24.12514 -0.02696
C 18.49551 23.39503 -0.00114
C 18.43059 21.99947 0.00228
C 17.16545 21.25819 0.00798
C 17.15119 19.85386 0.00422
C 18.45905 19.14498 0.0351
C 18.38368 17.76922 -0.03113
C 17.14298 17.08628 0.02098
C 17.21084 15.62622 0.01848
C 18.39613 14.96197 -0.00619
C 18.40387 13.55329 -0.02162
C 17.20122 12.79246 0.00889
C 17.21987 11.36877 -0.00481
C 18.46167 10.65482 0.00979
C 18.43308 9.27066 0.01443
C 17.18345 8.52843 0.03505
C 17.2239 7.11429 -0.02815
C 18.38958 6.34969 -0.04147
C 18.40197 4.95083 -0.05302
C 17.21083 29.8833 0.01965
C 18.45834 30.55043 -0.03682
C 18.38779 31.99235 0.00052
C 17.16394 32.63329 0.00374
C 14.80094 24.17801 0.00165
C 15.9965 23.43097 -0.02971
C 16.01771 21.96653 0.02894
C 14.77132 21.29986 -0.01789
C 14.72452 19.87675 0.00444
C 15.9754 19.12759 -0.00925
C 15.89057 17.76174 0.01877
C 14.67676 17.06953 0.01363
C 14.71795 15.60212 -0.02162
C 15.97098 14.90756 0.00415
C 15.96459 13.44605 -0.0014
C 15.99756 26.28983 -0.00891
C 14.73364 12.73302 0.02162
C 15.95556 10.71737 0.01241
C 16.01767 9.25169 -0.01454
C 14.79075 8.48554 0.01945
C 14.82819 7.06677 0.01416
C 16.02117 6.42859 0.03542
C 15.95481 4.94473 0.02299
C 14.6999 4.18987 0.00244
C 14.65887 2.80577 -0.01717
C 15.91259 2.12645 0.05265
C 15.91811 0.73605 -0.01952
C 14.78551 34.07237 -0.02813
C 14.73531 11.34406 0.0076
C 9.87681 17.12791 0.00054
C 11.0531 17.87849 -0.00494
C 11.06106 19.28798 -0.00562
C 3.70424 0.74856 -0.00177
C 2.54017 0.03946 0.04421
C 4.89086 32.67253 0.00088
C 6.10538 31.949 0.00828
C 6.07137 30.56355 -0.02375
C 4.92461 29.74804 0.00558
C 4.98567 28.38834 -0.0059
C 6.15439 27.6788 -0.01386
C 6.16826 26.2968 -0.02805
C 4.95482 25.63611 0.00081
C 4.9077 24.12391 0.00245
C 6.14119 23.48603 0.02728
C 6.17538 22.06699 -0.00039
C 4.98748 21.25155 0.0064
C 4.88115 19.81909 0.00211
C 6.1447 19.1588 -0.00449
C 6.10148 17.73787 -0.01979
C 4.89155 17.10066 0.02784
C 4.83198 15.62244 -0.01977
C 6.12797 14.92361 -0.00561
C 6.13569 13.54334 0.00208
C 4.88669 12.77496 0.01707
C 4.85098 11.47448 0.02769
C 3.72796 2.194 0.03278
C 2.4586 2.88567 0.01138
C 2.51418 4.29267 -0.00407
C 3.70373 5.02334 -0.01299
C 3.72303 30.4637 -0.0213
C 2.49217 29.76178 0.01116
C 2.43198 28.31062 -0.0005
C 3.72703 27.72374 -0.00018
C 3.62433 26.31506 0.01073
C 2.34962 25.56615 0.01984
C 2.45333 24.20108 0.00535
C 3.62877 23.44517 -0.00198
C 3.68769 22.02335 -0.00012
C 2.43552 21.28296 -0.04306
C 2.41311 19.97116 -0.03672
C 6.14928 10.71137 -0.03291
C 3.61333 19.17074 0.01913
C 2.36579 17.03373 0.00787
C 2.33483 15.55845 0.02426
C 3.63953 14.91299 0.01218
C 3.70534 13.47877 -0.01471
C 2.47767 12.79515 -0.02827
C 2.4814 11.3247 0.01078
C 3.66314 10.61432 -0.00112
C 3.64875 9.24447 0.03345
C 2.50509 8.50429 0.00748
C 2.49143 7.09665 0.00662
C 3.69555 6.43026 -0.0154
C 3.58979 17.72007 0.00267
C 6.1622 9.28599 -0.04999
C 4.86688 8.62095 0.04505
C 4.92187 7.17111 0.03284
C 8.59608 10.74928 0.02322
C 8.60163 9.3046 -0.00725
C 7.39173 8.58905 -0.05697
C 7.40021 7.19751 0.01087
C 8.56209 6.45174 -0.01343
C 8.66289 5.05234 0.00988
C 7.37193 4.31164 0.0276
C 7.42359 2.92366 0.01305
C 8.62396 2.20296 -0.00077
C 8.57696 0.76313 0.03368
C 7.35167 0.01073 -0.02929
C 7.34174 11.43065 -0.00094
C 9.73825 32.70597 -0.00966
C 10.95587 30.57268 0.01227
C 9.7541 29.90763 0.00873
C 9.78909 28.44513 -0.00049
C 11.07371 27.78827 0.00848
C 11.13346 26.33948 -0.01303
C 9.8396 25.57405 -0.01378
C 9.8712 24.18127 0.02635
C 11.06626 23.47529 0.0127
C 11.04216 22.08012 0.01396
C 9.79039 21.38949 0.01849
C 9.78301 19.94226 -0.01142
C 10.97835 31.9686 -0.03337
C 17.15938 4.20786 0.00213
C 7.35714 12.86626 -0.02566
C 8.61617 14.88563 0.017
C 6.19139 6.50706 -0.04307
C 6.14951 5.01559 0.03189
C 4.94279 4.33124 0.00031
C 4.97386 2.89482 -0.003
C 6.19714 2.159 0.01402
C 6.09396 0.76664 0.02379
C 4.90323 0.01982 0.00907
C 7.27873 32.72178 0.00643
C 8.44047 31.96585 -0.01509
C 8.53639 30.51481 0.03267
C 7.40092 29.76765 0.02374
C 8.58487 13.5033 -0.03113
C 7.39436 28.38883 0.00402
C 8.63897 26.29089 0.0174
C 7.43455 25.58283 0.03828
C 7.44023 24.14232 0.01226
C 8.58516 23.47904 -0.00279
C 8.59054 22.0389 0.01996
C 7.37772 21.29609 -0.03996
C 7.35209 19.82535 0.01465
C 8.52861 19.13016 -0.00074
C 8.6066 17.81234 -0.00518
C 7.37591 17.05824 0.0086
C 7.38807 15.60014 -0.00643
C 8.60671 27.68602 0.0073
C 3.69125 31.94124 -0.00374
C 17.15215 2.81418 -0.00066
C 18.36937 0.69519 0.00028
C 30.71848 14.81949 -0.0405
C 30.77624 13.37081 -0.01303
C 29.48375 12.77529 -0.01461
C 29.49435 11.358 -0.02155
C 30.69304 10.61321 -0.00944
C 30.70312 9.24558 -0.03735
C 29.40969 8.39412 -0.00971
C 29.60529 6.96253 0.01518
C 30.80324 6.30228 0.01908
C 30.72748 4.92448 0.07705
C 29.36871 4.21626 0.0103
C 29.4392 2.85241 0.02108
C 30.737 2.07972 0.00716
C 30.75306 0.6921 0.00307
C 29.56088 0.00214 0.00346
C 31.95877 32.67258 0.01713
C 33.26179 32.00003 -0.01694
C 33.2732 30.60824 0.01428
C 31.96689 29.86682 -0.02142
C 31.94169 28.47797 0.0544
C 33.15895 27.79945 0.00026
C 33.17107 26.35267 0.00682
C 31.96851 25.59407 -0.01779
C 29.49677 15.61858 0.01705
C 29.4656 17.06157 0.0101
C 30.69422 17.73348 -0.00669
C 30.68886 19.17764 0.03531
C 28.22946 13.44973 0.00194
C 27.03988 12.80885 -0.00621
C 27.00139 11.32926 0.02611
C 28.23333 10.67281 0.02198
C 28.31347 9.23685 0.01094
C 28.1149 4.88212 0.00235
C 26.81029 4.23425 0.01495
C 27.04046 2.87188 0.01259
C 28.25579 2.12759 0.01799
C 28.31507 0.73449 0.01699
C 27.04008 34.03731 -0.00416
C 31.94285 24.16555 0.03794
C 29.49185 32.67942 0.01177
C 30.71738 30.59732 0.01324
C 29.545 29.8468 0.0014
C 29.4794 28.39045 0.00924
C 30.70298 27.71985 0.02326
C 30.7032 26.35965 0.00261
C 29.50827 25.63185 0.03265
C 29.47461 24.13833 -0.02049
C 30.70328 23.49134 -0.01854
C 30.67488 22.02949 -0.01415
C 29.4811 21.35424 -0.03039
C 29.53629 19.92225 0.01836
C 30.77961 31.94302 0.04266
C 28.2897 14.89204 0.04185
C 33.1376 23.37784 0.01927
C 31.94304 21.31214 -0.02383
C 34.34995 24.10318 0.03076
C 1.21904 23.46548 0.00723
C 1.21128 22.01124 0.02712
C 34.41413 21.33503 -0.02213
C 34.35636 19.85081 0.01951
C 1.23846 19.12477 -0.01678
C 1.09423 17.62171 0.01223
C 34.28928 16.94599 0.00648
C 34.38501 15.59217 0.02114
C 1.18187 14.83221 -0.02957
C 1.23711 13.42824 0.00343
C 0.03401 12.68445 -0.02656
C 0.06469 11.27151 -0.02442
C 1.24317 10.60548 -0.00027
C 1.26623 9.15665 -0.00583
C 0.06506 8.41531 -0.02302
C 0.09253 7.03489 -0.02849
C 1.27877 6.37821 0.02931
C 1.24319 4.95438 0.00628
C 0.04235 4.176 -0.0345
C 0.06257 2.79917 -0.00931
C 1.27519 2.15786 -0.00939
C 1.33539 0.70119 -0.00468
C 34.39741 25.57137 -0.05239
C 1.15814 26.26757 -0.00598
C 1.15776 27.66344 -0.00439
C 0.0151 28.4661 -0.01037
C 31.89272 19.86556 -0.01429
C 33.1189 19.10106 -0.0136
C 33.11714 17.65646 0.00594
C 31.89528 17.01136 -0.02474
C 31.87171 15.51391 0.00369
C 33.14495 14.83078 0.00455
C 33.20309 13.4305 -0.00644
C 31.93164 12.70505 -0.01839
C 31.93986 11.27255 0.00137
C 33.24224 10.56879 0.00199
C 33.26022 9.19985 0.04381
C 33.17204 22.00049 0.01574
C 32.06333 8.42426 0.02806
C 33.25007 6.33356 -0.00069
C 33.14436 4.8874 0.04926
C 31.97496 4.146 -0.03838
C 32.00196 2.7572 0.00349
C 33.24395 2.10053 -0.00323
C 33.22791 0.73192 -0.00841
C 31.98807 0.04038 0.0001
C 0.06879 32.72687 -0.02927
C 1.27134 31.99103 -0.01404
C 1.27048 30.53636 0.01027
C 0.01331 29.86358 0.01831
C 32.04084 7.00846 0.01504
C 27.06537 15.65996 0.02316
C 26.99149 17.15521 0.01257
C 28.25925 17.7333 0.00152
C 19.60277 4.18887 -0.00703
C 19.57763 2.79427 -0.04076
C 20.85835 2.20133 -0.00652
C 20.90019 0.72332 0.0058
C 19.63884 34.05651 -0.00865
C 22.08905 32.71129 0.00675
C 23.29215 32.01669 -0.00311
C 23.35575 30.58804 0.00742
C 22.12528 29.893 -0.01594
C 22.15166 28.38459 0.0106
C 23.32626 27.66456 -0.01154
C 23.35333 26.23689 -0.01721
C 22.19383 25.53977 -0.02422
C 22.1595 24.10707 0.01277
C 23.38869 23.48506 0.00096
C 23.3126 22.05759 -0.01527
C 22.18105 21.34577 0.01087
C 22.10592 19.97409 0.00199
C 23.22258 19.20149 0.01511
C 23.32641 17.7785 -0.00478
C 22.06422 17.04373 -0.01662
C 22.07483 15.59353 -0.01185
C 23.3285 14.92006 0.01126
C 20.94351 4.95319 0.00654
C 20.93564 6.3702 -0.04422
C 19.59365 7.02991 -0.02957
C 19.62531 8.45521 -0.00831
C 17.12158 0.00384 -0.02213
C 19.68872 32.67151 0.03698
C 20.85074 31.95222 -0.00109
C 20.8656 30.59378 -0.00491
C 19.67741 29.75916 0.03338
C 19.73491 28.40708 -0.0258
C 20.9483 27.6533 -0.0331
C 20.98365 26.30217 -0.00316
C 19.71579 25.55992 0.02188
C 19.65399 24.06787 -0.01979
C 20.90353 23.41523 0.02691
C 23.28624 13.52014 0.01852
C 20.9202 22.03854 -0.01581
C 19.62465 19.87675 0.04892
C 20.89327 19.26235 -0.00111
C 20.79391 17.79393 -0.03557
C 19.57252 17.08867 0.03754
C 19.57968 15.63104 0.01739
C 20.83602 14.89779 0.00755
C 20.87972 13.49667 -0.0054
C 19.60443 12.82492 0.00667
C 19.67234 11.41325 0.00143
C 20.8591 10.63004 -0.017
C 20.88676 9.23044 0.00364
C 19.65013 21.32532 0.01452
C 22.1011 12.73574 -0.00381
C 22.08167 11.28628 0.03046
C 23.3646 10.65952 0.0296
C 25.79668 13.51464 -0.009
C 24.54557 12.76952 -0.01199
C 24.56506 11.39907 -0.00229
C 25.76716 10.60663 -0.00938
C 25.83798 9.1389 -0.0264
C 24.80433 4.21456 -0.01154
C 24.64521 2.86951 0.00684
C 25.84054 2.12558 -0.01052
C 25.8049 0.70211 -0.01679
C 24.61781 0.00052 0.00367
C 27.05202 32.63468 0.04306
C 25.82286 14.94877 -0.00285
C 28.27068 31.95649 0.00996
C 27.05512 29.77193 -0.00802
C 27.08114 28.38912 -0.00218
C 28.20812 27.6284 -0.01654
C 28.24352 26.22056 -0.00037
C 27.03498 25.55714 -0.0032
C 26.98531 24.16297 0.00622
C 28.22894 23.44578 -0.02815
C 28.21671 22.06286 -0.00942
C 27.09501 21.28648 0.00487
C 27.06509 19.8223 0.00826
C 28.31397 19.12883 -0.00294
C 28.25679 30.49529 0.00195
C 18.34401 2.14577 -0.00289
C 24.47446 15.70073 0.01423
C 25.75308 17.71801 0.03102
C 23.41026 9.21256 0.03374
C 22.16277 8.4559 -0.02845
C 22.09703 7.08494 -0.03213
C 23.24446 6.36104 0.02239
C 23.58229 4.98913 0.01153
C 22.27209 4.26763 0.02734
C 22.13916 2.88218 -0.0055
C 23.37737 2.15572 0.01515
C 23.3987 0.73056 -0.00225
C 22.12315 0.05011 0.00071
C 24.62488 32.6771 -0.01107
C 24.50672 17.04174 0.02555
C 25.81786 31.93505 -0.01586
C 24.59424 29.86978 -0.02118
C 24.55437 28.47345 0.00733
C 25.78714 27.73408 -0.00178
C 25.7282 26.29337 0.00768
C 24.61944 25.57028 -0.0276
C 24.68823 24.1449 0.03005
C 25.81273 23.38069 -0.04078
C 25.8352 22.01607 0.02117
C 24.61454 21.23893 0.02737
C 24.57582 19.82048 -0.00498
C 25.75945 19.15543 0.00135
C 25.77865 30.50152 -0.01971
C 2.47545 32.63196 -0.00141
