409
Graphene
C 34.36178 34.04704 0.01295
C 13.4949 0.77693 -0.01536
C 12.27733 0.06255 -0.02689
C 14.84583 32.80791 -0.01046
C 16.06736 32.09105 -0.00891
C 15.89431 30.68916 0.02819
C 15.82365 21.91682 0.00165
C 14.85572 19.95499 -0.02971
C 15.97022 19.15866 0.02894
C 15.96653 17.68762 -0.01789
C 14.75162 17.07806 0.00444
C 14.65831 15.66713 -0.00925
C 15.93215 14.90649 0.01877
C 15.94088 13.38724 0.01363
C 14.71136 12.78405 -0.02162
C 14.7578 11.29858 0.00415
C 16.04364 10.69926 -0.0014
C 15.97627 9.26709 0.02162
C 14.75094 8.56481 0.0076
C 14.73073 7.14205 0.01241
C 15.93858 6.4277 -0.01454
C 16.04421 5.01662 0.01945
C 13.58202 2.20209 0.03101
C 12.25717 2.87396 -0.00428
C 12.30502 4.32801 -0.02245
C 13.50658 5.0236 0.00985
C 11.03245 5.05162 0.00438
C 9.90903 4.34391 0.01291
C 9.84102 2.8837 0.00093
C 11.05898 2.11787 0.00057
C 11.0934 0.73368 -0.01634
C 9.82787 0.19325 -0.00334
C 12.2981 32.64686 0.02339
C 13.67294 31.9931 0.01641
C 12.24342 20.02446 -0.00719
C 13.59313 19.2796 0.01364
C 14.86077 4.32864 0.01416
C 13.57469 17.86916 -0.01062
C 12.24923 15.65704 0.03589
C 13.44756 14.95156 -0.02759
C 13.45506 13.43551 0.0402
C 12.23334 12.85672 0.00572
C 12.25174 11.38853 0.03592
C 13.44347 10.67335 0.00406
C 13.47877 9.26421 0.00943
C 12.28414 8.48603 0.02841
C 12.30048 7.11376 -0.01111
C 13.5964 6.39056 -0.01275
C 12.34036 17.20796 -0.00033
C 11.06057 6.4055 -0.00191
C 14.84013 2.92035 0.03542
C 16.02012 0.81183 0.00244
C 18.44325 4.9193 0.01443
C 17.23448 4.26389 0.03505
C 17.26758 2.8125 -0.02815
C 18.4947 2.11709 -0.04147
C 18.54053 0.6822 -0.05302
C 17.28037 0.082 0.00213
C 19.66259 32.61255 -0.00066
C 20.89351 31.88801 -0.00289
C 20.85588 30.47482 0.00028
C 19.52574 29.81117 -0.02213
C 19.45137 28.33222 0.03698
C 20.77096 27.69512 -0.00109
C 20.79524 26.2627 -0.00491
C 19.52306 25.48167 0.03338
C 19.56576 24.04503 -0.0258
C 20.81631 23.42261 -0.0331
C 20.78204 21.96077 -0.00316
C 19.54257 21.26964 0.02188
C 19.60565 19.89245 -0.01979
C 20.80562 19.17566 0.02691
C 20.85739 17.7666 -0.01581
C 18.45668 6.40144 0.00979
C 17.17881 7.10021 -0.00481
C 17.20595 8.51679 0.00889
C 18.42767 9.1981 -0.02162
C 14.74973 0.17829 -0.01717
C 17.34042 32.68433 0.05265
C 18.49607 31.89783 -0.01952
C 18.35539 30.5351 -0.02813
C 17.04314 29.79919 0.00374
C 17.12786 28.4111 0.00052
C 18.19845 27.52876 -0.03682
C 18.18179 25.96812 0.01965
C 17.09413 24.23949 0.02058
C 18.31319 23.39333 -0.01957
C 16.0055 2.20824 0.02299
C 18.33141 21.94881 -0.0108
C 17.19192 19.84493 -0.02696
C 18.46789 19.11954 -0.00114
C 18.45971 17.70129 0.00228
C 17.23811 17.03146 0.00798
C 17.28914 15.55705 0.00422
C 18.45251 14.82268 0.0351
C 18.46754 13.37987 -0.03113
C 17.20239 12.78691 0.02098
C 17.29896 11.4265 0.01848
C 18.4605 10.61054 -0.00619
C 17.06655 21.3293 -0.00368
C 9.80292 7.17436 0.00373
C 9.78215 8.63863 0.02147
C 11.05543 9.30066 -0.014
C 2.4594 2.81992 -0.003
C 3.68834 2.15093 0.01402
C 3.66141 0.69428 0.02379
C 2.36838 0.03265 0.00907
C 4.79616 32.71121 0.00643
C 6.09114 32.02455 -0.01509
C 5.99201 30.64526 0.03267
C 4.73327 29.88977 0.02374
C 4.74422 28.52496 0.00402
C 5.97227 27.83069 0.0073
C 5.99963 26.50704 0.0174
C 4.94432 25.6403 0.03828
C 4.92297 24.15668 0.01226
C 6.2199 23.53645 -0.00279
C 6.31239 22.166 0.01996
C 5.09456 21.40204 -0.03996
C 4.91765 19.97206 0.01465
C 6.07621 19.17633 -0.00074
C 6.06517 17.74114 -0.00518
C 4.8141 17.13664 0.0086
C 4.81243 15.68603 -0.00643
C 2.44041 4.24161 0.00031
C 3.6028 5.01562 0.03189
C 3.64698 6.39994 -0.04307
C 2.42346 7.12179 0.03284
C 3.57056 30.61352 -0.02375
C 2.43817 29.77162 0.00558
C 2.41138 28.34539 -0.0059
C 3.59607 27.62731 -0.01386
C 3.69487 26.23475 -0.02805
C 2.41783 25.54855 0.00081
C 2.51603 24.19487 0.00245
C 3.69029 23.48266 0.02728
C 3.69718 22.0789 -0.00039
C 2.44386 21.28411 0.0064
C 6.07092 14.93384 0.017
C 2.42878 19.87827 0.00211
C 3.58539 17.87138 -0.01979
C 2.38489 17.09294 0.02784
C 2.47717 15.64876 -0.01977
C 3.62473 14.89667 -0.00561
C 3.64328 13.43633 0.00208
C 2.31812 12.76813 0.01707
C 2.31179 11.31169 0.02769
C 3.5542 10.67829 -0.03291
C 3.65289 9.2431 -0.04999
C 2.43698 8.52977 0.04505
C 3.67922 19.2697 -0.00449
C 6.13858 13.55477 -0.03113
C 4.91718 12.7898 -0.02566
C 4.81803 11.43589 -0.00094
C 8.48704 9.24048 0.00054
C 7.31255 8.51628 0.03007
C 7.33944 7.15388 -0.00095
C 8.57744 6.48791 0.01572
C 8.61573 5.08824 -0.04848
C 7.29167 4.29057 -0.00892
C 7.32312 2.8936 -0.01362
C 8.54429 2.21741 -0.0008
C 8.56752 0.84566 0.0288
C 7.3226 0.04124 0.00393
C 8.56476 10.69415 -0.00494
C 9.77241 32.84962 0.00895
C 9.61234 20.11148 0.02888
C 10.98296 19.46484 -0.00482
C 10.98166 17.97702 -0.01384
C 9.80782 17.13995 0.03693
C 9.83091 15.69503 0.01745
C 11.00265 14.93456 0.00488
C 11.00087 13.5295 -0.01004
C 9.81877 12.80848 -0.02896
C 9.85475 11.35668 -0.00131
C 11.03771 10.73086 -0.01118
C 11.00159 32.1236 0.00685
C 19.65532 16.9857 0.01452
C 7.29215 11.40873 -0.00562
C 8.61178 13.59098 0.01849
C 5.99581 10.65253 0.02322
C 6.12216 9.23306 -0.00725
C 4.90809 8.4944 -0.05697
C 4.88337 7.08465 0.01087
C 6.13628 6.40852 -0.01343
C 6.0817 4.95576 0.00988
C 4.84647 4.25843 0.0276
C 4.8558 2.85586 0.01305
C 6.10046 2.14899 -0.00077
C 6.10752 0.71835 0.03368
C 7.35078 12.86056 -0.01142
C 4.84739 0.06936 -0.02929
C 8.54736 32.06779 -0.03337
C 8.32453 30.72272 0.01227
C 7.2188 30.0864 0.00873
C 7.50372 21.25556 -0.00049
C 7.29937 19.90561 0.00848
C 8.56175 19.19679 -0.01303
C 8.60136 17.72852 -0.01378
C 7.37435 17.10555 0.02635
C 7.36084 15.6256 0.0127
C 8.63804 15.02563 0.01396
C 7.24299 32.70804 -0.00966
C 3.54974 31.99504 0.00828
C 19.68765 15.54752 0.04892
C 20.97041 13.48116 -0.03557
C 29.95241 11.24717 -0.00971
C 29.31333 7.31824 0.01518
C 30.51285 6.49942 0.01908
C 30.62515 5.04913 0.07705
C 29.52686 4.25435 0.0103
C 29.53167 2.79676 0.02108
C 30.75248 2.13581 0.00716
C 30.75684 0.71223 0.00307
C 29.53746 34.04563 0.00346
C 31.96213 32.70838 0.01713
C 33.08811 31.93148 -0.01694
C 33.08769 30.53693 0.01428
C 31.90212 29.7646 -0.02142
C 31.90912 28.37608 0.0544
C 33.19339 27.68286 0.00026
C 33.20194 26.3195 0.00682
C 31.95097 25.62958 -0.01779
C 31.94533 24.08889 0.03794
C 33.19446 23.40809 0.01927
C 33.17286 21.93249 0.01574
C 31.89882 21.30401 -0.02383
C 29.62795 12.59355 -0.03735
C 30.67822 13.5635 -0.00944
C 30.68117 14.88598 -0.02155
C 29.46775 15.55608 -0.01461
C 28.26994 4.96467 0.01799
C 27.08659 4.20383 0.01699
C 27.07371 2.84192 -0.00416
C 28.32197 2.14138 0.01177
C 28.33501 0.75983 0.04266
C 27.1477 34.05584 0.01324
C 29.55765 32.63085 0.0014
C 30.73438 31.89619 0.00924
C 30.7291 30.52086 0.02326
C 29.47048 29.80766 0.00261
C 31.89941 19.88168 -0.01429
C 29.5123 28.40723 0.03265
C 30.65716 26.25192 -0.01854
C 29.45487 25.58724 -0.01415
C 29.44973 24.18288 -0.03039
C 30.70071 23.40456 0.01836
C 30.70957 21.96879 0.03531
C 29.45478 21.2947 -0.00669
C 29.44446 19.86104 0.0101
C 30.67137 19.24665 0.01705
C 30.68283 17.77461 -0.0405
C 29.52914 17.02212 -0.01303
C 30.66691 27.67375 -0.02049
C 28.25467 6.35464 0.01259
C 33.14679 19.18602 -0.0136
C 31.89329 16.97791 -0.02474
C 1.20209 21.96353 0.02712
C 34.39867 21.27262 -0.02213
C 34.38563 19.87398 0.01951
C 1.15251 19.23733 -0.01678
C 1.0781 17.80974 0.01223
C 34.33831 17.01767 0.00648
C 0.03343 15.61831 0.02114
C 1.20804 14.94563 -0.02957
C 1.08606 13.51768 0.00343
C 34.32072 12.79841 -0.02656
C 34.1782 11.3165 -0.02442
C 1.01369 10.61919 -0.00027
C 1.12149 9.27488 -0.00583
C 34.36226 8.47351 -0.02302
C 34.33029 7.04958 -0.02849
C 1.22387 6.38305 0.02931
C 1.19435 4.93184 0.00628
C 34.36944 4.27735 -0.0345
C 34.39576 2.86069 -0.00931
C 1.18256 2.1717 -0.00939
C 1.13947 0.76466 -0.00468
C 1.29363 23.45905 0.00723
C 0.04299 24.07832 0.03076
C 0.00923 25.51839 -0.05239
C 1.18682 26.18416 -0.00598
C 31.92114 15.63592 0.00369
C 33.22391 14.93726 0.00455
C 33.14149 13.49391 -0.00644
C 31.8486 12.73339 -0.01839
C 31.58617 11.37433 0.00137
C 32.93563 10.71708 0.00199
C 33.11221 9.24857 0.04381
C 31.96427 8.41898 0.02806
C 31.84704 7.09331 0.01504
C 33.06606 6.40295 -0.00069
C 33.15133 17.68189 0.00594
C 33.18651 5.02172 0.04926
C 31.96346 2.85716 0.00349
C 33.20923 2.18126 -0.00323
C 33.18259 0.77908 -0.00841
C 31.94047 0.01716 0.0001
C 34.35432 32.60287 -0.02927
C 1.15048 31.863 -0.01404
C 1.23113 30.50591 0.01027
C 34.42796 29.83272 0.01831
C 34.34727 28.42782 -0.01037
C 1.1638 27.6849 -0.00439
C 31.92021 4.3799 -0.03838
C 26.93026 6.9858 0.01495
C 27.10071 8.38046 0.00235
C 28.54335 8.66726 0.01094
C 23.33147 19.20454 0.00096
C 23.37332 17.70939 -0.01527
C 22.09206 17.07873 0.01087
C 22.21623 15.63397 0.00199
C 23.43802 14.92755 0.01511
C 23.36645 13.46806 -0.00478
C 22.16584 12.77014 -0.01662
C 22.16825 11.39907 -0.01185
C 23.31726 10.68421 0.01126
C 23.36689 9.23198 0.01852
C 22.05684 8.50171 -0.00381
C 22.10975 7.10327 0.03046
C 23.32816 6.34333 0.0296
C 23.32191 4.97203 0.03374
C 22.12979 4.22206 -0.02845
C 22.17393 2.84 -0.03213
C 23.41351 2.05497 0.02239
C 23.42583 0.67593 0.01153
C 22.22874 0.02373 0.02734
C 24.65021 32.59695 -0.0055
C 25.8784 31.94691 0.01515
C 22.0768 19.87838 0.01277
C 22.07107 21.29918 -0.02422
C 23.33336 22.00528 -0.01721
C 23.23235 23.45179 -0.01154
C 19.67776 12.6852 0.03754
C 19.72828 11.28602 0.01739
C 20.97189 10.67421 0.00755
C 20.79056 9.27808 -0.0054
C 19.61558 8.52041 0.00667
C 19.70237 7.13335 0.00143
C 20.91631 6.39528 -0.017
C 20.90009 4.93806 0.00364
C 19.69047 4.21565 -0.00831
C 19.71131 2.82032 -0.02957
C 25.86938 30.56374 -0.00225
C 20.9375 2.15795 -0.04422
C 19.75961 0.01663 -0.00703
C 22.16486 32.63849 -0.04076
C 23.33623 31.83516 -0.00652
C 23.32747 30.46055 0.0058
C 22.10577 29.79571 -0.00865
C 22.01512 28.37766 0.00675
C 23.34162 27.7145 -0.00311
C 23.29081 26.30531 0.00742
C 22.03302 25.59802 -0.01594
C 22.03947 24.1722 0.0106
C 20.9352 0.70536 0.00654
C 24.60971 29.74118 0.00071
C 24.61291 28.38011 -0.01107
C 25.85428 27.7048 -0.01586
C 27.07587 32.66752 0.04306
C 28.28166 31.88512 0.00996
C 28.27175 30.53354 0.00195
C 27.07519 29.82909 -0.00802
C 27.00292 28.38907 -0.00218
C 28.23509 27.7387 -0.01654
C 28.2822 26.34223 -0.00037
C 27.00558 25.60998 -0.0032
C 26.94625 24.22465 0.00622
C 28.17408 23.51582 -0.02815
C 24.63646 33.95741 0.00367
C 28.23663 22.00977 -0.00942
C 26.98855 19.92299 0.00826
C 28.20661 19.14146 -0.00294
C 28.27506 17.73339 0.00152
C 27.05032 16.95662 0.01257
C 27.03047 15.54726 0.02316
C 28.22929 14.8421 0.04185
C 28.31788 13.33216 0.00194
C 27.20329 12.5489 -0.00621
C 27.29144 11.17012 0.02611
C 28.71011 10.39818 0.02198
C 26.9987 21.29633 0.00487
C 20.9595 14.8945 -0.00111
C 25.85 0.64538 -0.01679
C 24.61977 2.79605 0.00684
C 25.81818 26.20356 -0.01971
C 24.5742 25.51727 -0.02118
C 24.52639 24.08599 0.00733
C 25.69119 23.46881 -0.00178
C 25.84774 22.03921 0.00768
C 24.55442 21.31388 -0.0276
C 24.51262 19.91226 0.03005
C 25.80686 19.24678 -0.04078
C 25.86671 17.71995 0.02117
C 24.59697 17.01271 0.02737
C 25.86144 2.11759 -0.01052
C 24.58931 15.53861 -0.00498
C 25.94024 13.31221 0.03102
C 24.65518 12.77542 0.02555
C 24.72874 11.24806 0.01423
C 26.0077 10.49024 -0.00285
C 25.8573 9.12689 -0.009
C 24.56089 8.48452 -0.01199
C 24.53477 7.03975 -0.00229
C 25.72237 6.23516 -0.00938
C 25.83638 4.85909 -0.0264
C 24.51755 4.18665 -0.01154
C 25.83353 14.76796 0.00135
C 2.35537 32.71539 0.00088
