400
Graphene
C 0.00397 0.01185 0.01295
C 13.41666 9.34539 0.00165
C 12.21583 8.53402 -0.02971
C 12.22017 7.1015 0.02894
C 13.43676 6.41161 -0.01789
C 13.50791 4.94263 0.00444
C 12.29113 4.23139 -0.00925
C 12.24802 2.76873 0.01877
C 13.50374 2.11477 0.01363
C 13.49819 0.61809 -0.02162
C 12.20841 34.02602 0.00415
C 14.78902 32.5944 -0.0014
C 16.04379 31.9672 0.02162
C 16.07729 30.56385 0.0076
C 14.82574 29.81866 0.01241
C 14.78152 28.34846 -0.01454
C 15.94944 27.64956 0.01945
C 16.0227 26.2622 0.01416
C 14.73315 25.59698 0.03542
C 14.84704 24.10734 0.02299
C 15.99524 23.36488 0.00244
C 15.98233 21.94428 -0.01717
C 13.42899 10.78341 0.02819
C 14.78727 21.22444 0.05265
C 12.25856 11.46076 -0.00891
C 13.55215 13.52565 -0.02689
C 11.02689 2.14302 0.02339
C 10.96707 0.68904 0.01641
C 9.77352 34.05471 -0.00719
C 12.27297 32.61438 0.01364
C 13.54282 31.94458 -0.01062
C 13.56705 30.54132 -0.00033
C 12.32915 29.88074 0.03589
C 12.33098 28.4496 -0.02759
C 13.53147 27.6713 0.0402
C 13.45276 26.25857 0.00572
C 12.14427 25.47753 0.03592
C 12.44129 24.16614 0.00406
C 13.5713 23.31502 0.00943
C 13.47736 21.88874 0.02841
C 12.22379 21.35516 -0.01111
C 12.0205 20.01477 -0.01275
C 13.57652 19.18739 0.00985
C 13.5722 17.76462 -0.02245
C 12.3446 17.06237 -0.00428
C 12.3082 15.66365 0.03101
C 13.52559 14.91887 -0.01536
C 12.28924 12.91127 -0.01046
C 9.7587 2.77426 -0.00334
C 14.76616 19.79663 -0.01952
C 16.0494 17.67345 0.00374
C 17.28865 24.10861 -0.05302
C 18.50902 23.4122 0.00213
C 18.4441 22.03707 -0.00066
C 17.22717 21.33505 -0.00289
C 17.15586 19.94153 0.00028
C 17.35412 12.71636 -0.02213
C 17.15282 11.34812 0.03698
C 18.3572 10.62597 -0.00109
C 18.4027 9.26079 -0.00491
C 17.17223 8.51557 0.03338
C 17.17726 7.0794 -0.0258
C 18.40999 6.40113 -0.0331
C 18.44762 4.99364 -0.00316
C 17.22255 4.22748 0.02188
C 17.18494 2.81833 -0.01979
C 18.3867 2.14197 0.02691
C 18.38017 0.76035 -0.01581
C 17.20059 0.01279 0.01452
C 19.68077 32.73406 0.04892
C 20.91517 31.99356 -0.00111
C 20.91591 30.54872 -0.03557
C 17.26984 25.51973 -0.04147
C 16.17249 19.02606 -0.02813
C 18.46122 26.27237 -0.02815
C 17.24129 28.38318 0.01443
C 14.80313 17.07386 0.00052
C 14.77739 15.64516 -0.03682
C 15.93762 14.90446 0.01965
C 16.2738 13.54853 0.02058
C 14.81563 12.83298 -0.01957
C 14.73816 11.40762 -0.0108
C 15.96765 10.67884 -0.00368
C 15.96811 9.23503 -0.02696
C 14.71683 8.56228 -0.00114
C 14.72071 7.10836 0.00228
C 15.98535 6.29051 0.00798
C 15.95122 4.90559 0.00422
C 14.73292 4.20084 0.0351
C 14.67154 2.81932 -0.03113
C 15.84468 2.11895 0.02098
C 15.97231 0.65972 0.01848
C 14.7364 34.0068 -0.00619
C 17.25112 32.69099 -0.02162
C 18.51491 31.98893 0.00889
C 18.50596 30.56202 -0.00481
C 17.26528 29.77088 0.00979
C 18.48256 27.67796 0.03505
C 19.76618 29.8471 0.03754
C 9.86923 4.2565 -0.01634
C 11.05311 6.42616 0.00093
C 2.41187 0.02397 0.00402
C 4.83341 32.69159 0.0073
C 6.08711 32.00222 0.0174
C 6.11035 30.54738 0.03828
C 4.93877 29.83817 0.01226
C 4.79302 28.50437 -0.00279
C 6.02538 27.68435 0.01996
C 4.7897 20.01519 -0.03996
C 6.1093 19.3268 0.01465
C 6.1009 17.8498 -0.00074
C 4.84743 17.11808 -0.00518
C 4.85538 15.68997 0.0086
C 6.04264 14.90219 -0.00643
C 5.95992 13.42817 0.017
C 4.62003 12.57756 -0.03113
C 4.71052 11.06162 -0.02566
C 6.12852 10.62533 -0.00094
C 6.17857 9.17942 0.02322
C 4.90472 8.57979 -0.00725
C 4.89875 7.17644 -0.05697
C 6.10076 6.43304 0.01087
C 3.61214 0.73403 0.02374
C 6.17794 4.98948 -0.01343
C 3.68221 2.13565 0.03267
C 2.43159 4.29662 0.00643
C 3.64915 30.54098 0.0064
C 2.42865 29.86274 0.00211
C 2.35738 28.39369 -0.00449
C 3.63583 27.76758 -0.01979
C 3.61124 26.37294 0.02784
C 2.59425 25.46092 -0.01977
C 2.48887 24.11471 -0.00561
C 3.88644 21.8115 0.00208
C 2.51962 21.24087 0.01707
C 2.42277 19.86112 0.02769
C 3.64454 19.17703 -0.03291
C 3.63738 17.84367 -0.04999
C 2.43203 17.11835 0.04505
C 2.42897 15.66609 0.03284
C 3.61659 14.91706 -0.04307
C 3.43616 13.45879 0.03189
C 3.73491 9.60289 0.00031
C 2.39992 8.86074 -0.003
C 2.42377 7.31668 0.01402
C 3.68828 6.49584 0.02379
C 3.69372 5.02243 0.00907
C 2.42711 2.87847 -0.01509
C 11.06427 4.99601 0.00057
C 4.92556 4.31742 0.00988
C 6.15155 2.13746 0.01305
C 8.51439 0.75517 -0.0008
C 7.34922 0.04316 0.0288
C 9.75304 32.6677 0.00393
C 11.00188 31.98291 0.00895
C 11.06243 30.56137 0.00685
C 9.83625 29.88976 0.02888
C 9.84143 28.50062 -0.00482
C 11.05677 27.76899 -0.01384
C 11.06513 26.35579 0.03693
C 10.83511 19.12538 0.01745
C 11.09584 17.73876 0.00488
C 9.84276 17.07854 -0.01004
C 9.78313 15.74985 -0.02896
C 11.0848 15.0249 -0.00131
C 11.05117 13.6091 -0.01118
C 9.71272 12.96071 -0.014
C 9.75447 11.56224 0.02147
C 10.96345 10.76322 0.00373
C 11.01247 9.31255 -0.00191
C 9.83954 8.56295 0.00438
C 9.77872 7.16861 0.01291
C 8.49298 2.13327 -0.01362
C 4.95717 2.88426 0.0276
C 7.36542 2.87158 -0.00892
C 8.59006 5.02751 0.01572
C 6.04827 0.71325 -0.00077
C 4.81018 0.01204 0.03368
C 7.31118 32.71752 -0.02929
C 8.51156 32.04188 -0.00966
C 8.55215 30.58939 -0.03337
C 7.35269 29.86591 0.01227
C 7.34678 28.30856 0.00873
C 8.63845 27.84228 -0.00049
C 9.06847 19.22564 0.00848
C 8.66457 17.89596 -0.01303
C 7.36537 17.21223 -0.01378
C 7.30269 15.71206 0.02635
C 8.51391 15.0139 0.0127
C 8.45465 13.59319 0.01396
C 7.28518 12.80088 0.01849
C 7.36216 11.41427 -0.01142
C 8.55108 10.7958 -0.00562
C 8.62056 9.34082 -0.00494
C 7.36322 8.55898 0.00054
C 7.34705 7.11829 0.03007
C 8.61615 6.42062 -0.00095
C 7.33897 4.32831 -0.04848
C 19.77153 28.43968 0.01739
C 20.95315 27.74168 0.00755
C 20.92085 26.3518 -0.0054
C 29.44393 8.49874 0.01518
C 29.4347 7.09499 0.01908
C 30.66387 6.32824 0.07705
C 30.66343 4.91873 0.0103
C 29.54622 4.26963 0.02108
C 29.48662 2.84237 0.00716
C 30.77972 2.13087 0.00307
C 30.8075 0.70448 0.00346
C 29.59166 34.06883 0.01713
C 32.0594 32.647 -0.01694
C 33.26419 31.95873 0.01428
C 33.2388 30.50176 -0.02142
C 32.00144 29.76051 0.0544
C 31.96017 28.37594 0.00026
C 33.16842 27.64942 0.00682
C 33.18258 26.23545 -0.01779
C 31.95694 25.5702 0.03794
C 31.93788 24.11 0.01927
C 33.22717 23.40918 0.01574
C 33.16512 22.05567 -0.02383
C 31.92582 21.33763 -0.01429
C 30.68047 9.21296 -0.00971
C 31.92667 19.9107 -0.0136
C 30.73825 10.67472 -0.03735
C 29.49043 12.80832 -0.02155
C 28.3802 0.72437 -0.00416
C 27.09714 34.02846 0.01177
C 29.59101 32.62249 0.04266
C 30.77236 31.96346 0.01324
C 30.75377 30.49462 0.0014
C 29.50852 29.79613 0.00924
C 29.5272 28.39121 0.02326
C 30.68167 27.67706 0.00261
C 30.70889 26.28775 0.03265
C 29.44316 25.54344 -0.02049
C 29.42863 24.19385 -0.01854
C 30.65122 23.43433 -0.01415
C 30.68978 22.05798 -0.03039
C 29.46332 21.30242 0.01836
C 29.41774 19.93481 0.03531
C 30.66098 19.18885 -0.00669
C 30.64815 17.82001 0.0101
C 29.43304 17.02949 0.01705
C 29.43274 15.61871 -0.0405
C 30.65263 14.94433 -0.01303
C 30.7548 13.47098 -0.01461
C 29.53103 11.289 -0.00944
C 28.30741 2.12695 0.01699
C 33.14798 19.11551 0.00594
C 31.89693 17.05324 0.00369
C 1.25137 23.42715 0.02712
C 1.28376 22.01773 -0.02213
C 0.01669 21.32326 0.01951
C 0.0106 19.85827 -0.01678
C 1.20931 19.1339 0.01223
C 1.16977 17.71983 0.00648
C 34.35229 17.0605 0.02114
C 34.40447 15.64495 -0.02957
C 1.22678 14.94918 0.00343
C 1.37867 13.41128 -0.02656
C 0.24194 12.5598 -0.02442
C 0.14944 11.0894 -0.00027
C 1.02899 9.47189 -0.00583
C 34.33569 8.48324 -0.02302
C 34.38066 7.09175 -0.02849
C 1.22817 6.49786 0.02931
C 1.23267 5.10659 0.00628
C 34.42655 4.30999 -0.0345
C 0.01615 2.90575 -0.00931
C 1.21901 2.229 -0.00939
C 1.22043 0.75915 -0.00468
C 0.00224 24.08857 0.00723
C 33.1311 17.71578 -0.02474
C 34.4031 25.46393 0.03076
C 1.22552 27.5911 -0.00598
C 31.89605 15.64316 0.00455
C 33.19849 14.83489 -0.00644
C 33.32394 13.32074 -0.01839
C 32.01662 12.70581 0.00137
C 31.91387 11.31975 0.00199
C 33.13286 10.65282 0.04381
C 33.12255 9.1562 0.02806
C 31.88591 8.50172 0.01504
C 31.88381 7.07286 -0.00069
C 33.12678 6.37081 0.04926
C 33.15502 4.99658 -0.03838
C 31.93964 4.26652 0.00349
C 31.96238 2.81136 -0.00323
C 33.21316 2.16896 -0.00841
C 33.24426 0.74211 0.0001
C 32.01989 34.07024 -0.02927
C 0.06944 32.65918 -0.01404
C 1.23212 31.90176 0.01027
C 1.14766 30.52388 0.01831
C 34.42297 29.81955 -0.01037
C 34.40462 28.34681 -0.00439
C 1.25645 26.1562 -0.05239
C 27.08332 2.76206 0.01799
C 27.09835 4.23263 0.01259
C 28.25778 4.91488 0.01495
C 22.13078 24.16612 0.00199
C 23.37761 23.44939 0.01511
C 23.31154 22.04287 -0.00478
C 22.16302 21.24086 -0.01662
C 22.15493 11.46097 -0.01185
C 23.35396 10.60817 0.01126
C 23.33458 9.20443 0.01852
C 22.12599 8.53527 -0.00381
C 22.05447 7.10485 0.03046
C 23.33781 6.42915 0.0296
C 23.38646 4.94524 0.03374
C 22.18795 4.2519 -0.02845
C 22.15676 2.84973 -0.03213
C 23.38974 2.12562 0.02239
C 23.48077 0.6469 0.01153
C 22.08032 34.06398 0.02734
C 24.62249 32.63261 -0.0055
C 25.83653 31.97672 0.01515
C 25.88077 30.56726 -0.00225
C 24.65628 29.84436 0.00071
C 24.5666 28.38903 -0.01107
C 22.20035 25.62267 0.01087
C 25.8417 27.67069 -0.01586
C 23.39155 26.29094 -0.01527
C 22.18466 28.41208 0.01277
C 19.68794 25.61023 0.00667
C 19.71834 24.15246 0.00143
C 20.91897 23.31034 -0.017
C 20.84557 21.75395 0.00364
C 19.57294 21.26514 -0.00831
C 19.54564 11.36371 -0.02957
C 20.87223 10.86646 -0.04422
C 20.92522 9.29261 0.00654
C 19.6337 8.52668 -0.00703
C 19.6578 7.11525 -0.04076
C 20.8797 6.39532 -0.00652
C 20.93358 4.92037 0.0058
C 19.69789 4.21872 -0.00865
C 19.64479 2.8357 0.00675
C 20.91335 2.15185 -0.00311
C 20.87188 0.78849 0.00742
C 19.64084 0.05003 -0.01594
C 22.18897 32.60795 0.0106
C 23.40544 31.97717 -0.01154
C 23.42546 30.55457 -0.01721
C 22.11161 29.8255 -0.02422
C 23.39588 27.65564 0.00096
C 25.7908 26.25757 -0.01971
C 24.60149 25.53604 -0.02118
C 24.57742 24.1652 0.00733
C 28.30425 27.67851 -0.00802
C 28.22037 26.29624 -0.00218
C 26.99959 25.55267 -0.01654
C 26.96292 24.12411 -0.00037
C 28.23583 23.46849 -0.0032
C 28.21594 22.02108 0.00622
C 27.01195 21.23477 -0.02815
C 26.8975 19.83782 -0.00942
C 28.1849 19.21335 0.00487
C 28.2417 17.79747 0.00826
C 27.02651 17.02294 -0.00294
C 27.02693 15.57027 0.00152
C 28.22495 14.95022 0.01257
C 28.20092 13.50517 0.02316
C 26.93282 12.89073 0.04185
C 27.03865 11.44242 0.00194
C 28.23501 10.63698 -0.00621
C 28.23113 9.24194 0.02611
C 26.99338 8.55707 0.02198
C 27.03776 7.16423 0.01094
C 28.21077 6.37359 0.00235
C 27.0989 28.38083 0.00195
C 27.10835 29.81304 0.00996
C 28.3619 30.51743 0.04306
C 28.35077 31.90933 0.00367
C 25.78796 23.40987 -0.00178
C 25.74841 22.0414 0.00768
C 24.60422 21.31191 -0.0276
C 24.4918 19.90418 0.03005
C 25.60401 19.00372 -0.04078
C 25.77059 17.64141 0.02117
C 25.87403 14.86773 0.02737
C 25.60648 13.52733 -0.00498
C 24.47294 12.68554 0.00135
C 24.58604 11.28243 0.03102
C 3.60668 31.97267 -0.00039
C 25.79745 10.61319 0.02555
C 24.58892 8.52039 -0.00285
C 24.54001 7.13375 -0.009
C 25.84468 6.39949 -0.01199
C 25.80328 4.93469 -0.00229
C 24.63369 4.14189 -0.00938
C 24.61922 2.7085 -0.0264
C 25.86042 2.04782 -0.01154
C 25.87604 0.64184 0.00684
C 24.64064 33.98932 -0.01052
C 27.13575 32.58274 -0.01679
C 25.7863 9.2392 0.01423
C 2.40891 32.67271 0.02728
