405
Graphene
C 0.0163 0.02396 0.01295
C 12.36258 21.29937 -0.01046
C 12.29898 19.92525 -0.00891
C 13.5484 19.18845 0.02819
C 13.52698 17.73482 0.00165
C 12.35639 17.10827 -0.02971
C 13.52138 4.96443 0.02894
C 12.26442 4.26138 -0.01789
C 12.25927 2.83367 0.00444
C 13.49379 2.04624 -0.00925
C 13.52772 0.68809 0.01877
C 12.35279 0.02278 0.01363
C 14.77913 32.60983 -0.02162
C 15.99466 31.93999 0.00415
C 16.03565 30.51362 -0.0014
C 14.74234 29.89085 0.02162
C 14.76953 28.36219 0.0076
C 15.98279 27.62932 0.01241
C 15.94278 26.22381 -0.01454
C 14.78824 25.51648 0.01945
C 14.69812 24.14648 0.01416
C 15.95718 23.46018 0.03542
C 13.53269 21.97435 -0.02689
C 15.99876 22.04628 0.02299
C 13.44672 23.46079 -0.01536
C 12.30401 25.60637 -0.00428
C 9.87123 21.30895 0.00057
C 9.85811 19.90802 -0.01634
C 11.10663 19.19388 -0.00334
C 11.06868 17.77897 0.02339
C 9.85155 17.05567 0.01641
C 9.88761 15.65159 -0.00719
C 11.07235 14.97805 0.01364
C 11.04316 13.55313 -0.01062
C 9.83531 12.86189 -0.00033
C 9.82509 4.21399 0.03589
C 9.85078 2.82131 -0.02759
C 11.09119 2.15237 0.0402
C 11.12064 0.70041 0.00572
C 9.79504 34.05773 0.03592
C 12.28354 32.6987 0.00406
C 13.52841 31.90945 0.00943
C 13.46646 30.5319 0.02841
C 12.30141 29.81312 -0.01111
C 12.36175 28.43741 -0.01275
C 13.53322 27.7116 0.00985
C 13.54403 26.29326 -0.02245
C 12.26187 24.21837 0.03101
C 14.76125 21.31187 0.00244
C 14.75901 19.83009 -0.01717
C 16.01037 19.13242 0.05265
C 18.44902 5.00315 -0.02815
C 17.23374 4.25979 -0.04147
C 17.19193 2.87701 -0.05302
C 18.42406 2.1401 0.00213
C 18.4526 0.68597 -0.00066
C 17.25373 0.05324 -0.00289
C 19.71726 32.63266 0.00028
C 20.93988 31.94799 -0.02213
C 20.90824 30.52873 0.03698
C 19.70064 29.74791 -0.00109
C 19.63035 28.37507 -0.00491
C 20.87599 27.66848 0.03338
C 20.93253 26.2352 -0.0258
C 19.68661 25.52565 -0.0331
C 19.63877 24.17631 -0.00316
C 20.87418 23.43225 0.02188
C 19.65931 19.87708 -0.01979
C 20.85637 19.24142 0.02691
C 20.89624 17.77744 -0.01581
C 19.64296 17.0742 0.01452
C 20.93995 14.83739 0.04892
C 18.44792 6.37189 0.03505
C 17.21917 7.13729 0.01443
C 17.23664 8.55948 0.00979
C 18.43434 9.23011 -0.00481
C 15.97707 6.36786 -0.01952
C 15.98149 4.92957 -0.02813
C 14.73775 4.22567 0.00374
C 14.72837 2.82236 0.00052
C 16.03982 2.16634 -0.03682
C 15.97322 0.71633 0.01965
C 14.73999 34.06025 0.02058
C 17.1716 32.68094 -0.01957
C 18.44442 31.94572 -0.0108
C 18.41633 30.52731 -0.00368
C 11.08956 22.03322 0.00093
C 17.2547 29.78188 -0.02696
C 18.42164 27.68699 0.00228
C 18.43353 26.21894 0.00798
C 17.16086 25.5607 0.00422
C 17.2239 24.10359 0.0351
C 18.40407 23.38146 -0.03113
C 18.45999 21.97714 0.02098
C 17.27065 21.2985 0.01848
C 17.19057 19.92231 -0.00619
C 18.46289 19.15915 -0.02162
C 18.44656 17.75979 0.00889
C 17.20183 28.3961 -0.00114
C 11.06298 23.47528 0.01291
C 9.86908 24.09422 0.00438
C 9.8283 25.59541 -0.00191
C 2.43495 2.87078 0.00643
C 3.64731 2.13252 -0.01509
C 3.69997 0.70541 0.03267
C 2.47337 0.0566 0.02374
C 4.97103 32.62314 0.00402
C 6.17065 31.9755 0.0073
C 6.15578 30.54723 0.0174
C 4.91087 29.81846 0.03828
C 4.87724 28.4411 0.01226
C 6.12882 27.73879 -0.00279
C 6.1502 26.26035 0.01996
C 4.89564 25.55822 -0.03996
C 4.90086 24.16547 0.01465
C 6.18023 23.39142 -0.00074
C 6.21135 22.03043 -0.00518
C 4.93707 21.29399 0.0086
C 4.9707 19.85844 -0.00643
C 6.15194 19.18018 0.017
C 6.11032 17.73015 -0.03113
C 4.90522 17.11185 -0.02566
C 4.91778 15.6308 -0.00094
C 2.49061 4.27045 0.00907
C 3.67359 5.00365 0.02379
C 3.71047 6.39441 0.01402
C 2.42552 7.08208 -0.003
C 3.71562 30.50408 -0.02805
C 2.39627 29.78292 0.00081
C 2.44295 28.447 0.00245
C 3.66137 27.72628 0.02728
C 3.6487 26.28648 -0.00039
C 2.46631 25.578 0.0064
C 2.4692 24.06225 0.00211
C 3.7368 23.42027 -0.00449
C 3.72631 22.01744 -0.01979
C 2.43535 21.32918 0.02784
C 6.12237 14.88605 0.02322
C 2.40606 19.83977 -0.01977
C 3.69023 17.74204 0.00208
C 2.49757 17.05397 0.01707
C 2.48441 15.62521 0.02769
C 3.7219 14.91541 -0.03291
C 3.71024 13.53104 -0.04999
C 2.4449 12.77365 0.04505
C 2.49147 11.33281 0.03284
C 3.72129 10.62872 -0.04307
C 3.68654 9.2449 0.03189
C 2.42759 8.43613 0.00031
C 3.67416 19.1449 -0.00561
C 20.901 13.54171 -0.00111
C 6.11912 13.41765 -0.00725
C 4.91779 11.37132 0.01087
C 7.33953 17.04868 -0.04848
C 7.36671 15.63026 -0.00892
C 8.61834 14.87427 -0.01362
C 8.58425 13.53741 -0.0008
C 7.38196 12.79145 0.0288
C 7.40759 11.40124 0.00393
C 7.36795 8.49538 0.00895
C 7.37787 7.14596 0.00685
C 8.65684 4.96494 0.02888
C 7.37475 4.26913 -0.00482
C 7.33582 2.85028 -0.01384
C 8.64531 2.1167 0.03693
C 8.6026 0.732 0.01745
C 7.35865 0.03086 0.00488
C 9.82358 32.70583 -0.01004
C 11.02163 32.04578 -0.02896
C 11.05499 30.58604 -0.00131
C 9.86955 29.81469 -0.01118
C 9.77477 28.39901 -0.014
C 11.06971 27.72752 0.02147
C 11.08083 26.27871 0.00373
C 8.59812 17.74349 0.01572
C 8.59353 19.1893 -0.00095
C 7.35601 19.90126 0.03007
C 7.40896 21.2998 0.00054
C 6.11127 10.64779 -0.01343
C 6.10699 9.26761 0.00988
C 4.89208 8.51798 0.0276
C 4.92779 7.10662 0.01305
C 6.10959 6.45018 -0.00077
C 6.12796 5.00374 0.03368
C 4.98123 4.29349 -0.02929
C 4.93332 2.81084 -0.00966
C 6.1259 2.13977 -0.03337
C 6.11084 0.71288 0.01227
C 4.92371 12.78724 -0.05697
C 4.93192 0.04981 0.00873
C 8.53762 31.94505 0.00848
C 8.59795 30.53578 -0.01303
C 7.36339 29.80712 -0.01378
C 7.39433 28.43863 0.02635
C 8.56833 27.69955 0.0127
C 8.61825 26.29884 0.01396
C 7.38971 25.55709 0.01849
C 7.39832 24.14816 -0.01142
C 8.59947 23.43213 -0.00562
C 8.64263 21.97923 -0.00494
C 7.39887 32.6962 -0.00049
C 3.70282 31.92211 -0.01386
C 20.88425 10.63014 -0.03557
C 19.67159 8.51033 0.01739
C 29.45667 8.56548 -0.00971
C 29.55949 7.09825 0.01518
C 30.76259 6.37269 0.01908
C 30.79022 4.95619 0.07705
C 29.49208 4.26938 0.0103
C 29.51673 2.86945 0.02108
C 30.75809 2.11963 0.00716
C 30.73661 0.68788 0.00307
C 29.50837 34.04609 0.00346
C 31.94038 32.67441 0.01713
C 33.24009 31.98102 -0.01694
C 33.2143 30.4703 0.01428
C 32.0098 29.77999 -0.02142
C 32.00769 28.40559 0.0544
C 33.20466 27.73144 0.00026
C 33.19328 26.23665 0.00682
C 31.92864 25.56166 -0.01779
C 32.02116 24.11707 0.03794
C 33.18895 23.38371 0.01927
C 33.18601 22.01439 0.01574
C 31.97295 21.28931 -0.02383
C 30.71081 9.27544 -0.03735
C 31.96648 19.89464 -0.01429
C 30.76107 10.59238 -0.00944
C 29.5318 12.78106 -0.01461
C 28.28044 0.72762 0.01699
C 27.10583 34.05489 -0.00416
C 29.49201 32.59968 0.01177
C 30.76843 31.93595 0.04266
C 30.77353 30.50636 0.01324
C 29.48826 29.80239 0.0014
C 29.52544 28.36708 0.00924
C 30.76313 27.67822 0.02326
C 30.71002 26.26707 0.00261
C 29.52214 25.5875 0.03265
C 29.50019 24.09667 -0.02049
C 30.78263 23.48262 -0.01854
C 30.71548 22.05403 -0.01415
C 29.54731 21.31776 -0.03039
C 29.51774 19.85322 0.01836
C 30.77382 19.1912 0.03531
C 30.7806 17.72823 -0.00669
C 29.4821 17.0027 0.0101
C 29.51804 15.63453 0.01705
C 30.78027 14.93335 -0.0405
C 30.77014 13.54358 -0.01303
C 29.49781 11.3008 -0.02155
C 33.17623 19.15856 -0.0136
C 33.17921 17.7586 0.00594
C 32.02854 17.0483 -0.02474
C 1.1614 21.99776 0.02712
C 34.38265 21.30516 -0.02213
C 34.41723 19.8547 0.01951
C 1.21087 19.17719 -0.01678
C 1.21803 17.69715 0.01223
C 34.43172 17.06302 0.00648
C 34.42923 15.64274 0.02114
C 1.2324 14.91028 -0.02957
C 1.23639 13.48552 0.00343
C 34.4023 12.73272 -0.02656
C 34.3699 11.37763 -0.02442
C 1.21994 10.6915 -0.00027
C 1.26086 9.18929 -0.00583
C 34.42725 8.51662 -0.02302
C 34.39703 7.13207 -0.02849
C 1.21636 6.39141 0.02931
C 1.21245 4.99929 0.00628
C 34.41502 4.24298 -0.0345
C 34.41913 2.82416 -0.00931
C 1.25312 2.17139 -0.00939
C 1.2666 0.71588 -0.00468
C 1.23762 23.44776 0.00723
C 34.40604 24.12678 0.03076
C 34.41376 25.57503 -0.05239
C 1.2247 26.2799 -0.00598
C 31.98861 15.65527 0.00369
C 33.22189 14.84689 0.00455
C 33.22255 13.44977 -0.00644
C 31.91645 12.77538 -0.01839
C 31.96354 11.35631 0.00137
C 33.21326 10.64432 0.00199
C 33.13127 9.19178 0.04381
C 31.95095 8.51072 0.02806
C 31.97243 7.11887 0.01504
C 33.18802 6.35736 -0.00069
C 28.26601 2.13983 0.01799
C 33.22524 4.93926 0.04926
C 31.99006 2.85671 0.00349
C 33.22386 2.13147 -0.00323
C 33.1844 0.67837 -0.00841
C 31.9889 34.03727 0.0001
C 34.41714 32.64301 -0.02927
C 1.20377 31.95454 -0.01404
C 1.23927 30.52537 0.01027
C 0.02758 29.79693 0.01831
C 34.42971 28.44527 -0.01037
C 1.1726 27.66675 -0.00439
C 31.92873 4.24983 -0.03838
C 27.0588 2.80131 0.01259
C 27.0152 4.26116 0.01495
C 28.31932 4.95899 0.00235
C 23.39664 13.46425 0.01087
C 22.0653 12.76967 0.00199
C 22.06517 11.30212 0.01511
C 23.37804 10.64274 -0.00478
C 23.35369 9.21685 -0.01662
C 22.15885 8.47546 -0.01185
C 22.19348 7.04361 0.01126
C 23.38655 6.35454 0.01852
C 23.35366 4.95852 -0.00381
C 22.15495 4.19849 0.03046
C 22.12081 2.81802 0.0296
C 23.34616 2.13704 0.03374
C 23.39986 0.66002 -0.02845
C 22.19364 34.04448 -0.03213
C 24.58043 32.67405 0.02239
C 25.83836 31.93501 0.01153
C 25.80415 30.51432 0.02734
C 24.57968 29.79507 -0.0055
C 24.62324 28.4172 0.01515
C 25.78628 27.69404 -0.00225
C 25.80522 26.31224 0.00071
C 23.38196 14.90046 -0.01527
C 22.14664 15.61003 0.00096
C 22.1595 17.05514 0.01277
C 23.3407 17.77787 -0.02422
C 19.68594 7.03049 0.00755
C 20.91278 6.38737 -0.0054
C 20.92186 4.98555 0.00667
C 19.66711 4.29733 0.00143
C 19.65408 2.83385 -0.017
C 20.91703 2.17979 0.00364
C 20.89982 0.74407 -0.00831
C 19.68029 34.0795 -0.02957
C 22.16167 32.68712 -0.04422
C 23.35392 32.02697 0.00654
C 24.5875 25.51572 -0.01107
C 23.3701 30.55368 -0.00703
C 22.19442 28.41118 -0.00652
C 23.41324 27.66402 0.0058
C 23.31266 26.23355 -0.00865
C 22.16854 25.58151 0.00675
C 22.10775 24.11045 -0.00311
C 23.4808 23.45639 0.00742
C 23.35142 22.00092 -0.01594
C 22.16226 21.28047 0.0106
C 22.13329 19.89272 -0.01154
C 23.28727 19.17909 -0.01721
C 22.09912 29.82776 -0.04076
C 20.89227 9.23243 0.03754
C 24.58133 24.1316 -0.01586
C 25.83229 21.978 -0.02118
C 28.21714 27.66 0.00195
C 28.28626 26.28198 -0.00802
C 27.02925 25.60185 -0.00218
C 27.02184 24.12898 -0.01654
C 28.253 23.43474 -0.00037
C 28.30005 22.02368 -0.0032
C 27.0444 21.28 0.00622
C 27.04409 19.86624 -0.02815
C 28.29712 19.09417 -0.00942
C 28.29137 17.7314 0.00487
C 27.032 17.02188 0.00826
C 27.04173 15.63196 -0.00294
C 28.34646 14.95908 0.00152
C 28.2973 13.50448 0.01257
C 27.01141 12.71815 0.02316
C 27.05296 11.32487 0.04185
C 28.28811 10.67808 0.00194
C 28.24847 9.26068 -0.00621
C 27.06394 8.5147 0.02611
C 27.0985 7.12524 0.02198
C 28.33062 6.39157 0.01094
C 27.03094 28.41116 0.00996
C 27.05058 29.79292 0.04306
C 28.27312 30.5683 0.00367
C 28.31503 31.94003 -0.01679
C 24.55497 21.28403 0.00733
C 24.55889 19.83486 -0.00178
C 25.80174 19.15167 0.00768
C 25.79973 17.76221 -0.0276
C 24.59519 17.05069 0.03005
C 24.58315 15.59071 -0.04078
C 25.80237 14.96536 0.02117
C 25.87647 13.52958 0.02737
C 24.59694 12.80469 -0.00498
C 24.61107 11.35782 0.00135
C 25.83 23.45391 -0.01971
C 25.83262 10.67736 0.03102
C 24.60296 8.49759 0.01423
C 24.59255 7.04927 -0.00285
C 25.89107 6.39109 -0.009
C 25.81056 4.98813 -0.01199
C 24.58746 4.28971 -0.00229
C 24.61913 2.88785 -0.00938
C 25.81786 2.12427 -0.0264
C 25.85974 0.67335 -0.01154
C 24.55357 34.06053 0.00684
C 27.09504 32.61963 -0.01052
C 25.80059 9.19146 0.02555
C 2.41249 32.69376 -0.0059
