411
Graphene
C 0.0121 0.02678 0.01295
C 12.32997 29.81304 -0.00428
C 12.25523 28.45914 0.03101
C 13.51614 27.71155 -0.01536
C 13.54903 26.25387 -0.02689
C 12.35561 25.61334 -0.01046
C 12.35155 24.16099 -0.00891
C 13.49924 23.39294 0.02819
C 13.49689 22.00161 0.00165
C 12.27365 21.22321 -0.02971
C 12.2931 19.85635 0.02894
C 13.57133 19.21007 -0.01789
C 13.55076 17.71845 0.00444
C 12.3244 17.02486 -0.00925
C 12.3387 15.60266 0.01877
C 13.51091 14.96782 0.01363
C 13.5339 13.45089 -0.02162
C 12.28138 12.72521 0.00415
C 12.268 11.33823 -0.0014
C 13.58673 10.59497 0.02162
C 13.47713 9.1963 0.0076
C 12.26611 8.5437 0.01241
C 13.52203 30.50395 -0.02245
C 13.49494 31.99484 0.00985
C 12.22896 32.73143 -0.01275
C 9.85001 0.02998 -0.01111
C 11.10233 23.46291 0.00373
C 11.09562 22.04759 -0.00191
C 9.88223 21.31068 0.00438
C 9.81705 19.9063 0.01291
C 11.08867 19.1615 0.00093
C 11.10109 17.7689 0.00057
C 9.85584 17.13 -0.01634
C 9.83456 15.64561 -0.00334
C 11.06363 14.98301 0.02339
C 11.09561 13.46103 0.01641
C 12.31182 7.07099 -0.01454
C 9.8843 12.81533 -0.00719
C 11.14174 10.66987 -0.01062
C 11.03824 9.18995 -0.00033
C 9.81955 8.54383 0.03589
C 9.85151 7.05933 -0.02759
C 11.0181 6.3786 0.0402
C 11.07459 4.95793 0.00572
C 9.88667 4.28635 0.03592
C 9.82809 2.87076 0.00406
C 11.08165 2.1452 0.00943
C 11.02463 0.79797 0.02841
C 9.82078 11.40015 0.01364
C 13.50933 6.34778 0.01945
C 13.52276 4.96218 0.01416
C 12.29801 4.30182 0.03542
C 15.96958 9.21605 -0.00481
C 14.71193 8.52654 0.00979
C 14.7531 7.13295 0.01443
C 15.99454 6.36763 0.03505
C 16.02975 5.0232 -0.02815
C 14.77087 4.25074 -0.04147
C 14.77348 2.86236 -0.05302
C 15.99105 2.11923 0.00213
C 16.01457 0.66153 -0.00066
C 14.71349 0.00123 -0.00289
C 15.9639 10.64649 0.00889
C 17.26312 32.62449 0.00028
C 18.45578 30.50696 0.03698
C 17.19758 29.81685 -0.00109
C 17.17462 28.37176 -0.00491
C 18.3998 27.69144 0.03338
C 18.39595 26.31182 -0.0258
C 17.19681 25.57848 -0.0331
C 17.18092 24.16679 -0.00316
C 18.47104 23.4041 0.02188
C 18.47908 22.00292 -0.01979
C 17.23492 21.34064 0.02691
C 18.46554 31.96973 -0.02213
C 9.87102 24.16322 0.02147
C 14.75286 11.38226 -0.02162
C 15.99682 13.44072 0.01848
C 12.3063 2.81553 0.02299
C 13.53454 2.12391 0.00244
C 13.57171 0.733 -0.01717
C 12.28252 0.00849 0.05265
C 14.71447 32.65376 -0.01952
C 15.9461 31.95501 -0.02813
C 15.98287 30.50479 0.00374
C 14.69446 29.81497 0.00052
C 14.77345 28.42503 -0.03682
C 16.02436 27.66633 0.01965
C 14.74175 12.77643 -0.00619
C 15.98052 26.19545 0.02058
C 14.72608 24.12148 -0.0108
C 15.9984 23.40971 -0.00368
C 15.95636 21.97421 -0.02696
C 14.77752 21.28279 -0.00114
C 14.79953 19.90831 0.00228
C 15.95777 19.21547 0.00798
C 15.98234 17.73346 0.00422
C 14.73807 17.02787 0.0351
C 14.73736 15.60965 -0.03113
C 15.9885 14.93425 0.02098
C 14.7585 25.50251 -0.01957
C 17.20868 19.90301 -0.01581
C 9.79879 25.58078 -0.014
C 11.03752 27.71079 -0.00131
C 2.44741 2.82901 0.03189
C 3.68226 2.17413 0.00031
C 3.69706 0.68775 -0.003
C 2.45422 0.03539 0.01402
C 4.92783 32.69225 0.02379
C 6.15673 31.98447 0.00907
C 6.08885 30.5972 0.00643
C 4.91581 29.84798 -0.01509
C 4.92327 28.36781 0.03267
C 6.14456 27.69419 0.02374
C 6.14538 26.29912 0.00402
C 4.96349 25.52058 0.0073
C 4.9636 24.15937 0.0174
C 6.12641 23.40861 0.03828
C 6.21958 21.98081 0.01226
C 4.89841 21.31281 -0.00279
C 4.86128 19.86839 0.01996
C 6.12184 19.25026 -0.03996
C 6.1619 17.75563 0.01465
C 4.95345 17.01869 -0.00074
C 4.91523 15.63795 -0.00518
C 2.4867 4.23086 -0.04307
C 3.65364 4.9162 0.03284
C 3.74567 6.35718 0.04505
C 2.40233 7.04449 -0.04999
C 3.66844 30.6025 0.00088
C 2.42496 29.87131 0.00828
C 2.43668 28.43587 -0.02375
C 3.72826 27.71858 0.00558
C 3.69066 26.21054 -0.0059
C 2.51537 25.55071 -0.01386
C 2.47866 24.16472 -0.02805
C 3.69034 23.46171 0.00081
C 3.66828 22.0114 0.00245
C 2.42397 21.26179 0.02728
C 6.15829 14.8915 0.0086
C 2.47186 19.88889 -0.00039
C 3.70039 17.70386 0.00211
C 2.46967 17.0457 -0.00449
C 2.47391 15.65273 -0.01979
C 3.64592 14.91293 0.02784
C 3.71101 13.4848 -0.01977
C 2.50915 12.77007 -0.00561
C 2.48949 11.40245 0.00208
C 3.66698 10.57673 0.01707
C 3.68721 9.2331 0.02769
C 2.44956 8.51754 -0.03291
C 3.62401 19.10666 0.0064
C 6.14947 13.48119 -0.00643
C 4.89987 12.8194 0.017
C 4.91351 11.38135 -0.03113
C 7.40306 16.97711 -0.00562
C 7.37301 15.61692 -0.00494
C 8.61471 14.92395 0.00054
C 8.63904 13.49546 0.03007
C 7.37025 12.75878 -0.00095
C 7.36641 11.36692 0.01572
C 8.61309 10.6771 -0.04848
C 8.60353 9.22745 -0.00892
C 7.32441 8.56299 -0.01362
C 7.40493 7.11491 -0.0008
C 8.63774 17.80597 -0.01142
C 8.61043 6.42006 0.0288
C 7.41531 4.31753 0.00895
C 7.33721 2.92764 0.00685
C 8.58789 2.15335 0.02888
C 8.61476 0.71975 -0.00482
C 7.30217 34.06876 -0.01384
C 9.85812 32.68797 0.03693
C 11.07392 31.93004 0.01745
C 11.06335 30.52023 0.00488
C 9.78315 29.86913 -0.01004
C 9.80642 28.47356 -0.02896
C 8.63259 5.00299 0.00393
C 11.03043 26.25438 -0.01118
C 8.57312 19.22676 0.01849
C 7.39141 21.28076 0.0127
C 6.16654 10.6405 -0.02566
C 6.09014 9.27684 -0.00094
C 4.87889 8.52301 0.02322
C 4.97368 7.12838 -0.00725
C 6.16793 6.36154 -0.05697
C 6.14066 5.00046 0.01087
C 4.87694 4.24974 -0.01343
C 4.91256 2.85002 0.00988
C 6.10848 2.18817 0.0276
C 6.06581 0.72637 0.01305
C 7.33583 19.88316 0.01396
C 4.8845 34.05076 -0.00077
C 8.63795 31.98628 -0.02929
C 8.55676 30.54138 -0.00966
C 7.36629 29.85679 -0.03337
C 7.38425 28.38103 0.01227
C 8.62687 27.71153 0.00873
C 8.60728 26.29578 -0.00049
C 7.41188 25.56 0.00848
C 7.41189 24.18614 -0.01303
C 8.60361 23.44131 -0.01378
C 8.61801 22.01321 0.02635
C 7.37198 32.66976 0.03368
C 3.63643 32.01678 0.04421
C 18.48286 19.16718 0.01452
C 17.23224 17.00769 -0.00111
C 29.55552 11.35534 -0.03735
C 30.72376 10.66597 -0.00971
C 30.74967 9.2507 0.01518
C 29.54214 8.53681 0.01908
C 29.5038 7.10339 0.07705
C 30.71614 6.37267 0.0103
C 30.72875 5.00293 0.02108
C 29.55705 4.27945 0.00716
C 29.52614 2.75713 0.00307
C 30.7771 2.08697 0.00346
C 30.73463 0.70974 0.01713
C 29.51739 0.04104 -0.01694
C 31.98799 32.6274 0.01428
C 33.14991 31.93637 -0.02142
C 33.28197 30.48258 0.0544
C 33.18434 27.67077 0.00026
C 33.13909 26.30409 0.00682
C 31.94936 25.52658 -0.01779
C 31.9384 24.18747 0.03794
C 33.2099 23.42196 0.01927
C 33.2251 21.95553 0.01574
C 29.55696 12.75908 -0.00944
C 30.75728 13.52196 -0.02155
C 30.78625 14.90182 -0.01461
C 29.51725 15.56364 -0.01303
C 28.29671 14.92209 0.01259
C 28.32503 13.45714 0.01799
C 27.02164 12.76544 0.01699
C 27.06698 11.33694 -0.00416
C 28.26584 10.65659 0.01177
C 28.28864 9.22928 0.04266
C 27.0677 8.57495 0.01324
C 27.04027 7.09423 0.0014
C 28.31912 6.42148 0.00924
C 28.26602 4.96926 0.02326
C 32.00007 21.30702 -0.02383
C 27.03142 4.23779 0.00261
C 28.32303 2.13427 -0.02049
C 28.31735 0.68863 -0.01854
C 27.02213 34.0726 -0.01415
C 30.77511 23.45658 -0.03039
C 30.75759 22.01643 0.01836
C 29.53202 21.34568 0.03531
C 29.48053 19.79462 -0.00669
C 30.70411 19.14564 0.0101
C 30.74723 17.74245 0.01705
C 29.5962 17.04135 -0.0405
C 27.00247 2.789 0.03265
C 31.92966 19.89507 -0.01429
C 33.18993 19.14458 -0.0136
C 33.1623 17.75683 0.00594
C 1.21422 23.40403 0.00723
C 1.2125 22.07363 0.02712
C 0.00347 21.33332 -0.02213
C 0.0006 19.88377 0.01951
C 1.23575 19.16705 -0.01678
C 1.18707 17.71359 0.01223
C 34.37855 17.03141 0.00648
C 34.42821 15.62636 0.02114
C 1.2608 14.86772 -0.02957
C 1.24081 13.48317 0.00343
C 34.38815 24.18608 0.03076
C 0.01055 12.77825 -0.02656
C 1.21496 10.72679 -0.00027
C 1.21366 9.24038 -0.00583
C 34.39913 8.52143 -0.02302
C 34.42773 7.1327 -0.02849
C 1.22785 6.37085 0.02931
C 1.23392 4.95144 0.00628
C 34.4092 4.20914 -0.0345
C 34.42444 2.81806 -0.00931
C 1.23203 2.15023 -0.00939
C 1.23332 0.77852 -0.00468
C 34.41853 11.32159 -0.02442
C 27.04929 15.59299 0.01495
C 34.38604 25.5756 -0.05239
C 1.23255 27.68675 -0.00439
C 32.00971 17.04494 -0.02474
C 31.9367 15.55057 0.00369
C 33.18783 14.88414 0.00455
C 33.23827 13.47663 -0.00644
C 31.95494 12.74107 -0.01839
C 31.93542 11.3589 0.00137
C 33.20844 10.61058 0.00199
C 33.19835 9.22961 0.04381
C 32.00685 8.52664 0.02806
C 31.93517 7.09848 0.01504
C 1.25929 26.21755 -0.00598
C 33.18012 6.37969 -0.00069
C 31.94283 4.25783 -0.03838
C 31.9884 2.85915 0.00349
C 33.23769 2.09731 -0.00323
C 33.19123 0.72151 -0.00841
C 31.9069 34.06914 0.0001
C 34.37729 32.64506 -0.02927
C 1.22459 31.90372 -0.01404
C 1.19852 30.54179 0.01027
C 0.02365 29.80527 0.01831
C 0.02318 28.40169 -0.01037
C 33.12265 4.98018 0.04926
C 18.39808 17.6897 0.04892
C 27.0782 17.02963 0.00235
C 28.28017 19.1483 0.02198
C 20.92874 21.96011 0.01277
C 19.69322 21.23948 0.00096
C 19.69856 19.86474 -0.01527
C 20.9012 19.15078 0.01087
C 20.92483 17.67827 0.00199
C 19.63275 17.00433 0.01511
C 19.6612 15.64357 -0.00478
C 20.93328 14.86333 -0.01662
C 20.96665 13.45099 -0.01185
C 19.67724 12.72106 0.01126
C 19.66429 11.32415 0.01852
C 20.92899 10.64291 -0.00381
C 20.90969 9.19944 0.03046
C 19.72147 8.52697 0.0296
C 19.64466 7.07629 0.03374
C 20.91308 6.39495 -0.02845
C 20.9503 4.95566 -0.03213
C 19.72887 4.31252 0.02239
C 19.71215 2.87628 0.01153
C 20.87965 2.13915 0.02734
C 20.92919 0.63458 -0.0055
C 20.86657 23.42705 -0.02422
C 19.68255 24.16294 -0.01721
C 19.63869 25.62654 -0.01154
C 20.89663 26.25554 0.0106
C 17.21272 15.62538 -0.03557
C 18.43388 14.9345 0.03754
C 18.45696 13.46459 0.01739
C 17.24056 12.78997 0.00755
C 17.20964 11.40845 -0.0054
C 18.43444 10.61634 0.00667
C 18.48332 9.26699 0.00143
C 17.25351 8.52531 -0.017
C 17.26616 7.10337 0.00364
C 18.39639 6.36452 -0.00831
C 19.7033 0.02445 0.01515
C 18.43068 4.96058 -0.02957
C 17.3332 2.89788 0.00654
C 18.41647 2.13985 -0.00703
C 18.46638 0.69972 -0.04076
C 17.2593 34.0681 -0.00652
C 19.60348 32.6724 0.0058
C 20.85004 31.94938 -0.00865
C 20.87121 30.52626 0.00675
C 19.65006 29.81844 -0.00311
C 19.71513 28.36053 0.00742
C 20.83257 27.61741 -0.01594
C 17.21691 4.28168 -0.04422
C 22.08083 32.69306 -0.00225
C 22.08068 25.54969 0.00071
C 22.11172 24.16335 -0.01107
C 25.82269 19.1848 0.00367
C 25.83912 17.74734 0.04306
C 24.57427 17.05009 0.00996
C 24.60647 15.55014 0.00195
C 25.84999 14.91719 -0.00802
C 25.82037 13.48987 -0.00218
C 24.58919 12.78827 -0.01654
C 24.67135 11.41935 -0.00037
C 25.84627 10.66375 -0.0032
C 25.78169 9.18269 0.00622
C 24.60617 19.84041 -0.01679
C 24.58922 8.52585 -0.02815
C 25.78148 6.39763 0.00487
C 25.81283 4.94894 0.00826
C 24.62413 4.30138 -0.00294
C 24.62714 2.84879 0.00152
C 25.81613 2.1457 0.01257
C 25.79015 0.6288 0.02316
C 24.57906 0.02947 0.04185
C 28.30438 22.00348 0.00194
C 27.02533 21.31688 -0.00621
C 27.03672 19.87046 0.02611
C 24.59651 7.06732 -0.00942
C 28.28581 17.73011 0.01094
C 24.60049 21.27431 -0.01052
C 22.17122 34.05819 -0.01154
C 23.35595 23.46304 -0.01586
C 23.40475 22.05397 -0.01971
C 22.08722 21.2936 -0.02118
C 22.12985 19.85512 0.00733
C 23.36793 19.16536 -0.00178
C 23.35093 17.7959 0.00768
C 22.1467 17.02959 -0.0276
C 22.11665 15.59294 0.03005
C 23.4089 14.90377 -0.04078
C 23.32431 13.54104 0.02117
C 25.81386 22.01243 0.00684
C 22.15306 12.82251 0.02737
C 23.37415 10.64602 0.00135
C 23.37255 9.16375 0.03102
C 22.08181 8.46685 0.02555
C 22.18176 7.08989 0.01423
C 23.36157 6.35827 -0.00285
C 23.32309 4.98673 -0.009
C 22.14292 4.23362 -0.01199
C 22.07576 2.85849 -0.00229
C 23.40193 2.1378 -0.00938
C 23.32269 0.65758 -0.0264
C 22.13916 11.38034 -0.00498
C 2.44168 32.68056 -0.00177
