348
Graphene
C 34.41667 33.99409 0.01295
C 9.80657 17.07352 0.00422
C 9.89194 15.58152 0.0351
C 11.13891 14.96806 -0.03113
C 11.17686 13.59252 0.02098
C 9.92828 12.79522 0.01848
C 9.86884 11.36188 -0.00619
C 11.07877 10.62443 -0.02162
C 10.94727 9.17176 0.00889
C 9.7627 8.46555 -0.00481
C 9.86053 6.98593 0.00979
C 11.11815 6.33587 0.01443
C 11.1247 4.98036 0.03505
C 9.85558 4.3057 -0.02815
C 9.84639 2.90003 -0.04147
C 11.11851 2.09496 -0.05302
C 11.08284 0.75773 0.00213
C 9.83354 0.05813 -0.00066
C 11.14815 17.7385 0.00798
C 11.13458 19.17328 0.00228
C 9.90722 19.86296 -0.00114
C 9.80163 21.23789 -0.02696
C 8.6137 6.37213 -0.01454
C 8.61549 4.92342 0.01945
C 7.38058 4.29324 0.01416
C 7.34837 2.90295 0.03542
C 8.59895 2.19997 0.02299
C 8.6373 0.75111 0.00244
C 7.40734 0.09194 -0.01717
C 9.81823 32.5894 0.05265
C 12.32243 32.75401 -0.00289
C 11.07782 32.01176 -0.01952
C 9.81503 29.86095 0.00374
C 9.78954 28.48796 0.00052
C 10.98265 27.68175 -0.03682
C 11.00276 26.35128 0.01965
C 9.87532 25.50567 0.02058
C 9.8872 24.05292 -0.01957
C 11.09533 23.3659 -0.0108
C 11.08237 21.97589 -0.00368
C 11.07004 30.6049 -0.02813
C 13.51823 31.95163 0.00028
C 13.53519 30.49864 -0.02213
C 12.21334 29.86104 0.03698
C 12.31239 2.7882 -0.00831
C 13.59111 2.13032 -0.02957
C 13.5407 0.69661 -0.04422
C 12.35596 34.06997 0.00654
C 14.83403 32.58115 -0.00703
C 16.1647 31.84248 -0.04076
C 15.98049 30.45412 -0.00652
C 14.78207 29.69673 0.0058
C 12.35959 4.28275 0.00364
C 14.60652 28.4025 -0.00865
C 14.6247 25.60595 -0.00311
C 14.75565 24.22983 0.00742
C 15.97352 23.45271 -0.01594
C 15.95059 21.90795 0.0106
C 14.71653 21.28716 -0.01154
C 14.79986 7.09017 -0.01721
C 15.98797 4.78542 -0.02422
C 14.81327 4.32118 0.01277
C 15.82642 26.23633 0.00675
C 7.39596 7.20135 0.01241
C 13.53076 5.04092 -0.017
C 12.30374 7.14466 0.00667
C 12.16448 28.41687 -0.00109
C 13.4254 27.77028 -0.00491
C 13.48338 26.30372 0.03338
C 12.2915 25.55851 -0.0258
C 12.40877 24.10833 -0.0331
C 13.59556 23.46407 -0.00316
C 13.54126 21.99551 0.02188
C 12.31158 21.22846 -0.01979
C 13.55836 6.46668 0.00143
C 12.35869 19.81508 0.02691
C 12.45373 15.67417 0.01452
C 13.40664 14.81687 0.04892
C 13.44529 13.48625 -0.00111
C 12.33611 12.67341 -0.03557
C 12.26276 11.30747 0.03754
C 13.41176 10.58108 0.01739
C 13.35327 9.21376 0.00755
C 12.21441 8.51651 -0.0054
C 12.25579 17.00885 -0.01581
C 14.82739 2.8624 0.00096
C 7.29843 8.51538 0.0076
C 8.62178 10.61835 -0.0014
C 2.50028 7.10421 -0.01362
C 3.68724 6.41826 -0.0008
C 3.62825 4.94659 0.0288
C 2.42233 4.15078 0.00393
C 2.45121 2.73059 0.00895
C 3.71646 2.20493 0.00685
C 3.76681 0.7398 0.02888
C 2.55326 0.03808 -0.00482
C 4.94812 32.69501 -0.01384
C 6.20362 32.00295 0.03693
C 6.13658 30.54795 0.01745
C 4.84967 29.8177 0.00488
C 4.88721 28.45372 -0.01004
C 6.1796 27.69554 -0.02896
C 6.14595 26.31298 -0.00131
C 4.87334 25.61352 -0.01118
C 4.95151 24.20283 -0.014
C 2.45945 8.49504 -0.00892
C 3.64192 9.28797 -0.04848
C 3.66107 10.64789 0.01572
C 2.44862 11.34255 -0.00095
C 3.60474 30.5362 -0.02929
C 2.40929 29.80341 -0.00966
C 2.41743 28.41156 -0.03337
C 3.63656 27.6992 0.01227
C 3.56687 26.27927 0.00873
C 2.34258 25.49799 -0.00049
C 2.4259 24.18464 0.00848
C 3.70166 23.45981 -0.01303
C 6.19242 23.45676 0.02147
C 3.65779 22.06878 -0.01378
C 2.38243 19.93782 0.0127
C 3.63558 19.23213 0.01396
C 3.66143 17.70395 0.01849
C 2.4133 17.01896 -0.01142
C 2.39998 15.61963 -0.00562
C 3.69773 14.87903 -0.00494
C 3.65639 13.50085 0.00054
C 2.45014 12.78528 0.03007
C 2.46128 21.34903 0.02635
C 6.21168 22.03859 0.00373
C 4.91886 21.30381 -0.00191
C 4.86543 19.90469 0.00438
C 7.34032 29.8007 -0.02245
C 7.35263 28.3523 -0.00428
C 8.62954 27.78203 0.03101
C 8.625 26.26379 -0.01536
C 7.35521 25.57736 -0.02689
C 7.36504 24.1723 -0.01046
C 8.59699 23.44799 -0.00891
C 8.55589 22.05308 0.02819
C 8.54426 30.51735 0.00985
C 7.29592 21.2658 0.00165
C 8.60316 19.17788 0.02894
C 8.62359 17.74657 -0.01789
C 7.35273 17.06993 0.00444
C 7.39771 15.69426 -0.00925
C 8.5648 14.96128 0.01877
C 8.65146 13.53003 0.01363
C 7.4626 12.75 -0.02162
C 7.43315 11.39749 0.00415
C 7.33565 19.86198 -0.02971
C 8.57703 9.15262 0.02162
C 8.58225 31.97877 -0.01275
C 5.00762 0.04042 0.02841
C 6.0459 19.22328 0.01291
C 6.11746 17.83972 0.00093
C 4.85233 17.1277 0.00057
C 4.90465 15.63772 -0.01634
C 6.15683 14.93458 -0.00334
C 6.1968 13.50413 0.02339
C 4.97125 12.80685 0.01641
C 4.93925 11.3637 -0.00719
C 7.35297 32.68594 -0.01111
C 6.11817 10.59316 0.01364
C 4.8437 8.4531 -0.00033
C 4.85541 7.10921 0.03589
C 6.15971 6.47243 -0.02759
C 6.11504 5.10712 0.0402
C 4.84697 4.35145 0.00572
C 4.95776 2.91858 0.03592
C 6.16666 2.23014 0.00406
C 6.17678 0.79568 0.00943
C 6.10378 9.19402 -0.01062
C 16.01136 2.10337 -0.01527
C 15.99705 0.70079 0.01087
C 14.78988 0.00482 0.00199
C 33.15366 30.51127 0.01428
C 31.93342 29.80999 -0.02142
C 31.96387 28.46112 0.0544
C 33.17957 27.71764 0.00026
C 33.16373 26.24714 0.00682
C 31.93264 25.58754 -0.01779
C 31.85094 24.16961 0.03794
C 33.19311 23.47147 0.01927
C 33.22777 22.07727 0.01574
C 31.93483 21.318 -0.02383
C 32.01201 19.96575 -0.01429
C 33.2486 19.17871 -0.0136
C 33.22248 17.75995 0.00594
C 31.91502 17.08283 -0.02474
C 31.84007 15.61739 0.00369
C 33.10584 14.94905 0.00455
C 33.10499 13.52497 -0.00644
C 33.18392 32.00838 -0.01694
C 31.96271 32.69933 0.01713
C 29.5837 0.04715 0.00346
C 30.72888 0.7943 0.00307
C 30.6873 22.03801 0.01836
C 29.45176 21.30407 0.03531
C 29.51563 19.8602 -0.00669
C 30.74486 19.23954 0.0101
C 30.72783 17.7808 0.01705
C 29.56231 17.04001 -0.0405
C 29.51363 15.6663 -0.01303
C 30.57056 14.83939 -0.01461
C 31.95937 12.70548 -0.01839
C 30.78726 13.48198 -0.02155
C 30.71685 9.38572 -0.03735
C 29.75287 8.40956 -0.00971
C 29.50666 7.08098 0.01518
C 30.69842 6.37451 0.01908
C 30.75452 4.99339 0.07705
C 29.54465 4.30605 0.0103
C 29.44218 2.91105 0.02108
C 30.7225 2.1972 0.00716
C 30.753 10.66566 -0.00944
C 32.03217 11.36197 0.00137
C 33.25427 10.63925 0.00199
C 33.2618 9.20536 0.04381
C 1.18135 19.15292 -0.01678
C 1.1614 17.7798 0.01223
C 0.00094 16.99701 0.00648
C 34.31565 15.61838 0.02114
C 1.22889 14.88317 -0.02957
C 1.16788 13.4237 0.00343
C 34.32224 12.80267 -0.02656
C 0.03558 11.34299 -0.02442
C 34.42873 19.95546 0.01951
C 1.22804 10.70425 -0.00027
C 0.04698 8.48624 -0.02302
C 0.04521 7.04592 -0.02849
C 1.21894 6.34577 0.02931
C 1.2528 4.94634 0.00628
C 0.00934 4.23278 -0.0345
C 34.38094 2.85924 -0.00931
C 1.19149 2.07755 -0.00939
C 1.21009 0.68071 -0.00468
C 1.2341 9.21464 -0.00583
C 30.71599 23.41102 -0.03039
C 0.02458 21.3644 -0.02213
C 1.26329 23.44963 0.00723
C 31.96966 8.54152 0.02806
C 31.96874 7.14315 0.01504
C 33.21215 6.45139 -0.00069
C 33.25048 5.03223 0.04926
C 31.98941 4.26484 -0.03838
C 31.95895 2.90221 0.00349
C 33.22423 2.17469 -0.00323
C 33.23203 0.70092 -0.00841
C 1.30494 22.04749 0.02712
C 31.93602 0.05132 0.0001
C 1.25074 32.02004 -0.01404
C 1.17091 30.52348 0.01027
C 34.32244 29.79596 0.01831
C 34.32725 28.39577 -0.01037
C 1.23702 27.71192 -0.00439
C 1.14487 26.25131 -0.00598
C 34.32419 25.57959 -0.05239
C 34.42568 24.13464 0.03076
C 34.41339 32.65394 -0.02927
C 29.50423 24.11915 -0.01415
C 29.54528 25.60265 -0.01854
C 30.77385 26.32553 -0.02049
C 22.01161 32.68527 -0.02118
C 23.16452 31.88658 0.00733
C 23.3076 30.46036 -0.00178
C 23.44174 26.28313 0.00768
C 22.36702 25.52814 -0.0276
C 22.06452 24.21289 0.03005
C 23.39227 23.50229 -0.04078
C 23.32114 22.06017 0.02117
C 19.65552 33.98501 -0.01971
C 22.15934 21.21594 0.02737
C 23.33651 19.21909 0.00135
C 22.13315 2.85267 0.03102
C 23.32959 2.29312 0.02555
C 23.31617 0.73344 0.01423
C 22.07359 0.05665 -0.00285
C 24.46838 32.69998 -0.009
C 25.74264 31.97732 -0.01199
C 25.82839 30.48071 -0.00229
C 21.99591 19.62451 -0.00498
C 24.37804 29.71944 -0.00938
C 20.8864 0.77388 -0.01586
C 19.61093 2.79424 0.00071
C 17.36442 32.54807 0.01511
C 16.91368 25.46852 -0.00478
C 17.27588 24.19246 -0.01662
C 18.43043 23.4821 -0.01185
C 18.43125 21.99538 0.01126
C 17.1949 21.3946 0.01852
C 17.21511 4.1393 -0.00381
C 17.24702 2.78585 0.03046
C 20.86795 2.28627 -0.01107
C 18.47389 2.06738 0.0296
C 17.20804 34.03797 -0.02845
C 19.59237 32.65579 -0.03213
C 19.67324 23.96347 0.02239
C 20.87439 23.45782 0.01153
C 20.85264 22.01899 0.02734
C 19.62036 21.27114 -0.0055
C 19.56287 19.94514 0.01515
C 20.77962 19.27517 -0.00225
C 18.41465 0.68823 0.03374
C 3.74983 31.99165 0.03368
C 24.61326 28.39682 -0.0264
C 25.88296 26.26907 0.00684
C 28.24822 21.92753 -0.00621
C 27.00467 21.21133 0.02611
C 26.97608 19.75508 0.02198
C 28.28649 19.0833 0.01094
C 28.27462 17.67811 0.00235
C 27.10882 17.08264 0.01495
C 28.31913 4.83256 0.01259
C 27.1229 4.19365 0.01799
C 28.28083 23.44168 0.00194
C 26.97018 2.92302 0.01699
C 28.28163 0.67875 0.01177
C 27.05167 34.06095 0.04266
C 29.52031 32.71766 0.01324
C 30.81122 31.99659 0.0014
C 30.72373 30.56145 0.00924
C 29.54271 29.7899 0.02326
C 29.56941 28.4178 0.00261
C 30.76911 27.74033 0.03265
C 28.19822 2.15448 -0.00416
C 25.84103 27.64794 -0.01154
C 27.09158 24.1554 0.04185
C 28.26643 26.32047 0.01257
C 24.62576 25.64682 -0.01052
C 24.64434 24.22878 -0.01679
C 25.84187 23.48523 0.00367
C 25.80475 21.98159 0.04306
C 24.48719 21.36024 0.00996
C 24.50669 19.88996 0.00195
C 25.73737 19.12693 -0.00802
C 26.00192 17.86375 -0.00218
C 27.1437 25.55479 0.02316
C 24.63355 2.7353 -0.01654
C 25.82391 0.62853 -0.0032
C 24.57204 34.05078 0.00622
C 27.0719 32.65457 -0.02815
C 28.34792 31.89884 -0.00942
C 28.32235 30.53431 0.00487
C 27.05647 29.86865 0.00826
C 27.11913 28.45113 -0.00294
C 28.295 27.72938 0.00152
C 25.81005 2.10495 -0.00037
C 2.40539 32.68536 -0.00077
