377
Graphene
C 34.40033 34.06736 0.01295
C 15.94083 9.22196 0.03542
C 14.74789 8.52082 0.02299
C 14.76822 7.07118 0.00244
C 15.93151 6.39463 -0.01717
C 15.94563 4.9341 0.05265
C 14.66185 4.23719 -0.01952
C 14.78027 2.85248 -0.02813
C 16.02684 2.20888 0.00374
C 15.97811 0.79168 0.00052
C 14.77358 0.06376 -0.03682
C 17.19158 32.66976 0.01965
C 18.42658 31.87821 0.02058
C 18.47181 30.46117 -0.01957
C 17.18348 29.72461 -0.0108
C 17.33979 28.1647 -0.00368
C 18.38087 27.62575 -0.02696
C 18.45271 19.22722 -0.00114
C 18.43264 17.76853 0.00228
C 17.22249 17.08721 0.00798
C 16.00089 10.71942 0.01416
C 14.75081 11.35199 0.01945
C 14.70714 12.77455 -0.01454
C 15.95204 13.53723 0.01241
C 12.35304 11.47786 -0.00428
C 13.49163 10.69783 0.03101
C 13.48972 9.27358 -0.01536
C 12.2934 8.6189 -0.02689
C 12.27995 7.18167 -0.01046
C 13.51839 6.43824 -0.00891
C 13.46872 5.03198 0.02819
C 12.2638 4.30284 0.00165
C 12.26725 2.85932 -0.02971
C 17.16323 15.6349 0.00422
C 13.54402 2.12038 0.02894
C 12.24504 0.02564 0.00444
C 14.72284 32.67141 -0.00925
C 15.91938 31.9197 0.01877
C 15.93181 30.43871 0.01363
C 14.60908 29.82433 -0.02162
C 15.97402 17.77047 0.00415
C 14.75062 17.222 -0.0014
C 14.70956 15.71663 0.02162
C 15.99236 14.92718 0.0076
C 13.45903 0.73808 -0.01789
C 12.33253 12.84551 -0.02245
C 18.36711 14.81247 0.0351
C 17.28449 12.74825 0.02098
C 19.66785 16.93417 -0.01979
C 19.57457 15.60303 0.02691
C 20.87513 14.87392 -0.01581
C 20.88786 13.46895 0.01452
C 19.69274 12.74654 0.04892
C 19.6817 11.34458 -0.00111
C 20.91517 10.58707 -0.03557
C 20.95177 9.18895 0.03754
C 19.6783 8.47833 0.01739
C 19.59686 7.10104 0.00755
C 20.8763 6.35994 -0.0054
C 20.82815 4.96676 0.00667
C 19.62018 4.24059 0.00143
C 19.69397 2.79857 -0.017
C 20.90465 2.1221 0.00364
C 20.83173 0.65315 -0.00831
C 19.5973 33.96575 -0.02957
C 22.09996 32.5255 -0.04422
C 23.36183 31.84375 0.00654
C 20.90559 17.60979 0.02188
C 20.94958 19.03963 -0.00316
C 19.63878 19.69553 -0.0331
C 20.80553 21.98368 -0.0258
C 17.29261 11.34645 0.01848
C 18.4691 10.61813 -0.00619
C 18.42729 9.19302 -0.02162
C 17.16786 8.58345 0.00889
C 17.17858 7.161 -0.00481
C 18.38696 6.40036 0.00979
C 18.43963 5.05675 0.01443
C 17.152 4.28443 0.03505
C 17.2359 2.87317 -0.02815
C 18.4661 13.41423 -0.03113
C 18.4273 2.08327 -0.04147
C 17.19442 34.0715 0.00213
C 19.65824 32.53159 -0.00066
C 20.89198 31.80369 -0.00289
C 20.95669 30.44053 0.00028
C 19.73542 29.70897 -0.02213
C 19.57845 28.30761 0.03698
C 20.80973 27.60432 -0.00109
C 20.81864 26.23425 -0.00491
C 20.94934 23.15291 0.03338
C 18.39666 0.63382 -0.05302
C 13.48807 13.56539 0.00985
C 13.50852 14.95441 -0.01275
C 12.21632 15.57969 -0.01111
C 6.21927 32.05081 0.00988
C 5.00853 19.89948 0.0276
C 5.95373 19.23943 0.01305
C 6.28432 17.90256 -0.00077
C 4.94235 17.20056 0.03368
C 4.90467 15.77424 -0.02929
C 6.14141 15.04897 -0.00966
C 6.08098 13.55667 -0.03337
C 4.84531 12.90813 0.01227
C 4.89285 11.54449 0.00873
C 6.08426 10.6747 -0.00049
C 6.03039 9.2418 0.00848
C 4.86354 8.51163 -0.01303
C 4.91716 7.09733 -0.01378
C 6.17219 6.38805 0.02635
C 6.1336 5.04184 0.0127
C 4.84581 4.2484 0.01396
C 4.84172 2.8883 0.01849
C 6.10383 2.15658 -0.01142
C 4.89517 32.52544 -0.01343
C 2.33646 0.0572 0.01087
C 3.59007 0.71194 -0.05697
C 3.65347 2.10106 -0.00725
C 2.3186 25.46421 0.03267
C 2.41073 24.3184 0.02374
C 2.47778 21.31083 0.00402
C 2.40938 19.94359 0.0073
C 3.60318 19.33512 0.0174
C 3.6163 17.84866 0.03828
C 2.34594 17.15534 0.01226
C 2.34116 15.69159 -0.00279
C 3.66414 15.06114 0.01996
C 5.95922 0.72451 -0.00562
C 3.65849 13.62839 -0.03996
C 2.43343 11.41181 -0.00074
C 3.7006 10.77405 -0.00518
C 3.67749 9.32373 0.0086
C 2.33386 8.56131 -0.00643
C 2.40027 7.19944 0.017
C 3.68917 6.42693 -0.03113
C 3.62593 5.01222 -0.02566
C 2.41907 4.31554 -0.00094
C 2.41394 2.89681 0.02322
C 2.46043 12.8501 0.01465
C 4.82478 34.04183 -0.00494
C 7.23226 32.73954 0.00054
C 8.54029 17.88634 0.03007
C 11.07685 13.49482 0.00438
C 9.76449 12.81027 0.01291
C 9.80412 11.45433 0.00093
C 11.07312 10.81432 0.00057
C 10.97267 9.30963 -0.01634
C 9.75964 8.58941 -0.00334
C 9.81543 7.24628 0.02339
C 11.09356 6.49782 0.01641
C 11.13323 5.0413 -0.00719
C 10.9967 15.0418 -0.00191
C 9.83615 4.37427 0.01364
C 11.08645 2.17221 -0.00033
C 11.08557 0.80955 0.03589
C 9.72466 0.19566 -0.02759
C 12.22692 32.53988 0.0402
C 13.39195 31.90987 0.00572
C 13.69754 30.4629 0.03592
C 13.20983 19.19665 0.00406
C 13.49451 17.80041 0.00943
C 12.21066 17.06009 0.02841
C 9.9039 3.01768 -0.01062
C 23.32397 30.37243 -0.00703
C 9.82551 15.78984 0.00373
C 11.10022 17.92121 -0.014
C 7.41464 17.1502 -0.00095
C 7.33867 15.70249 0.01572
C 8.5989 14.9741 -0.04848
C 8.61862 13.546 -0.00892
C 7.32873 12.88909 -0.01362
C 7.30061 11.45741 -0.0008
C 8.55051 10.76865 0.0288
C 8.41297 9.35373 0.00393
C 7.28666 8.6122 0.00895
C 9.79919 17.34293 0.02147
C 7.3094 7.15743 0.00685
C 8.5875 5.12938 -0.00482
C 7.38227 4.37014 -0.01384
C 7.38089 2.92703 0.03693
C 8.57387 2.23402 0.01745
C 8.41 0.90373 0.00488
C 7.262 0.0409 -0.01004
C 9.9399 32.87604 -0.02896
C 10.93217 31.98487 -0.00131
C 11.60921 19.27718 -0.01118
C 8.55246 6.48748 0.02888
C 3.60974 31.95674 -0.01509
C 22.13536 29.69631 -0.04076
C 23.42642 27.56811 0.0058
C 30.69489 2.09648 0.00716
C 30.66409 0.65189 0.00307
C 29.40463 0.05404 0.00346
C 31.86132 32.64138 0.01713
C 33.17728 31.9957 -0.01694
C 33.12178 30.5746 0.01428
C 31.88348 29.86877 -0.02142
C 32.04666 28.43154 0.0544
C 33.255 27.74373 0.00026
C 33.13515 26.30842 0.00682
C 31.95847 25.56833 -0.01779
C 31.95367 24.20444 0.03794
C 33.151 23.46304 0.01927
C 33.18743 22.02596 0.01574
C 31.96534 21.30297 -0.02383
C 31.85493 19.96768 -0.01429
C 33.09274 19.25276 -0.0136
C 33.07999 17.83976 0.00594
C 31.92178 17.19066 -0.02474
C 29.43585 2.90856 0.02108
C 29.50285 4.31736 0.0103
C 30.69181 5.0314 0.07705
C 30.7171 6.38493 0.01908
C 30.78608 27.70829 0.02326
C 30.73894 26.29201 0.00261
C 29.49993 25.60979 0.03265
C 29.44875 24.1006 -0.02049
C 30.66552 23.48747 -0.01854
C 30.65906 22.04639 -0.01415
C 29.46286 21.32472 -0.03039
C 29.40711 19.86477 0.01836
C 30.60331 19.22551 0.03531
C 31.96663 15.72265 0.00369
C 30.72462 17.80841 -0.00669
C 29.52211 15.55157 0.01705
C 30.81286 14.95765 -0.0405
C 30.68696 13.52551 -0.01303
C 29.50498 12.77744 -0.01461
C 29.49977 11.38812 -0.02155
C 30.66465 10.65215 -0.00944
C 30.72343 9.34463 -0.03735
C 29.5294 8.55024 -0.00971
C 29.5264 7.13812 0.01518
C 29.53194 17.03313 0.0101
C 29.43584 28.41223 0.00924
C 33.1321 14.938 0.00455
C 31.86797 12.83631 -0.01839
C 34.34168 19.95016 0.01951
C 1.14985 19.27414 -0.01678
C 1.05377 17.90623 0.01223
C 34.32164 17.07078 0.00648
C 34.37591 15.61591 0.02114
C 1.19849 14.96958 -0.02957
C 1.23571 13.60689 0.00343
C 34.42414 12.77217 -0.02656
C 34.35694 11.44259 -0.02442
C 1.19921 10.79613 -0.00027
C 1.16862 9.3221 -0.00583
C 34.39593 8.53647 -0.02302
C 34.36365 7.12475 -0.02849
C 1.1568 6.39863 0.02931
C 1.23043 4.96339 0.00628
C 34.3768 4.29325 -0.0345
C 34.36051 2.87951 -0.00931
C 1.2001 2.21951 -0.00939
C 1.21941 0.71686 -0.00468
C 34.42763 21.32779 -0.02213
C 1.17711 22.10935 0.02712
C 1.16839 23.47834 0.00723
C 34.3883 24.21427 0.03076
C 31.88324 11.37294 0.00137
C 33.11939 10.66403 0.00199
C 33.16794 9.25567 0.04381
C 31.96254 8.50054 0.02806
C 31.91864 7.13767 0.01504
C 33.12543 6.4316 -0.00069
C 33.15146 5.07942 0.04926
C 31.8776 4.31195 -0.03838
C 31.93612 2.85397 0.00349
C 33.17052 13.46753 -0.00644
C 33.14323 2.19894 -0.00323
C 31.92723 0.07418 0.0001
C 34.38964 32.66495 -0.02927
C 1.15233 31.98211 -0.01404
C 1.14875 30.59678 0.01027
C 34.39476 29.83508 0.01831
C 0.09035 28.46063 -0.01037
C 1.35328 27.92204 -0.00439
C 1.26277 26.44028 -0.00598
C 34.41244 25.67438 -0.05239
C 33.19408 0.80713 -0.00841
C 29.42793 29.81743 0.0014
C 30.64464 30.56422 0.01324
C 30.66448 31.90136 0.04266
C 23.29176 0.67258 -0.02845
C 22.07548 33.97049 -0.03213
C 24.51836 32.65176 0.02239
C 25.74547 31.84917 0.01153
C 25.72734 30.43077 0.02734
C 24.58409 29.68253 -0.0055
C 24.61598 28.27053 0.01515
C 25.77976 27.54962 -0.00225
C 25.6996 26.14345 0.00071
C 24.55887 25.40936 -0.01107
C 24.49781 24.02507 -0.01586
C 25.74305 23.37146 -0.01971
C 25.76404 21.88775 -0.02118
C 24.49487 21.23679 0.00733
C 24.55314 19.75284 -0.00178
C 25.7598 19.14928 0.00768
C 25.82453 17.69844 -0.0276
C 24.59809 17.00056 0.03005
C 24.52292 15.58163 -0.04078
C 23.25644 2.10494 0.03374
C 22.09136 2.81524 0.0296
C 22.14677 4.22036 0.03046
C 23.39306 4.96767 -0.00381
C 23.40754 26.18177 -0.00865
C 22.03966 25.48611 0.00675
C 22.02222 24.04168 -0.00311
C 23.25793 23.36266 0.00742
C 23.28155 21.91707 -0.01594
C 22.03599 21.17034 0.0106
C 22.16533 19.80038 -0.01154
C 23.36472 19.08118 -0.01721
C 23.35571 17.66587 -0.02422
C 25.75854 14.87117 0.02117
C 22.15439 17.00494 0.01277
C 23.29822 14.97986 -0.01527
C 23.31015 13.52347 0.01087
C 22.11685 12.76786 0.00199
C 22.14875 11.33978 0.01511
C 23.35887 10.62833 -0.00478
C 23.36619 9.16087 -0.01662
C 22.17969 8.47273 -0.01185
C 22.10958 7.0032 0.01126
C 23.33581 6.36636 0.01852
C 22.02708 15.56014 0.00096
C 25.79014 13.41133 0.02737
C 24.52431 12.77516 -0.00498
C 24.54672 11.4118 0.00135
C 28.17621 19.13272 -0.00942
C 28.19166 17.65304 0.00487
C 26.99389 16.94527 0.00826
C 27.02863 15.54194 -0.00294
C 28.30803 14.81669 0.00152
C 28.33836 13.44713 0.01257
C 27.04168 12.73957 0.02316
C 27.04352 11.34668 0.04185
C 28.25445 10.62474 0.00194
C 26.97986 19.94102 -0.02815
C 28.31669 9.22524 -0.00621
C 27.01675 7.11401 0.02198
C 28.29309 6.38726 0.01094
C 28.28591 5.00002 0.00235
C 26.99612 4.23066 0.01495
C 26.9567 2.81008 0.01259
C 28.2005 2.12083 0.01799
C 28.16082 0.69868 0.01699
C 26.99761 34.07325 -0.00416
C 29.43579 32.75476 0.01177
C 27.09985 8.54002 0.02611
C 22.16425 28.22262 -0.00652
C 26.96803 21.33859 0.00622
C 28.19186 23.36313 -0.00037
C 25.78719 10.70708 0.03102
C 25.77953 9.22072 0.02555
C 24.58771 8.47298 0.01423
C 24.57655 7.09565 -0.00285
C 25.84755 6.42912 -0.009
C 25.75745 4.92159 -0.01199
C 24.50012 4.23795 -0.00229
C 24.51797 2.78473 -0.00938
C 25.72613 2.11777 -0.0264
C 28.22647 21.9861 -0.0032
C 25.72546 0.70207 -0.01154
C 26.92963 32.63312 -0.01052
C 28.28052 31.96756 -0.01679
C 28.15172 30.466 0.00367
C 27.00502 29.80971 0.04306
C 27.02136 28.38472 0.00996
C 28.21564 27.68406 0.00195
C 28.23235 26.23585 -0.00802
C 26.98127 25.54048 -0.00218
C 26.96794 24.16143 -0.01654
C 24.45462 33.98393 0.00684
C 2.35846 32.6964 0.00643
