362
Graphene
C 0.03424 0.06807 0.01295
C 9.77297 11.24352 0.01965
C 11.13108 10.70617 0.02058
C 11.11445 9.25407 -0.01957
C 9.88675 8.54107 -0.0108
C 9.85641 7.09866 -0.00368
C 11.03759 6.37464 -0.02696
C 10.97853 4.95036 -0.00114
C 9.77318 4.16532 0.00228
C 9.74679 12.64204 -0.03682
C 9.8398 2.79896 0.00798
C 11.07381 0.68957 0.0351
C 9.86369 0.06177 -0.03113
C 12.35946 32.65996 0.02098
C 13.56075 32.00796 0.01848
C 13.46583 30.54018 -0.00619
C 12.30706 29.77699 -0.02162
C 12.31986 28.38227 0.00889
C 13.59856 27.60589 -0.00481
C 11.12044 2.07843 0.00422
C 11.01408 13.46034 0.00052
C 11.08979 14.92639 0.00374
C 9.83535 15.59337 -0.02813
C 8.59348 2.17857 0.00444
C 8.59734 0.78354 -0.00925
C 7.35434 0.04769 0.01877
C 9.88507 32.68249 0.01363
C 11.14195 31.97187 -0.02162
C 11.11987 30.52357 0.00415
C 9.82763 29.8259 -0.0014
C 9.8346 28.40207 0.02162
C 11.07443 27.74364 0.0076
C 11.08072 26.31603 0.01241
C 9.82455 25.67285 -0.01454
C 9.82149 24.16497 0.01945
C 11.09693 23.41117 0.01416
C 11.10962 22.03289 0.03542
C 9.87081 21.29785 0.02299
C 9.90188 19.90524 0.00244
C 11.17198 19.04984 -0.01717
C 11.00148 17.64079 0.05265
C 9.86964 17.029 -0.01952
C 13.45795 26.31441 0.00979
C 7.34862 2.84341 -0.01789
C 12.29531 25.5061 0.01443
C 13.51329 23.41332 -0.02815
C 14.73611 11.38674 0.01739
C 15.88639 10.77005 0.00755
C 16.02942 9.34153 -0.0054
C 14.73559 8.45894 0.00667
C 14.74434 7.0683 0.00143
C 16.01694 6.40849 -0.017
C 15.97667 4.9418 0.00364
C 14.73877 4.25108 -0.00831
C 14.68362 28.48843 0.03754
C 14.72877 2.83115 -0.02957
C 16.00836 0.69472 0.00654
C 14.79534 0.05555 -0.00703
C 17.18997 32.67405 -0.04076
C 18.36523 31.87839 -0.00652
C 18.38233 30.4838 0.0058
C 17.13713 29.77551 -0.00865
C 17.29021 28.33828 0.00675
C 18.34205 27.7073 -0.00311
C 15.98206 2.14324 -0.04422
C 14.69061 29.8477 -0.03557
C 15.91056 30.55056 -0.00111
C 15.99068 31.97654 0.04892
C 13.3099 22.19256 -0.04147
C 12.3727 21.23607 -0.05302
C 12.22262 19.96046 0.00213
C 12.3123 15.50575 -0.00066
C 13.54534 13.51168 -0.00289
C 12.30151 12.8664 0.00028
C 12.3276 11.39532 -0.02213
C 13.5518 10.68923 0.03698
C 13.53926 9.24901 -0.00109
C 12.27916 8.5105 -0.00491
C 12.3213 7.04305 0.03338
C 13.50457 6.36299 -0.0258
C 13.51081 4.99434 -0.0331
C 12.26515 4.25524 -0.00316
C 12.26438 2.86473 0.02188
C 13.47056 2.16498 -0.01979
C 13.49844 0.66608 0.02691
C 12.31362 34.03339 -0.01581
C 14.7878 32.67232 0.01452
C 12.37691 24.16688 0.03505
C 7.32803 4.26558 0.02894
C 8.53967 4.92156 -0.02971
C 8.59033 6.36712 0.00165
C 3.65757 6.46031 0.02635
C 3.63205 4.98539 0.0127
C 2.41109 4.30628 0.01396
C 2.51755 2.87598 0.01849
C 3.72962 2.13962 -0.01142
C 3.69454 0.7474 -0.00562
C 2.47547 0.02823 -0.00494
C 4.92298 32.68787 0.00054
C 2.47738 7.17042 -0.01378
C 6.15568 31.97272 0.03007
C 4.86472 29.85434 0.01572
C 4.93491 28.47268 -0.04848
C 6.10061 27.76127 -0.00892
C 6.14888 26.30655 -0.01362
C 4.91907 25.53981 -0.0008
C 4.87721 24.16186 0.0288
C 6.11086 23.41761 0.00393
C 6.17659 22.03531 0.00895
C 6.08859 30.52783 -0.00095
C 2.40733 8.62476 -0.01303
C 3.69397 9.30505 0.00848
C 3.70257 10.71336 -0.00049
C 3.61341 30.56328 0.017
C 2.37493 29.81147 -0.03113
C 2.49509 28.36369 -0.02566
C 3.72179 27.67369 -0.00094
C 3.73466 26.31464 0.02322
C 2.47442 25.5448 -0.00725
C 2.4617 24.12488 -0.05697
C 3.67439 23.45636 0.01087
C 3.66137 22.05214 -0.01343
C 2.45497 21.34781 0.00988
C 2.5019 19.89813 0.0276
C 3.71164 19.14004 0.01305
C 3.69619 17.7202 -0.00077
C 2.47779 17.00992 0.03368
C 2.39924 15.64481 -0.02929
C 3.66594 14.93581 -0.00966
C 3.62564 13.51167 -0.03337
C 2.44423 12.80468 0.01227
C 2.42156 11.38236 0.00873
C 4.94268 21.32827 0.00685
C 4.93487 19.88889 0.02888
C 6.18907 19.16642 -0.00482
C 6.22131 17.77518 -0.01384
C 8.57518 26.26214 0.03589
C 7.34389 25.56303 -0.02759
C 7.35967 24.13259 0.0402
C 8.61061 23.44392 0.00572
C 8.68492 21.96314 0.03592
C 7.42382 21.32309 0.00406
C 7.41613 19.93946 0.00943
C 8.67714 19.22762 0.02841
C 8.64963 17.82898 -0.01111
C 7.41094 17.02429 -0.01275
C 7.44563 15.64933 0.00985
C 8.63861 14.83384 -0.02245
C 8.56798 13.34551 -0.00428
C 7.28707 12.75135 0.03101
C 7.36747 11.37035 -0.01536
C 8.57152 10.61064 -0.02689
C 8.59073 9.16397 -0.01046
C 7.33981 8.57462 -0.00891
C 7.34018 7.16148 0.02819
C 8.63325 27.70122 -0.00033
C 17.09388 8.56529 0.00742
C 7.34396 28.37204 -0.01062
C 8.57133 30.58034 -0.00719
C 4.93551 17.04104 0.03693
C 4.92182 15.62696 0.01745
C 6.21705 14.95536 0.00488
C 6.13415 13.54449 -0.01004
C 4.86846 12.82946 -0.02896
C 4.89825 11.39849 -0.00131
C 6.11898 10.72045 -0.01118
C 6.19541 9.30972 -0.014
C 4.93718 8.62877 0.02147
C 4.87824 7.1911 0.00373
C 6.10018 6.45906 -0.00191
C 6.0617 5.04845 0.00438
C 4.90596 4.29942 0.01291
C 4.91842 2.88041 0.00093
C 6.15925 2.1441 0.00057
C 6.14 0.72292 -0.01634
C 4.92027 0.00307 -0.00334
C 7.37119 32.67525 0.02339
C 8.62168 32.00211 0.01641
C 7.37972 29.83085 0.01364
C 17.29475 7.24142 -0.01594
C 18.40265 6.28619 0.0106
C 18.44145 4.90112 -0.01154
C 29.43204 0.05191 0.00346
C 31.98179 32.72364 0.01713
C 33.19735 31.99755 -0.01694
C 33.15144 30.5659 0.01428
C 31.93154 29.84978 -0.02142
C 31.94116 28.4367 0.0544
C 33.19795 27.73408 0.00026
C 33.13658 26.3481 0.00682
C 30.65358 0.74199 0.00307
C 31.91521 25.635 -0.01779
C 33.21535 23.49129 0.01927
C 33.18321 22.00658 0.01574
C 31.96509 21.31192 -0.02383
C 31.98138 19.894 -0.01429
C 33.19994 19.13363 -0.0136
C 33.25682 17.70432 0.00594
C 31.98452 17.03862 -0.02474
C 31.97524 15.68391 0.00369
C 31.98607 24.15774 0.03794
C 30.69032 2.13526 0.00716
C 29.47978 2.79263 0.02108
C 29.52379 4.23152 0.0103
C 29.44376 24.21176 -0.02049
C 30.74984 23.45379 -0.01854
C 30.78002 22.01382 -0.01415
C 29.5068 21.2706 -0.03039
C 29.5068 19.88895 0.01836
C 30.76353 19.20884 0.03531
C 30.70483 17.78479 -0.00669
C 29.47688 17.0321 0.0101
C 29.51989 15.63049 0.01705
C 30.74749 14.95619 -0.0405
C 30.72818 13.55432 -0.01303
C 29.54782 12.71615 -0.01461
C 29.53087 11.30888 -0.02155
C 30.75691 10.67908 -0.00944
C 30.73146 9.18229 -0.03735
C 29.54304 8.51113 -0.00971
C 29.54717 7.08088 0.01518
C 30.77757 6.31577 0.01908
C 30.71634 4.90533 0.07705
C 33.18479 14.86948 0.00455
C 33.1276 13.46914 -0.00644
C 31.95746 12.78567 -0.01839
C 31.96484 11.40583 0.00137
C 0.02376 19.79725 0.01951
C 1.26595 19.15453 -0.01678
C 1.27043 17.74263 0.01223
C 0.03162 17.01335 0.00648
C 0.0413 15.54903 0.02114
C 1.26094 14.87347 -0.02957
C 1.17961 13.47014 0.00343
C 34.38672 12.76739 -0.02656
C 34.38798 11.2916 -0.02442
C 1.23673 10.67966 -0.00027
C 1.18211 9.34067 -0.00583
C 34.40431 8.56121 -0.02302
C 34.41816 7.13691 -0.02849
C 1.24953 6.49981 0.02931
C 1.20963 5.02539 0.00628
C 34.37595 4.2939 -0.0345
C 0.01784 2.81827 -0.00931
C 1.29103 2.16394 -0.00939
C 1.25374 0.77865 -0.00468
C 34.42453 21.24951 -0.02213
C 29.42794 25.61623 0.03265
C 1.20132 22.01916 0.02712
C 0.00148 24.23059 0.03076
C 33.14186 10.6069 0.00199
C 33.16464 9.17369 0.04381
C 31.90616 8.52203 0.02806
C 31.98279 7.07331 0.01504
C 33.19682 6.35309 -0.00069
C 33.1238 4.92468 0.04926
C 31.90712 4.203 -0.03838
C 31.93123 2.74609 0.00349
C 33.19443 2.1601 -0.00323
C 33.20782 0.73362 -0.00841
C 31.90523 0.0445 0.0001
C 0.05557 32.72729 -0.02927
C 1.22597 31.90289 -0.01404
C 1.14611 30.52654 0.01027
C 34.40329 29.80186 0.01831
C 0.03435 28.35953 -0.01037
C 1.29311 27.67197 -0.00439
C 1.25545 26.21462 -0.00598
C 34.38326 25.62755 -0.05239
C 1.20915 23.48495 0.00723
C 3.68766 32.01953 -0.00643
C 30.70458 26.29882 0.00261
C 29.44544 28.41876 0.00924
C 23.32132 27.665 0.01515
C 23.34156 26.25201 -0.00225
C 22.01027 25.7665 0.00071
C 23.38955 4.85739 -0.01107
C 22.06253 4.38496 -0.01586
C 22.11198 2.83207 -0.01971
C 23.37294 2.19683 -0.02118
C 23.34287 0.67009 0.00733
C 22.12972 28.38219 -0.0055
C 22.13497 34.02092 -0.00178
C 25.89292 31.9644 -0.0276
C 25.82156 30.54493 0.03005
C 24.57649 29.80892 -0.04078
C 24.57142 28.36028 0.02117
C 25.73289 27.65696 0.02737
C 25.76294 26.23169 -0.00498
C 24.57474 25.48793 0.00135
C 24.67546 24.17864 0.03102
C 24.63849 32.64053 0.00768
C 22.13631 29.79231 0.02734
C 23.30377 30.49465 0.01153
C 23.34648 31.85736 0.02239
C 17.19592 4.22676 -0.01721
C 17.23945 2.82195 -0.02422
C 18.4448 2.09706 0.01277
C 18.53313 0.71019 0.00096
C 17.26591 0.0101 -0.01527
C 19.62124 32.64612 0.01087
C 20.81692 31.87831 0.00199
C 20.88982 30.45728 0.01511
C 19.64951 29.72518 -0.00478
C 19.67019 28.31567 -0.01662
C 20.88776 27.63152 -0.01185
C 20.92761 26.21809 0.01126
C 20.81605 4.82913 0.01852
C 19.62352 4.1669 -0.00381
C 19.70707 2.74014 0.03046
C 20.91887 2.04568 0.0296
C 20.92304 0.65636 0.03374
C 19.70692 34.03591 -0.02845
C 22.07636 32.57893 -0.03213
C 25.75292 23.31316 0.02555
C 25.79401 21.90811 0.01423
C 25.83233 13.59968 -0.00285
C 25.97596 6.33903 -0.009
C 28.30445 14.85089 0.00152
C 28.30353 13.38215 0.01257
C 26.95985 12.75429 0.02316
C 27.1156 11.32888 0.04185
C 28.29672 10.63559 0.00194
C 28.29212 9.18466 -0.00621
C 27.09751 8.54734 0.02611
C 26.99806 7.1859 0.02198
C 28.3093 6.40911 0.01094
C 28.32765 4.9992 0.00235
C 27.16125 4.30982 0.01495
C 27.07106 2.84779 0.01259
C 28.27469 2.13877 0.01799
C 28.25386 0.73523 0.01699
C 27.08006 0.04744 -0.00416
C 29.51407 32.72813 0.01177
C 30.65937 32.02098 0.04266
C 30.72035 30.55347 0.01324
C 29.4975 29.83028 0.0014
C 27.08991 15.70601 -0.00294
C 30.67438 27.72282 0.02326
C 27.01874 16.94386 0.00826
C 28.23164 19.18053 -0.00942
C 25.84422 5.01236 -0.01199
C 24.65939 4.26715 -0.00229
C 24.55364 2.84376 -0.00938
C 25.854 2.1065 -0.0264
C 25.79812 0.67345 -0.01154
C 24.59241 34.07523 0.00684
C 27.13517 32.77495 -0.01052
C 28.31188 31.96635 -0.01679
C 28.28371 30.53085 0.00367
C 27.0169 29.83128 0.04306
C 26.97534 28.44201 0.00996
C 28.16068 27.71343 0.00195
C 28.18505 26.28648 -0.00802
C 27.00394 25.48274 -0.00218
C 27.00542 24.09659 -0.01654
C 28.22002 23.37517 -0.00037
C 28.26849 21.91744 -0.0032
C 26.95428 21.19667 0.00622
C 27.02673 19.81079 -0.02815
C 28.22138 17.7474 0.00487
C 2.395 32.66333 0.0086
