342
Graphene
C 34.40048 0.05838 0.01295
C 9.71158 8.58634 0.01848
C 9.81139 7.11156 -0.00619
C 11.01232 6.41863 -0.02162
C 10.96474 4.96917 0.00889
C 9.75768 4.27545 -0.00481
C 9.78055 2.91321 0.00979
C 10.99287 2.20706 0.01443
C 11.07894 0.78738 0.03505
C 9.84164 0.07998 -0.02815
C 12.35436 32.74469 -0.04147
C 13.60083 31.98023 -0.05302
C 13.54893 30.6333 0.00213
C 12.31765 29.9576 -0.00066
C 12.59217 28.48523 -0.00289
C 13.82706 28.07055 0.00028
C 12.30564 25.53571 -0.02213
C 12.33517 24.21415 0.03698
C 10.8212 9.38436 0.02098
C 12.45448 20.71437 -0.00109
C 10.83408 18.99207 -0.03113
C 9.95115 21.1831 0.00422
C 8.5289 5.0381 0.00244
C 7.30308 4.27599 -0.01717
C 7.35509 2.87318 0.05265
C 8.63512 2.1787 -0.01952
C 8.65235 0.76019 -0.02813
C 7.39674 0.12692 0.00374
C 9.87214 32.80247 0.00052
C 11.07817 32.04149 -0.03682
C 11.03174 30.5788 0.01965
C 9.8337 29.81867 0.02058
C 9.94734 28.38678 -0.01957
C 11.21077 27.83561 -0.0108
C 11.11807 26.33187 -0.00368
C 9.8856 25.53223 -0.02696
C 9.94536 24.03493 -0.00114
C 11.26367 23.31883 0.00228
C 11.36165 21.79714 0.00798
C 9.7637 19.78041 0.0351
C 12.11582 19.37083 -0.00491
C 13.4523 19.42383 0.03338
C 13.53268 9.27523 -0.0258
C 14.74749 4.31477 -0.00703
C 14.64835 2.86133 -0.04076
C 15.91812 2.16977 -0.00652
C 15.88976 0.72494 0.0058
C 14.74871 34.07459 -0.00865
C 17.26259 32.68413 0.00675
C 18.53445 31.95989 -0.00311
C 17.13323 15.48244 0.00742
C 18.32942 15.04491 -0.01594
C 18.26483 13.53666 0.0106
C 17.11359 12.67817 -0.01154
C 17.0411 11.25712 -0.01721
C 18.43826 10.6438 -0.02422
C 18.38797 9.22012 0.01277
C 17.18874 8.49515 0.00096
C 17.20442 7.05529 -0.01527
C 18.38698 6.38518 0.01087
C 15.96478 4.97086 0.00654
C 15.97555 6.36774 -0.04422
C 14.73077 7.07242 -0.02957
C 14.69229 8.4827 -0.00831
C 12.22683 8.71579 -0.0331
C 12.24249 7.2423 -0.00316
C 13.449 6.45962 0.02188
C 13.39108 5.05627 -0.01979
C 12.21846 4.28956 0.02691
C 12.26193 2.91228 -0.01581
C 13.48627 2.07989 0.01452
C 13.53869 0.69851 0.04892
C 8.48337 6.48694 0.02299
C 12.32413 0.04608 -0.00111
C 16.01542 31.96719 0.03754
C 15.78948 30.46841 0.01739
C 14.76755 29.7552 0.00755
C 16.18774 17.09035 -0.0054
C 15.88118 14.80853 0.00667
C 15.88911 13.46803 0.00143
C 15.85515 10.56589 -0.017
C 15.90571 9.14374 0.00364
C 14.82917 32.71185 -0.03557
C 7.24814 7.16936 0.03542
C 7.22932 8.61814 0.01416
C 8.55055 9.23519 0.01945
C 2.40413 7.132 0.02888
C 3.64726 6.42198 -0.00482
C 3.67076 5.02146 -0.01384
C 2.40578 4.32064 0.03693
C 2.47347 2.94804 0.01745
C 3.6485 2.1524 0.00488
C 3.6273 0.70267 -0.01004
C 2.41431 0.04351 -0.02896
C 4.93666 32.66931 -0.00131
C 6.20185 32.07223 -0.01118
C 6.18241 30.58493 -0.014
C 4.93531 29.85477 0.02147
C 4.8841 28.47637 0.00373
C 6.18991 27.74111 -0.00191
C 6.11243 26.3038 0.00438
C 4.95533 25.59641 0.01291
C 4.93286 24.15821 0.00093
C 2.4189 8.56483 0.00685
C 3.66181 9.26367 0.00895
C 3.71681 10.70106 0.00393
C 2.41621 11.43922 0.0288
C 3.605 30.5252 0.00848
C 2.36841 29.81413 -0.01303
C 2.41475 28.39854 -0.01378
C 3.65191 27.69906 0.02635
C 3.66033 26.2599 0.0127
C 2.42732 25.54971 0.01396
C 2.46236 24.14169 0.01849
C 3.663 23.42449 -0.01142
C 6.26424 23.47497 0.00057
C 3.72505 21.98666 -0.00562
C 2.44111 19.91327 0.00054
C 3.66254 19.12492 0.03007
C 3.69024 17.74525 -0.00095
C 2.41883 17.02124 0.01572
C 2.37376 15.5831 -0.04848
C 3.60289 14.87163 -0.00892
C 3.64365 13.43854 -0.01362
C 2.41579 12.75037 -0.0008
C 2.38228 21.32598 -0.00494
C 18.37255 5.01466 0.00199
C 6.20008 22.02226 -0.01634
C 4.96415 19.81638 0.02339
C 7.34952 29.7938 -0.00891
C 7.41404 28.39057 0.02819
C 8.69976 27.67722 0.00165
C 8.6723 26.2672 -0.02971
C 7.3782 25.61325 0.02894
C 7.49565 24.14486 -0.01789
C 8.72852 23.4055 0.00444
C 8.64798 21.9978 -0.00925
C 7.39643 21.30399 0.01877
C 7.38593 19.88696 0.01363
C 8.59614 19.12905 -0.02162
C 8.67095 17.78342 0.00415
C 7.5036 16.91801 -0.0014
C 7.34008 15.52246 0.02162
C 7.37424 13.0209 0.0076
C 7.50829 11.57321 0.01241
C 8.63943 10.69899 -0.01454
C 8.62654 30.52391 -0.01046
C 8.63964 32.02543 -0.02689
C 7.41342 32.77719 -0.01536
C 4.86643 0.02752 0.03101
C 6.18641 19.07602 0.01641
C 6.22275 17.6322 -0.00719
C 4.95237 17.05344 0.01364
C 4.80997 15.61032 -0.01062
C 6.09802 14.90324 -0.00033
C 6.04768 13.48164 0.03589
C 4.83526 12.68557 -0.02759
C 4.95241 11.3804 0.0402
C 4.92177 21.26466 -0.00334
C 6.2181 10.76633 0.00572
C 4.89752 8.61145 0.00406
C 4.84969 7.1898 0.00943
C 6.01259 6.42776 0.02841
C 6.12484 5.02153 -0.01111
C 4.90006 4.28169 -0.01275
C 4.9338 2.87015 0.00985
C 6.17557 2.20323 -0.02245
C 6.17085 0.77661 -0.00428
C 6.11723 9.3493 0.03592
C 17.2339 4.23658 0.01511
C 17.18703 2.84102 -0.00478
C 18.42116 2.08446 -0.01662
C 31.93928 29.80622 -0.02142
C 31.93325 28.35135 0.0544
C 33.14029 27.57019 0.00026
C 33.10265 26.2332 0.00682
C 31.87332 25.56131 -0.01779
C 31.97467 24.09298 0.03794
C 33.18848 23.4012 0.01927
C 33.23112 22.00139 0.01574
C 32.07414 21.26904 -0.02383
C 31.94736 19.88047 -0.01429
C 33.14888 19.14843 -0.0136
C 33.18126 17.77076 0.00594
C 31.88437 17.07828 -0.02474
C 31.94934 15.68687 0.00369
C 33.15293 14.97905 0.00455
C 33.1758 13.59119 -0.00644
C 31.97003 12.86379 -0.01839
C 33.16041 30.53119 0.01428
C 33.05349 31.90574 -0.01694
C 31.88804 32.57819 0.01713
C 29.38919 34.06464 0.00346
C 30.71301 19.23655 0.03531
C 30.60457 17.8861 -0.00669
C 29.38943 17.09258 0.0101
C 29.43039 15.70218 0.01705
C 30.62436 14.96982 -0.0405
C 30.68625 13.57562 -0.01303
C 29.5012 12.78178 -0.01461
C 29.48199 11.38199 -0.02155
C 31.92948 11.43868 0.00137
C 30.67945 10.74625 -0.00944
C 29.47329 8.5422 -0.00971
C 29.51414 7.12521 0.01518
C 30.76941 6.35931 0.01908
C 30.72949 4.93271 0.07705
C 29.55617 4.27738 0.0103
C 29.50872 2.81821 0.02108
C 30.71878 2.12647 0.00716
C 30.69065 0.68537 0.00307
C 30.70428 9.22328 -0.03735
C 29.41539 19.97285 0.01836
C 33.16033 10.64055 0.00199
C 31.92166 8.5609 0.02806
C 1.19824 17.76912 0.01223
C 0.00905 17.045 0.00648
C 34.40009 15.63738 0.02114
C 1.13596 14.94544 -0.02957
C 1.1787 13.53556 0.00343
C 0.00274 12.82947 -0.02656
C 34.36499 11.3804 -0.02442
C 1.22302 10.6906 -0.00027
C 1.16319 9.31564 -0.00583
C 34.42888 8.57138 -0.02302
C 34.41683 7.13403 -0.02849
C 1.20551 6.42604 0.02931
C 1.25095 4.96775 0.00628
C 0.00675 4.30642 -0.0345
C 34.41582 2.86777 -0.00931
C 1.20763 2.16145 -0.00939
C 1.19615 0.75064 -0.00468
C 1.20692 19.21185 -0.01678
C 34.38848 19.88493 0.01951
C 0.02101 21.30298 -0.02213
C 1.21551 22.04747 0.02712
C 32.03542 7.08242 0.01504
C 33.22452 6.39219 -0.00069
C 33.1845 4.97921 0.04926
C 31.93698 4.25552 -0.03838
C 31.92553 2.79874 0.00349
C 33.17227 2.14638 -0.00323
C 33.14379 0.72203 -0.00841
C 31.92306 33.99639 0.0001
C 33.17426 9.20203 0.04381
C 34.32363 32.69695 -0.02927
C 1.16054 30.57468 0.01027
C 34.38858 29.82657 0.01831
C 34.35286 28.39435 -0.01037
C 1.16663 27.81192 -0.00439
C 1.18907 26.271 -0.00598
C 34.36638 25.56546 -0.05239
C 34.41946 24.19467 0.03076
C 1.24157 23.49662 0.00723
C 1.18095 32.01858 -0.01404
C 3.66403 31.94262 -0.00049
C 29.40782 21.43024 -0.03039
C 30.7042 23.43124 -0.01854
C 23.41539 14.99317 0.00768
C 23.32503 13.57551 -0.0276
C 22.07179 12.88112 0.03005
C 22.1243 11.34843 -0.04078
C 23.38128 10.65819 0.02117
C 23.32167 9.25074 0.02737
C 22.08005 8.53159 -0.00498
C 22.02531 7.08109 0.00135
C 23.30652 6.35554 0.03102
C 23.3498 4.91635 0.02555
C 22.13363 4.21403 0.01423
C 22.11559 2.81916 -0.00285
C 23.31702 2.01429 -0.009
C 23.25238 0.64376 -0.01199
C 22.08199 34.07349 -0.00229
C 24.58037 32.59671 -0.00938
C 24.79727 15.64478 -0.0264
C 22.08654 15.57014 -0.00178
C 23.276 32.31141 0.00733
C 21.95058 32.61188 -0.02118
C 19.71951 0.01194 -0.01971
C 18.46305 0.68027 -0.01185
C 17.21412 0.01424 0.01126
C 19.5809 32.66002 0.01852
C 19.51106 15.68603 -0.00381
C 20.80969 15.05952 0.03046
C 20.85805 13.65871 0.0296
C 19.52632 12.96578 0.03374
C 19.54349 11.49346 -0.02845
C 25.8481 14.84779 -0.01154
C 20.83754 10.68998 -0.03213
C 19.66563 8.55448 0.01153
C 19.62703 7.09994 0.02734
C 20.84716 6.35016 -0.0055
C 20.92204 4.94862 0.01515
C 19.6841 4.2924 -0.00225
C 19.63732 2.80639 0.00071
C 20.87497 2.16126 -0.01107
C 20.87586 0.78331 -0.01586
C 20.87475 9.20823 0.02239
C 30.82338 21.95748 -0.01415
C 25.81755 13.41946 0.00684
C 24.52776 11.34386 -0.01679
C 28.29014 9.22588 0.02198
C 27.02922 8.53312 0.01094
C 27.0283 7.0929 0.00235
C 28.27633 6.41438 0.01495
C 28.30935 4.95723 0.01259
C 27.04801 4.23502 0.01799
C 27.11017 2.81379 0.01699
C 28.30505 2.09673 -0.00416
C 28.20414 0.66902 0.01177
C 26.85507 0.02491 0.04266
C 29.46518 32.66306 0.01324
C 30.65899 31.83878 0.0014
C 30.67179 30.39911 0.00924
C 30.63228 27.84871 0.02326
C 30.57861 26.3814 0.00261
C 29.45461 25.46133 0.03265
C 29.50571 24.16625 -0.02049
C 28.23664 10.64508 0.02611
C 27.00713 11.34995 -0.00621
C 27.04584 12.7871 0.00194
C 28.28471 13.48108 0.04185
C 25.80656 10.64279 0.00367
C 25.85361 9.23187 0.04306
C 24.58629 8.52814 0.00996
C 24.59846 7.04105 0.00195
C 25.85887 6.34545 -0.00802
C 25.8246 4.88721 -0.00218
C 24.55088 4.18751 -0.01654
C 24.52951 2.82857 -0.00037
C 24.58347 12.76549 -0.01052
C 25.79059 2.14428 -0.0032
C 24.53902 0.03538 -0.02815
C 26.99476 32.70946 -0.00942
C 28.04814 31.99011 0.00487
C 28.24684 19.17922 0.00826
C 28.09434 17.77429 -0.00294
C 26.89086 16.93699 0.00152
C 27.06061 15.58729 0.01257
C 28.31087 14.95663 0.02316
C 25.77063 0.80119 0.00622
C 2.45314 32.72645 0.00873
