295
Graphene
C 34.41995 34.03592 0.01295
C 7.37323 33.98219 0.00755
C 9.78822 32.61378 -0.0054
C 10.97638 32.01291 0.00667
C 10.99024 30.64332 0.00143
C 9.7714 29.8619 -0.017
C 9.82258 28.49576 0.00364
C 8.64951 0.66543 0.01739
C 11.0421 27.74125 -0.00831
C 9.83555 25.54249 -0.04422
C 9.92742 24.03006 0.00654
C 11.22997 23.3031 -0.00703
C 11.13397 21.98862 -0.04076
C 9.98431 21.19466 -0.00652
C 9.87815 19.79623 0.0058
C 10.97828 26.24762 -0.02957
C 8.55621 2.04913 0.03754
C 7.34224 2.76928 -0.03557
C 7.40714 4.14999 -0.00111
C 7.39994 19.79517 0.00028
C 8.83496 19.03251 -0.02213
C 8.50857 17.66633 0.03698
C 7.20867 17.13054 -0.00109
C 7.24035 15.68178 -0.00491
C 8.49196 15.05538 0.03338
C 8.69792 13.68124 -0.0258
C 7.4532 12.83162 -0.0331
C 7.44817 11.40412 -0.00316
C 8.68993 10.69849 0.02188
C 8.67811 9.28623 -0.01979
C 7.34263 8.62925 0.02691
C 7.42075 7.15007 -0.01581
C 8.66366 6.36915 0.01452
C 8.58247 4.95605 0.04892
C 9.81048 12.82485 -0.00865
C 7.48025 21.23507 -0.00289
C 10.00097 11.50971 0.00675
C 11.36047 9.25777 0.00742
C 12.50202 7.22508 0.03374
C 13.492 6.24744 -0.02845
C 13.60311 4.82844 -0.03213
C 12.24621 4.15637 0.02239
C 12.22906 2.7393 0.01153
C 13.35931 2.07292 0.02734
C 12.49146 8.56164 0.0296
C 13.50702 0.6793 -0.0055
C 14.7052 32.70201 -0.00225
C 16.02454 32.00165 0.00071
C 15.90433 30.63275 -0.01107
C 14.68994 29.88474 -0.01586
C 14.71508 28.40137 -0.01971
C 16.01327 27.67811 -0.02118
C 12.2931 34.07449 0.01515
C 12.2537 24.35068 0.03046
C 12.23793 25.66968 -0.00381
C 13.45749 26.34932 0.01852
C 9.90238 8.57316 -0.01594
C 9.97947 7.21199 0.0106
C 11.15547 6.36477 -0.01154
C 11.10368 4.91374 -0.01721
C 9.76765 4.2793 -0.02422
C 9.78947 2.7541 0.01277
C 10.96028 2.03566 0.00096
C 11.03404 0.68836 -0.01527
C 9.81898 34.05216 0.01087
C 12.27111 32.63845 0.00199
C 13.49351 31.9807 0.01511
C 13.49964 30.53347 -0.00478
C 12.25988 29.84671 -0.01662
C 12.2422 28.42872 -0.01185
C 13.4694 27.7029 0.01126
C 11.061 10.65273 -0.00311
C 15.96413 26.22572 0.00733
C 8.67913 21.91779 -0.00066
C 7.4084 24.14415 -0.05302
C 3.58001 10.68877 0.02819
C 3.61286 9.21081 0.00165
C 2.3581 8.53842 -0.02971
C 2.44991 7.09821 0.02894
C 3.70568 6.37323 -0.01789
C 3.61775 4.95006 0.00444
C 2.37246 11.32818 -0.00891
C 2.43851 4.27301 -0.00925
C 3.65454 2.10669 0.01363
C 3.66915 0.69278 -0.02162
C 2.50682 34.01014 0.00415
C 4.9573 32.65864 -0.0014
C 6.12709 31.99283 0.02162
C 6.13871 30.56938 0.0076
C 2.40521 2.90129 0.01877
C 2.36199 12.76029 -0.01046
C 3.60094 13.45789 -0.02689
C 3.61227 14.86099 -0.01536
C 3.70549 30.55106 -0.00033
C 2.46313 29.86254 0.03589
C 2.4746 28.43786 -0.02759
C 3.62501 27.78091 0.0402
C 3.67069 26.30553 0.00572
C 2.41523 25.54989 0.03592
C 2.4859 24.08712 0.00406
C 3.68895 23.47696 0.00943
C 3.69691 22.00573 0.02841
C 2.45272 21.24861 -0.01111
C 2.37189 19.86215 -0.01275
C 3.67316 19.23701 0.00985
C 3.66544 17.74422 -0.02245
C 2.37406 17.10049 -0.00428
C 2.37289 15.5791 0.03101
C 4.91858 29.84308 0.01241
C 8.64373 23.35609 0.00213
C 4.95142 28.38092 -0.01454
C 6.13328 26.29747 0.01416
C 6.14999 4.90752 0.00422
C 4.89993 4.25255 0.0351
C 4.90378 2.77888 -0.03113
C 6.09963 2.12134 0.02098
C 6.15096 0.61405 0.01848
C 4.95128 0.00827 -0.00619
C 6.19661 6.34485 0.00798
C 7.37606 32.59823 -0.02162
C 8.6227 30.53926 -0.00481
C 7.35527 29.79275 0.00979
C 7.40997 28.45884 0.01443
C 8.62341 27.75796 0.03505
C 8.64496 26.28764 -0.02815
C 7.3664 25.60357 -0.04147
C 8.61958 31.92169 0.00889
C 4.95395 7.03287 0.00228
C 4.94807 8.52455 -0.00114
C 6.09007 9.24456 -0.02696
C 4.93434 25.58433 0.03542
C 4.93377 24.18781 0.02299
C 6.16217 23.40124 0.00244
C 6.25605 22.04939 -0.01717
C 4.92549 21.33451 0.05265
C 4.91792 19.90713 -0.01952
C 6.12016 19.11722 -0.02813
C 6.03182 17.76735 0.00374
C 4.87205 17.03237 0.00052
C 4.8475 15.54661 -0.03682
C 6.02524 14.90397 0.01965
C 6.20699 13.52185 0.02058
C 4.91296 12.84351 -0.01957
C 4.88695 11.41372 -0.0108
C 6.1783 10.7504 -0.00368
C 6.12109 27.74352 0.01945
C 3.75592 31.93512 -0.01062
C 14.68413 25.68593 -0.00178
C 14.67723 2.82228 -0.0276
C 31.93518 32.66498 -0.01429
C 33.20285 31.89192 -0.0136
C 33.18655 30.53088 0.00594
C 31.83838 29.80472 -0.02474
C 31.87645 28.37882 0.00369
C 33.16326 27.78034 0.00455
C 29.52962 0.08694 -0.02383
C 33.16158 26.41558 -0.00644
C 32.02902 11.54733 0.00137
C 33.13259 10.70417 0.00199
C 33.166 9.32363 0.04381
C 31.93089 8.61193 0.02806
C 31.88104 7.15614 0.01504
C 33.19552 6.5003 -0.00069
C 33.06978 13.55211 -0.01839
C 30.75864 0.75614 0.01574
C 30.78876 2.1185 0.01927
C 29.56105 2.86662 0.03794
C 27.03016 34.01923 0.01908
C 29.45552 32.61131 0.07705
C 30.65511 31.94838 0.0103
C 30.59626 30.55046 0.02108
C 29.41568 29.86555 0.00716
C 29.61625 28.55881 0.00307
C 30.68001 27.76113 0.00346
C 29.4853 11.39631 0.01713
C 30.79887 10.84915 -0.01694
C 30.7396 9.33069 0.01428
C 29.44361 8.63214 -0.02142
C 29.46606 7.17182 0.0544
C 30.70939 6.4269 0.00026
C 30.73966 5.04977 0.00682
C 29.4821 4.30991 -0.01779
C 33.2414 5.03161 0.04926
C 28.34854 0.70364 0.01518
C 31.96998 4.25736 -0.03838
C 33.20981 2.17156 -0.00323
C 1.16881 14.86144 -0.02957
C 1.17374 13.51311 0.00343
C 34.26164 12.89806 -0.02656
C 34.36419 11.41338 -0.02442
C 1.176 10.67686 -0.00027
C 1.20519 9.24416 -0.00583
C 34.40572 15.54806 0.02114
C 34.37788 8.56717 -0.02302
C 1.19673 6.43265 0.02931
C 1.17077 4.97434 0.00628
C 34.39322 4.32206 -0.0345
C 34.40484 2.8793 -0.00931
C 1.17838 2.11531 -0.00939
C 1.18592 0.67694 -0.00468
C 34.37808 7.17791 -0.02849
C 0.02984 16.88026 0.00648
C 1.07715 17.68707 0.01223
C 1.04916 19.0949 -0.01678
C 33.26619 0.65002 -0.00841
C 31.97544 34.07867 0.0001
C 0.00196 32.65759 -0.02927
C 1.22924 31.9645 -0.01404
C 1.26506 30.49643 0.01027
C 0.0001 29.81724 0.01831
C 34.39796 28.47397 -0.01037
C 1.20792 27.75415 -0.00439
C 1.15582 26.31657 -0.00598
C 34.22623 25.52521 -0.05239
C 0.21295 24.25912 0.03076
C 1.2649 23.47554 0.00723
C 1.18454 22.08587 0.02712
C 0.09088 21.32004 -0.02213
C 0.07903 19.97076 0.01951
C 31.99305 2.92229 0.00349
C 14.81749 4.09343 0.00768
C 28.31695 2.14111 -0.00971
C 27.03015 4.22746 -0.00944
C 19.65274 29.86017 0.00367
C 19.63875 28.45354 0.04306
C 20.86144 27.72975 0.00996
C 20.74418 26.33068 0.00195
C 19.67585 25.47839 -0.00802
C 19.711 2.70075 -0.00218
C 20.87026 30.59155 -0.01679
C 20.92299 2.13994 -0.01654
C 19.65424 0.04369 -0.0032
C 22.20173 32.6942 0.00622
C 23.36637 31.93593 -0.02815
C 23.36755 30.49238 -0.00942
C 22.06714 29.84529 0.00487
C 22.12785 28.33609 0.00826
C 20.86218 0.67785 -0.00037
C 20.96017 31.9811 -0.01052
C 19.68567 32.64237 0.00684
C 17.207 0.074 -0.01154
C 15.97678 2.13221 0.03005
C 15.96259 0.76103 -0.04078
C 14.74392 0.0608 0.02117
C 17.20244 32.72235 0.02737
C 18.41909 31.95847 -0.00498
C 18.39222 30.57564 0.00135
C 17.12228 29.90652 0.03102
C 17.20866 28.46767 0.02555
C 18.36623 27.61564 0.01423
C 18.4413 25.99551 -0.00285
C 17.18657 25.5779 -0.009
C 17.02478 4.28622 -0.01199
C 17.13669 2.90805 -0.00229
C 18.54648 2.20751 -0.00938
C 18.47345 0.72906 -0.0264
C 23.48989 27.5052 -0.00294
C 27.13652 2.79456 -0.03735
C 23.36608 26.09472 0.00152
C 22.10322 24.24571 0.02316
C 25.84021 0.67023 0.03265
C 24.59095 0.01055 -0.02049
C 26.97803 32.65692 -0.01854
C 28.20479 31.95511 -0.01415
C 28.1841 30.51081 -0.03039
C 26.91888 29.7372 0.01836
C 25.81331 2.14411 0.00261
C 26.98391 28.39657 0.03531
C 28.22413 10.85592 0.0101
C 28.2538 9.38019 0.01705
C 27.03991 8.58297 -0.0405
C 27.04695 7.17703 -0.01303
C 28.21329 6.43587 -0.01461
C 28.20874 4.93487 -0.02155
C 26.92646 11.28016 -0.00669
C 24.58992 2.82298 0.02326
C 24.56045 4.29156 0.00924
C 25.78606 4.96816 0.0014
C 23.37745 4.92021 0.04185
C 22.1332 4.30688 0.00194
C 22.17417 2.93716 -0.00621
C 23.3754 2.12877 0.02611
C 23.37179 0.69553 0.02198
C 22.11245 34.06019 0.01094
C 24.56296 32.66336 0.00235
C 25.82284 31.91912 0.01495
C 25.74602 30.45124 0.01259
C 24.50501 29.69385 0.01799
C 24.65504 28.31861 0.01699
C 25.81434 10.44412 -0.00416
C 25.73021 9.20645 0.01177
C 24.6416 7.15937 0.04266
C 25.77903 6.41762 0.01324
C 22.03405 25.67586 0.01257
C 2.53954 32.61668 0.01364
