414
Graphene
C 34.43277 34.02203 0.01295
C 12.20759 28.5254 0.00985
C 13.38946 27.80766 -0.02245
C 13.48216 26.31959 -0.00428
C 12.25388 25.5201 0.03101
C 12.25022 24.09242 -0.01536
C 13.49037 23.47752 -0.02689
C 13.55556 22.03145 -0.01046
C 12.32678 21.33391 -0.00891
C 12.31093 19.89866 0.02819
C 13.52958 19.15324 0.00165
C 13.60832 17.73272 -0.02971
C 12.33528 17.03353 0.02894
C 12.3714 15.53472 -0.01789
C 13.57602 14.92202 0.00444
C 13.57256 13.49139 -0.00925
C 12.36146 12.76838 0.01877
C 12.31404 11.30517 0.01363
C 13.53545 10.64014 -0.02162
C 13.55193 9.23199 0.00415
C 12.29378 8.49491 -0.0014
C 12.35585 7.06386 0.02162
C 12.13785 29.90077 -0.01275
C 13.37783 30.60168 -0.01111
C 13.46836 31.99382 0.02841
C 12.27641 32.74889 0.00943
C 11.09661 21.95468 -0.014
C 9.83756 21.2675 0.02147
C 9.91781 19.91419 0.00373
C 11.11338 19.1584 -0.00191
C 11.01171 17.7645 0.00438
C 9.89343 17.00502 0.01291
C 9.90536 15.59173 0.00093
C 11.137 14.90922 0.00057
C 11.1325 13.43452 -0.01634
C 9.87632 12.79035 -0.00334
C 13.6362 6.37914 0.0076
C 9.81265 11.38912 0.02339
C 11.07188 9.22009 -0.00719
C 9.84284 8.50293 0.01364
C 9.74433 7.08536 -0.01062
C 11.08513 6.39389 -0.00033
C 11.07017 4.94804 0.03589
C 9.77722 4.35635 -0.02759
C 9.78127 2.93872 0.0402
C 11.00632 2.25481 0.00572
C 10.9826 0.79115 0.03592
C 9.77064 0.11075 0.00406
C 11.07889 10.65557 0.01641
C 13.64888 4.92474 0.01241
C 12.34579 4.23223 -0.01454
C 12.33452 2.85584 0.01945
C 14.70924 8.51398 -0.02162
C 14.83022 7.10201 0.00889
C 16.05104 6.35832 -0.00481
C 16.1526 4.96539 0.00979
C 14.89779 4.30536 0.01443
C 14.825 2.90566 0.03505
C 16.03477 2.15566 -0.02815
C 15.94283 0.70002 -0.04147
C 14.71267 0.02772 -0.05302
C 17.20397 32.68164 0.00213
C 15.97308 9.14971 -0.00619
C 18.38129 31.90335 -0.00066
C 17.06806 29.82976 0.00028
C 17.08562 28.40555 -0.02213
C 18.38846 27.65966 0.03698
C 18.31476 26.31201 -0.00109
C 17.11609 25.53918 -0.00491
C 17.11598 24.14499 0.03338
C 18.37489 23.42853 -0.0258
C 18.39424 21.98501 -0.0331
C 17.18267 21.22559 -0.00316
C 17.19117 19.85053 0.02188
C 18.32682 30.51203 -0.00289
C 10.98757 23.37319 -0.01118
C 15.98068 10.62024 0.01848
C 14.86739 12.75596 -0.03113
C 13.52851 2.16148 0.01416
C 13.49575 0.79705 0.03542
C 12.21842 0.06384 0.02299
C 14.67698 32.73305 0.00244
C 15.89662 32.00344 -0.01717
C 15.87367 30.53424 0.05265
C 14.64689 29.84118 -0.01952
C 14.65142 28.3953 -0.02813
C 15.86854 27.69847 0.00374
C 15.96964 26.27127 0.00052
C 14.76544 11.32918 0.02098
C 14.68959 25.50869 -0.03682
C 15.90081 23.4342 0.02058
C 15.95462 22.014 -0.01957
C 14.78812 21.22237 -0.0108
C 14.78665 19.82666 -0.00368
C 16.00927 19.14885 -0.02696
C 16.01228 17.68748 -0.00114
C 14.79469 16.9663 0.00228
C 14.78795 15.55203 0.00798
C 16.0836 14.80776 0.00422
C 16.06091 13.40302 0.0351
C 14.66675 24.10227 0.01965
C 9.85145 24.17689 -0.00131
C 9.80606 25.64699 -0.02896
C 11.07862 26.36136 -0.01004
C 2.33292 2.91834 0.04505
C 3.54389 2.21615 0.03284
C 3.5404 0.74983 -0.04307
C 2.34476 0.04202 0.03189
C 4.83985 32.773 0.00031
C 6.0122 32.03099 -0.003
C 6.08322 30.63302 0.01402
C 4.86852 29.85052 0.02379
C 4.83393 28.41103 0.00907
C 6.09809 27.78759 0.00643
C 2.3791 4.30541 -0.04999
C 6.13431 26.27727 -0.01509
C 4.93127 24.15115 0.02374
C 6.15043 23.44678 0.00402
C 6.1308 22.00617 0.0073
C 4.92389 21.24188 0.0174
C 4.90787 19.88596 0.03828
C 6.1287 19.22181 0.01226
C 6.23338 17.68472 -0.00279
C 4.8492 17.06831 0.01996
C 4.90383 15.67346 -0.03996
C 6.17137 14.9637 0.01465
C 4.88198 25.61884 0.03267
C 6.11154 13.54396 -0.00074
C 3.62424 4.99844 -0.03291
C 2.33592 7.1348 0.01707
C 3.57978 30.53328 0.03278
C 2.41508 29.86299 -0.00177
C 2.44845 28.38357 0.04421
C 3.65462 27.69112 0.00088
C 3.62666 26.2419 0.00828
C 2.45182 25.53668 -0.02375
C 2.40594 24.16369 0.00558
C 3.72205 23.43776 -0.0059
C 3.63644 22.04746 -0.01386
C 2.42784 21.34584 -0.02805
C 3.54663 6.41058 0.02769
C 2.47477 19.95314 0.00081
C 3.64936 17.82685 0.02728
C 2.47589 17.06146 -0.00039
C 2.46918 15.59475 0.0064
C 3.73046 14.90036 0.00211
C 3.70657 13.53921 -0.00449
C 2.45803 12.91646 -0.01979
C 2.42406 11.3984 0.02784
C 3.69639 10.72137 -0.01977
C 3.71014 9.28165 -0.00561
C 2.42178 8.60846 0.00208
C 3.66709 19.21115 0.00245
C 18.41551 19.21792 -0.01979
C 4.85804 12.82423 -0.00518
C 6.17553 10.6805 -0.00643
C 7.41775 15.62699 0.01849
C 8.64412 14.92967 -0.01142
C 8.66093 13.49821 -0.00562
C 7.32387 12.88038 -0.00494
C 7.35121 11.39431 0.00054
C 8.58646 10.7399 0.03007
C 8.57441 9.27962 -0.00095
C 7.35884 8.58702 0.01572
C 7.29189 7.1588 -0.04848
C 8.49348 6.44919 -0.00892
C 7.43242 17.0938 0.01396
C 8.5481 4.99244 -0.01362
C 7.21469 2.96216 0.0288
C 8.55394 2.23347 0.00393
C 8.5805 0.82949 0.00895
C 7.3521 0.08563 0.00685
C 9.68011 32.82093 0.02888
C 10.98839 32.10367 -0.00482
C 10.94487 30.71849 -0.01384
C 9.74406 29.93564 0.03693
C 9.74174 28.53948 0.01745
C 11.03796 27.7916 0.00488
C 7.26165 4.33941 -0.0008
C 4.86696 11.44211 0.0086
C 8.61293 17.7782 0.0127
C 7.37731 19.93854 -0.01378
C 6.14281 9.25324 0.017
C 4.88774 8.61906 -0.03113
C 4.77752 7.16331 -0.02566
C 6.02915 6.47435 -0.00094
C 6.11425 5.139 0.02322
C 4.91022 4.40361 -0.00725
C 4.77627 2.9715 -0.05697
C 6.01092 2.28935 0.01087
C 6.09354 0.90214 -0.01343
C 4.85546 0.11131 0.00988
C 8.63428 19.23917 0.02635
C 7.30111 32.75719 0.0276
C 8.56439 30.63457 -0.00077
C 7.37226 29.94659 0.03368
C 7.35941 28.51963 -0.02929
C 8.55368 27.67826 -0.00966
C 8.6097 26.32481 -0.03337
C 7.41039 25.58678 0.01227
C 7.39414 24.11018 0.00873
C 8.65733 23.4401 -0.00049
C 8.58924 21.99982 0.00848
C 7.34463 21.35982 -0.01303
C 8.49503 32.08183 0.01305
C 18.51374 17.70823 0.02691
C 17.27815 17.00818 -0.01581
C 17.30054 15.56898 0.01452
C 30.80678 10.66723 -0.00944
C 30.63238 9.1781 -0.03735
C 29.38315 8.75631 -0.00971
C 29.38697 7.18574 0.01518
C 30.65935 6.44719 0.01908
C 30.56483 5.05086 0.07705
C 29.38188 4.34601 0.0103
C 29.46767 2.79985 0.02108
C 30.74449 2.22975 0.00716
C 30.78536 0.76877 0.00307
C 29.53006 11.28347 -0.02155
C 29.51315 34.03504 0.00346
C 33.11399 31.93154 -0.01694
C 33.12633 30.5206 0.01428
C 31.94127 29.76562 -0.02142
C 31.93904 28.39763 0.0544
C 33.19714 27.66448 0.00026
C 33.18992 26.27377 0.00682
C 31.88374 25.56508 -0.01779
C 31.87195 24.0346 0.03794
C 33.11848 23.43405 0.01927
C 33.15544 22.00466 0.01574
C 31.97601 32.70333 0.01713
C 31.90341 21.27109 -0.02383
C 29.50469 12.72531 -0.01461
C 30.73828 14.88524 -0.0405
C 26.90838 4.12282 0.01495
C 27.07812 2.76575 0.01259
C 28.30992 2.07783 0.01799
C 28.3119 0.62719 0.01699
C 27.05123 33.97606 -0.00416
C 29.50948 32.6052 0.01177
C 30.68149 31.98778 0.04266
C 30.72324 30.514 0.01324
C 29.43972 29.78106 0.0014
C 29.37617 28.37404 0.00924
C 30.70827 13.48414 -0.01303
C 30.64619 27.77969 0.02326
C 29.50779 25.43718 0.03265
C 29.4906 24.10708 -0.02049
C 30.66498 23.3855 -0.01854
C 30.74363 21.97742 -0.01415
C 29.38041 21.25423 -0.03039
C 29.42416 19.86645 0.01836
C 30.72399 19.17629 0.03531
C 30.67219 17.79413 -0.00669
C 29.48261 17.01705 0.0101
C 29.45552 15.60887 0.01705
C 30.68874 26.29897 0.00261
C 28.13082 4.94937 0.00235
C 31.90854 19.85143 -0.01429
C 33.10492 17.7745 0.00594
C 1.1682 23.39238 0.00723
C 1.18366 21.96531 0.02712
C 34.37633 21.27413 -0.02213
C 34.40831 19.8618 0.01951
C 1.20626 19.18747 -0.01678
C 1.20671 17.77405 0.01223
C 34.39846 17.03765 0.00648
C 0.04957 15.59383 0.02114
C 1.20773 14.94165 -0.02957
C 1.20897 13.52559 0.00343
C 34.4277 24.11573 0.03076
C 0.00455 12.79641 -0.02656
C 1.22557 10.64046 -0.00027
C 1.2029 9.26573 -0.00583
C 34.38069 8.55914 -0.02302
C 34.34092 7.05016 -0.02849
C 1.16009 6.3669 0.02931
C 1.17231 4.94868 0.00628
C 34.34194 4.29417 -0.0345
C 34.37347 2.86848 -0.00931
C 1.14594 2.11355 -0.00939
C 1.12916 0.7428 -0.00468
C 34.42646 11.32858 -0.02442
C 33.14808 19.19743 -0.0136
C 34.43037 25.47998 -0.05239
C 1.16536 27.69381 -0.00439
C 31.85924 17.02321 -0.02474
C 31.95909 15.59363 0.00369
C 33.23617 14.97796 0.00455
C 33.20052 13.54719 -0.00644
C 31.99445 12.82155 -0.01839
C 31.9993 11.40368 0.00137
C 33.20159 10.70046 0.00199
C 33.15316 9.26466 0.04381
C 31.87973 8.57432 0.02806
C 31.9235 7.1243 0.01504
C 1.1997 26.20016 -0.00598
C 33.07931 6.36308 -0.00069
C 31.86465 4.25877 -0.03838
C 31.96981 2.83708 0.00349
C 33.17526 2.12061 -0.00323
C 33.23663 0.66753 -0.00841
C 32.01206 34.07884 0.0001
C 34.34598 32.62539 -0.02927
C 1.21112 31.85853 -0.01404
C 1.17314 30.51237 0.01027
C 34.4052 29.82222 0.01831
C 34.37687 28.3413 -0.01037
C 33.08282 4.92919 0.04926
C 3.58933 31.94777 0.01138
C 28.35465 6.32485 0.01094
C 27.19247 12.61242 0.02611
C 20.88498 19.24197 -0.01721
C 20.92083 17.78967 -0.02422
C 19.71843 16.99367 0.01277
C 19.71669 15.56585 0.00096
C 20.66845 14.62187 -0.01527
C 20.10067 13.23058 0.01087
C 20.03308 4.13846 0.00199
C 19.76516 2.76222 0.01511
C 20.96337 2.0197 -0.00478
C 20.87045 0.5829 -0.01662
C 19.63812 19.90188 -0.01154
C 19.63069 33.98882 -0.01185
C 23.39637 31.83527 0.01852
C 23.28089 30.46544 -0.00381
C 22.07158 29.75246 0.03046
C 22.06374 28.37914 0.0296
C 23.30569 27.69049 0.03374
C 23.29469 26.24016 -0.02845
C 22.0564 25.63325 -0.03213
C 22.04121 24.12206 0.02239
C 23.24 23.45805 0.01153
C 23.31275 22.03753 0.02734
C 22.16306 32.60304 0.01126
C 22.07828 21.27081 -0.0055
C 19.59949 21.31956 0.0106
C 20.83497 23.43454 0.00742
C 18.45848 14.93584 0.04892
C 18.55282 13.53572 -0.00111
C 17.37842 12.6266 -0.03557
C 17.11411 11.25389 0.03754
C 17.30899 8.66862 0.01739
C 17.31619 7.11228 0.00755
C 18.35541 6.29907 -0.0054
C 18.68333 5.01064 0.00667
C 17.32716 4.2035 0.00143
C 17.33853 2.89954 -0.017
C 20.82759 22.04418 -0.01594
C 18.45036 2.09438 0.00364
C 17.19615 0.02025 -0.02957
C 19.63567 32.54344 -0.04422
C 20.90552 31.8994 0.00654
C 20.79002 30.55474 -0.00703
C 19.5206 29.87966 -0.04076
C 19.56796 28.41366 -0.00652
C 20.7598 27.7031 0.0058
C 20.81289 26.32783 -0.00865
C 19.5956 25.61212 0.00675
C 19.64495 24.17052 -0.00311
C 18.42824 0.7241 -0.00831
C 28.34179 10.70008 0.02198
C 22.15794 19.85933 0.01515
C 23.32696 17.61238 0.00071
C 25.85175 2.00789 -0.01679
C 25.87195 0.57553 0.00367
C 24.5535 34.04425 0.04306
C 27.02728 32.56072 0.00996
C 28.24327 31.91266 0.00195
C 28.29484 30.52722 -0.00802
C 27.04643 29.7648 -0.00218
C 27.0217 28.41665 -0.01654
C 28.16336 27.6581 -0.00037
C 28.26678 26.18546 -0.0032
C 24.77855 2.83447 -0.01052
C 27.0805 25.52977 0.00622
C 28.24787 23.4012 -0.00942
C 28.23116 21.96191 0.00487
C 27.00059 21.28695 0.00826
C 26.91314 19.83221 -0.00294
C 28.18115 19.2238 0.00152
C 28.23763 17.72034 0.01257
C 27.05471 16.9933 0.02316
C 26.98266 15.48708 0.04185
C 28.27385 14.91142 0.00194
C 28.24096 13.44456 -0.00621
C 27.03697 24.13404 -0.02815
C 23.33098 19.18572 -0.00225
C 25.91289 14.73306 0.00684
C 24.57684 16.89686 -0.0264
C 22.05076 16.94265 -0.01107
C 22.05077 15.398 -0.01586
C 23.35175 14.96335 -0.01971
C 22.09006 2.8069 -0.02118
C 23.4477 2.21618 0.00733
C 23.35152 0.71679 -0.00178
C 22.14128 34.01895 0.00768
C 24.52525 32.61621 -0.0276
C 25.77619 31.94478 0.03005
C 25.83792 30.53643 -0.04078
C 24.59801 15.44226 -0.01154
C 24.52061 29.83479 0.02117
C 25.73839 27.73848 -0.00498
C 25.79531 26.3049 0.00135
C 24.50049 25.49619 0.03102
C 24.51746 24.07578 0.02555
C 25.78092 23.44985 0.01423
C 25.82299 22.05032 -0.00285
C 24.56212 21.30431 -0.009
C 24.48858 19.90206 -0.01199
C 25.74986 19.13124 -0.00229
C 25.77435 17.68893 -0.00938
C 24.47266 28.4283 0.02737
C 2.35353 32.67827 -0.00407
