356
Graphene
C 0.05278 0.03053 0.01295
C 11.08017 4.88079 -0.0108
C 9.90136 4.2318 -0.00368
C 9.83095 2.87597 -0.02696
C 11.0864 2.20871 -0.00114
C 11.06125 0.72057 0.00228
C 9.82689 0.03043 0.00798
C 12.27882 32.65753 0.00422
C 13.49242 31.96044 0.0351
C 11.04518 6.38266 -0.01957
C 13.5423 30.60969 -0.03113
C 12.24743 28.30424 0.01848
C 12.35024 19.73501 -0.00619
C 13.63354 17.66546 -0.02162
C 12.34359 17.13346 0.00889
C 12.35322 15.61936 -0.00481
C 13.48018 14.86872 0.00979
C 13.44394 13.40474 0.01443
C 12.28139 12.72503 0.03505
C 12.49844 29.72805 0.02098
C 12.20461 11.32262 -0.02815
C 9.85404 7.1178 0.02058
C 11.12194 9.21375 -0.03682
C 9.73296 28.50151 -0.02162
C 11.08235 27.76796 0.00415
C 11.047 26.40281 -0.0014
C 9.92819 25.57454 0.02162
C 9.91924 24.15615 0.0076
C 11.09206 23.40973 0.01241
C 10.94143 22.17385 -0.01454
C 9.98911 21.36728 0.01945
C 9.85411 8.5384 0.01965
C 9.71457 20.01015 0.01416
C 11.06824 17.74992 0.02299
C 9.86304 17.03385 0.00244
C 9.80785 15.60678 -0.01717
C 11.0676 14.95009 0.05265
C 11.09145 13.50251 -0.01952
C 9.84107 12.74467 -0.02813
C 9.8427 11.35391 0.00374
C 11.01004 10.54855 0.00052
C 11.18053 19.2097 0.03542
C 13.43348 10.63356 -0.04147
C 13.52841 9.2366 -0.05302
C 12.28946 8.49521 0.00213
C 14.75759 2.89842 0.00667
C 15.95627 2.22261 0.00143
C 15.96994 0.72976 -0.017
C 14.75799 34.06433 0.00364
C 17.19628 32.63354 -0.00831
C 17.17131 15.53524 -0.02957
C 18.46812 15.07719 -0.04422
C 18.47461 13.44409 0.00654
C 14.71278 4.31378 -0.0054
C 17.25846 12.77341 -0.00703
C 18.41052 10.62587 -0.00652
C 18.49818 9.16911 0.0058
C 17.28487 8.5442 -0.00865
C 17.2012 7.06391 0.00675
C 18.45222 6.30555 -0.00311
C 18.40777 4.90616 0.00742
C 17.21919 4.25382 -0.01594
C 17.23066 2.87665 0.0106
C 17.16185 11.33288 -0.04076
C 15.94819 5.01587 0.00755
C 15.93242 6.39957 0.01739
C 14.66207 7.11328 0.03754
C 12.21233 7.09511 -0.00066
C 13.43228 6.41781 -0.00289
C 13.44641 5.02904 0.00028
C 12.36191 4.19989 -0.02213
C 12.35093 2.83822 0.03698
C 13.58342 2.16517 -0.00109
C 13.52575 0.73911 -0.00491
C 12.32573 34.0747 0.03338
C 14.72309 32.64844 -0.0258
C 16.01657 32.02872 -0.0331
C 14.65071 16.89011 -0.00316
C 14.74342 15.57348 0.02188
C 15.96923 14.92665 -0.01979
C 15.96308 13.45388 0.02691
C 14.75392 12.76424 -0.01581
C 14.66273 11.3513 0.01452
C 15.9368 10.63896 0.04892
C 15.96512 9.19365 -0.00111
C 14.78158 8.50957 -0.03557
C 9.7748 29.90539 0.01363
C 18.41282 2.14269 -0.01154
C 11.09574 30.5118 0.01877
C 9.77004 32.73721 0.00444
C 3.64978 6.411 -0.00562
C 3.6092 4.98824 -0.00494
C 2.42784 4.22704 0.00054
C 2.50078 2.8416 0.03007
C 3.73206 2.19012 -0.00095
C 3.7365 0.72432 0.01572
C 2.53783 34.05558 -0.04848
C 4.89875 32.74924 -0.00892
C 2.37431 7.14353 -0.01142
C 6.09679 32.01591 -0.01362
C 4.90906 29.83575 0.0288
C 4.90507 28.35999 0.00393
C 6.14655 27.6969 0.00895
C 6.18553 26.29614 0.00685
C 4.95799 25.58655 0.02888
C 4.86777 24.1459 -0.00482
C 6.20147 17.68283 -0.01384
C 4.93745 17.05111 0.03693
C 6.10803 30.58205 -0.0008
C 4.89526 15.64121 0.01745
C 2.34857 8.53772 0.01849
C 3.63465 10.67168 0.0127
C 3.69155 30.4392 -0.05697
C 2.41965 29.81203 0.01087
C 2.47644 28.40963 -0.01343
C 3.67244 27.71498 0.00988
C 3.70229 26.24351 0.0276
C 2.5212 25.55607 0.01305
C 2.54078 24.12667 -0.00077
C 3.829 23.41019 0.03368
C 3.62173 9.30107 0.01396
C 2.45295 21.49431 -0.02929
C 3.63465 19.1842 -0.03337
C 3.68235 17.81337 0.01227
C 2.4163 16.99815 0.00873
C 2.44057 15.6115 -0.00049
C 3.7379 14.87096 0.00848
C 3.6498 13.41156 -0.01303
C 2.47534 12.80035 -0.01378
C 2.4493 11.33454 0.02635
C 2.53881 20.05166 -0.00966
C 6.17208 14.96513 0.00488
C 6.16938 13.49692 -0.01004
C 4.97367 12.79323 -0.02896
C 8.64917 17.89989 0.00406
C 7.46386 17.14525 0.00943
C 7.3926 15.65575 0.02841
C 8.59158 14.86872 -0.01111
C 8.63392 13.41158 -0.01275
C 7.37089 12.75953 0.00985
C 7.35028 11.34628 -0.02245
C 8.59691 10.65004 -0.00428
C 8.67027 19.24235 0.03592
C 8.63314 9.1943 0.03101
C 7.44353 7.12926 -0.02689
C 8.58996 6.43619 -0.01046
C 8.59194 5.02303 -0.00891
C 7.40128 4.26769 0.02819
C 7.43935 2.88443 0.00165
C 8.61657 2.09851 -0.02971
C 8.59411 0.67888 0.02894
C 7.3262 0.10222 -0.01789
C 7.41658 8.57512 -0.01536
C 8.54812 23.51258 0.00572
C 7.40084 24.07641 0.0402
C 7.36134 25.58085 -0.02759
C 4.92747 11.30299 -0.00131
C 6.16274 10.68702 -0.01118
C 6.13875 9.25662 -0.014
C 4.87821 8.53775 0.02147
C 4.87646 7.07973 0.00373
C 6.13594 6.39213 -0.00191
C 6.16243 5.01472 0.00438
C 4.96918 4.27749 0.01291
C 4.93936 2.92935 0.00093
C 6.14387 2.1462 0.00057
C 6.10298 0.7666 -0.01634
C 4.85378 0.05443 -0.00334
C 7.3203 32.68037 0.02339
C 8.51598 32.00307 0.01641
C 8.51046 30.62822 -0.00719
C 7.39421 29.8811 0.01364
C 7.32137 28.39387 -0.01062
C 8.56049 27.71051 -0.00033
C 8.64148 26.25482 0.03589
C 11.02361 31.88557 -0.00925
C 18.3547 0.69356 -0.01721
C 17.16786 34.06279 -0.02422
C 19.64812 32.63924 0.01277
C 31.9917 32.63582 0.01713
C 33.15732 31.95589 -0.01694
C 33.18059 30.52895 0.01428
C 32.00105 29.81418 -0.02142
C 31.96695 28.42236 0.0544
C 33.19352 27.69661 0.00026
C 33.23246 26.3206 0.00682
C 32.0367 25.54218 -0.01779
C 29.54374 0.03519 0.00346
C 31.9337 24.12956 0.03794
C 33.12574 21.98583 0.01574
C 31.89056 21.30153 -0.02383
C 31.86271 19.8926 -0.01429
C 33.08884 19.20279 -0.0136
C 33.13149 17.72089 0.00594
C 31.96826 17.06816 -0.02474
C 31.96709 15.64192 0.00369
C 33.1922 14.95096 0.00455
C 33.15604 23.43017 0.01927
C 33.14413 13.47526 -0.00644
C 30.68433 0.743 0.00307
C 29.50682 2.88565 0.02108
C 30.63951 22.02556 -0.01415
C 29.39817 21.29272 -0.03039
C 29.36062 19.92073 0.01836
C 30.65811 19.18502 0.03531
C 30.64363 17.79998 -0.00669
C 29.50627 17.04717 0.0101
C 29.5148 15.64076 0.01705
C 30.78008 14.88987 -0.0405
C 30.69637 2.12768 0.00716
C 30.72926 13.47511 -0.01303
C 29.4911 11.30735 -0.02155
C 30.73825 10.68047 -0.00944
C 30.74772 9.21008 -0.03735
C 29.50899 8.43778 -0.00971
C 29.61264 7.07557 0.01518
C 30.80281 6.35261 0.01908
C 30.76447 4.92262 0.07705
C 29.54267 4.28983 0.0103
C 29.51784 12.77554 -0.01461
C 32.00189 12.72673 -0.01839
C 31.95984 11.36663 0.00137
C 33.29414 10.59505 0.00199
C 1.20385 19.15324 -0.01678
C 1.1986 17.77918 0.01223
C 34.39599 17.05818 0.00648
C 0.02212 15.61418 0.02114
C 1.25552 14.93683 -0.02957
C 1.18365 13.48926 0.00343
C 34.40742 12.79816 -0.02656
C 34.4258 11.36899 -0.02442
C 34.33874 19.87942 0.01951
C 1.24237 10.68529 -0.00027
C 34.42317 8.49114 -0.02302
C 0.03617 7.08189 -0.02849
C 1.2134 6.40076 0.02931
C 1.22247 4.97441 0.00628
C 34.41323 4.37149 -0.0345
C 34.40646 2.88028 -0.00931
C 1.249 2.1672 -0.00939
C 1.26433 0.69806 -0.00468
C 1.16604 9.29906 -0.00583
C 34.37837 21.27367 -0.02213
C 1.1865 22.105 0.02712
C 1.25111 23.48183 0.00723
C 33.20965 9.13644 0.04381
C 31.95792 8.54897 0.02806
C 31.98315 7.08701 0.01504
C 33.18892 6.42581 -0.00069
C 33.13941 4.97854 0.04926
C 31.98113 4.23775 -0.03838
C 31.97301 2.76915 0.00349
C 33.23746 2.14817 -0.00323
C 33.21187 0.74926 -0.00841
C 31.9956 0.03229 0.0001
C 34.4255 32.67311 -0.02927
C 1.17417 31.93742 -0.01404
C 1.17874 30.51932 0.01027
C 34.41161 29.86772 0.01831
C 0.0212 28.38731 -0.01037
C 1.22129 27.73031 -0.00439
C 1.21315 26.28692 -0.00598
C 0.00539 25.52032 -0.05239
C 0.04584 24.13261 0.03076
C 30.78683 23.41117 -0.01854
C 29.54159 24.26326 -0.02049
C 29.63171 25.63327 0.03265
C 30.80426 26.22393 0.00261
C 23.32105 10.68212 -0.01107
C 23.3593 9.31088 -0.01586
C 22.15565 8.53524 -0.01971
C 22.0403 7.14183 -0.02118
C 23.29305 6.48928 0.00733
C 23.3234 5.05565 -0.00178
C 22.12517 4.29952 0.00768
C 22.14567 2.83429 -0.0276
C 22.07313 11.33256 0.00071
C 23.36156 2.08768 0.03005
C 22.12834 33.94061 0.02117
C 24.6275 32.72683 0.02737
C 25.87993 19.03164 -0.00498
C 25.59289 17.73225 0.00135
C 24.45762 16.9755 0.03102
C 24.58225 15.61531 0.02555
C 25.7667 14.82617 0.01423
C 25.82339 13.47534 -0.00285
C 23.37087 0.68253 -0.04078
C 22.08113 12.72182 -0.00225
C 23.34133 13.43453 0.01515
C 23.38618 14.86122 -0.0055
C 20.73211 32.00135 0.00096
C 19.72979 15.54122 -0.01527
C 20.91185 15.00376 0.01087
C 20.89958 13.47427 0.00199
C 19.67173 12.769 0.01511
C 19.65037 11.3201 -0.00478
C 20.88272 10.6274 -0.01662
C 20.91754 9.24873 -0.01185
C 19.69756 8.56557 0.01126
C 19.62004 7.10293 0.01852
C 20.82621 6.38277 -0.00381
C 20.86481 4.94266 0.03046
C 19.63273 4.17889 0.0296
C 19.74038 2.74065 0.03374
C 20.91656 2.12091 -0.02845
C 20.8462 0.66414 -0.03213
C 19.57044 33.95962 0.02239
C 21.90988 32.62612 0.01153
C 22.21446 15.60011 0.02734
C 24.53294 12.69193 -0.009
C 3.70529 31.90701 -0.00725
C 24.52931 11.34728 -0.01199
C 25.82283 9.20373 -0.00938
C 27.08411 11.34505 0.04185
C 28.24843 10.60569 0.00194
C 28.30674 9.15496 -0.00621
C 27.06691 8.40218 0.02611
C 27.12304 7.05881 0.02198
C 28.307 6.31283 0.01094
C 28.29405 4.93198 0.00235
C 27.05748 4.2302 0.01495
C 27.06486 12.79946 0.02316
C 27.07907 2.84911 0.01259
C 28.26193 0.72846 0.01699
C 27.07062 34.05724 -0.00416
C 29.53269 32.67051 0.01177
C 30.69813 32.00629 0.04266
C 30.73658 30.5948 0.01324
C 29.47669 29.81813 0.0014
C 29.679 28.44304 0.00924
C 30.72275 27.69663 0.02326
C 28.3312 2.16477 0.01799
C 28.28109 13.52418 0.01257
C 28.3078 14.9415 0.00152
C 27.03102 15.60589 -0.00294
C 24.58412 8.55989 -0.0264
C 24.53392 7.13498 -0.01154
C 25.86268 6.42443 0.00684
C 25.81819 5.0082 -0.01052
C 24.55092 4.2887 -0.01679
C 24.57987 2.87776 0.00367
C 25.82117 2.12557 0.04306
C 25.88582 0.79697 0.00996
C 24.64006 0.08804 0.00195
C 26.8507 32.65435 -0.00802
C 28.1117 31.872 -0.00218
C 28.30593 30.55411 -0.01654
C 28.51232 23.34133 -0.00037
C 28.11243 22.11771 -0.0032
C 27.11846 21.26213 0.00622
C 26.90197 19.95085 -0.02815
C 28.23133 19.12943 -0.00942
C 28.21046 17.71732 0.00487
C 26.95586 17.02183 0.00826
C 25.88314 10.60717 -0.00229
C 2.49172 32.58376 0.02322
