360
Graphene
C 0.01661 0.02631 0.01295
C 17.2559 25.5055 0.02058
C 17.16773 24.2021 -0.01957
C 18.40532 23.44984 -0.0108
C 18.50237 21.99233 -0.00368
C 18.51541 19.11278 -0.02696
C 18.49371 17.85124 -0.00114
C 18.40248 14.88649 0.00228
C 18.36737 13.48728 0.00798
C 18.43343 26.16671 0.01965
C 17.1866 12.74787 0.00422
C 18.51417 10.65768 -0.03113
C 18.48658 9.17888 0.02098
C 17.25896 8.5008 0.01848
C 17.25773 7.08249 -0.00619
C 18.42623 6.47232 -0.02162
C 18.44455 4.94073 0.00889
C 17.1971 4.19332 -0.00481
C 17.16293 2.81044 0.00979
C 17.28983 11.2901 0.0351
C 18.39938 27.66047 -0.03682
C 17.19812 28.42672 0.00052
C 17.2172 29.76805 0.00374
C 14.72014 29.87909 -0.00925
C 14.67698 28.46346 0.01877
C 15.99882 27.713 0.01363
C 16.03199 26.29401 -0.02162
C 14.71516 11.33798 0.00415
C 16.01029 10.67577 -0.0014
C 15.97675 9.24271 0.02162
C 14.77223 8.513 0.0076
C 14.77661 7.102 0.01241
C 16.00793 6.47063 -0.01454
C 15.95382 4.99284 0.01945
C 14.73061 4.33161 0.01416
C 14.78925 2.78585 0.03542
C 15.99872 2.10093 0.02299
C 16.04045 0.72575 0.00244
C 14.84527 34.06443 -0.01717
C 17.1904 32.58697 0.05265
C 18.43787 31.96516 -0.01952
C 18.4541 30.47663 -0.02813
C 18.37733 2.11199 0.01443
C 16.00434 30.50936 0.00444
C 18.51563 0.71844 0.03505
C 19.66194 32.70458 -0.04147
C 19.69555 7.12471 0.00755
C 20.86877 6.48089 -0.0054
C 20.87641 5.00202 0.00667
C 19.65313 4.19149 0.00143
C 19.67183 2.79963 -0.017
C 20.9161 2.17994 0.00364
C 20.92278 0.69364 -0.00831
C 19.6603 0.02967 -0.02957
C 19.67506 8.54108 0.01739
C 22.15058 32.63057 -0.04422
C 23.42067 30.59354 -0.00703
C 22.14775 29.79272 -0.04076
C 22.18564 28.40036 -0.00652
C 23.39071 27.67618 0.0058
C 23.40016 26.21652 -0.00865
C 22.09157 25.55316 0.00675
C 22.11565 24.11266 -0.00311
C 23.38825 23.37036 0.00742
C 23.3969 31.93101 0.00654
C 20.89325 9.25678 0.03754
C 20.85457 10.64427 -0.03557
C 19.64339 11.36896 -0.00111
C 20.83995 32.00803 -0.05302
C 20.88022 30.56751 0.00213
C 19.65807 29.82586 -0.00066
C 19.7223 28.35672 -0.00289
C 20.95506 27.69216 0.00028
C 20.92863 26.29997 -0.02213
C 19.68839 25.59076 0.03698
C 19.72696 24.14791 -0.00109
C 20.902 23.41234 -0.00491
C 20.90556 21.95567 0.03338
C 19.63667 21.26474 -0.0258
C 19.6466 19.87663 -0.0331
C 20.93247 19.19988 -0.00316
C 20.88164 17.76086 0.02188
C 19.64019 17.05522 -0.01979
C 19.61629 15.63844 0.02691
C 20.87719 14.88768 -0.01581
C 20.85164 13.48518 0.01452
C 19.67706 12.79429 0.04892
C 17.27234 34.04147 -0.02815
C 23.33114 21.97751 -0.01594
C 15.97582 31.87472 -0.01789
C 12.25599 34.07645 -0.02971
C 4.93788 29.80344 0.01396
C 4.90277 28.37791 0.01849
C 6.17702 27.68923 -0.01142
C 5.02777 11.31443 -0.00562
C 6.03987 10.70532 -0.00494
C 6.17991 9.19393 0.00054
C 4.89137 8.52052 0.03007
C 4.89468 7.09896 -0.00095
C 6.16181 30.59008 0.0127
C 6.13906 6.32236 0.01572
C 4.88883 4.27533 -0.00892
C 4.86672 2.86669 -0.01362
C 6.092 2.14974 -0.0008
C 6.151 0.74251 0.0288
C 4.91803 0.08305 0.00393
C 7.40444 32.62909 0.00895
C 8.63478 31.99045 0.00685
C 8.63733 30.55161 0.02888
C 6.14986 4.9645 -0.04848
C 6.09286 32.0349 0.02635
C 4.93649 32.7224 -0.01378
C 2.46197 34.05322 -0.01303
C 3.66253 30.52534 -0.02566
C 2.41098 29.84573 -0.00094
C 2.487 28.31901 0.02322
C 3.75919 27.68998 -0.00725
C 3.65705 26.28631 -0.05697
C 2.57167 25.52326 0.01087
C 2.46083 24.13557 -0.01343
C 2.36498 12.75865 0.00988
C 2.41847 11.47925 0.0276
C 3.6823 10.69257 0.01305
C 3.726 9.22518 -0.00077
C 2.45003 8.54644 0.03368
C 2.5133 7.08914 -0.02929
C 3.67118 6.33565 -0.00966
C 3.72292 4.94709 -0.03337
C 2.36872 4.23577 0.01227
C 2.45197 2.92063 0.00873
C 3.63964 2.17655 -0.00049
C 3.67006 0.73409 0.00848
C 7.4157 29.87877 -0.00482
C 14.74657 32.57418 0.02894
C 7.42451 28.37637 -0.01384
C 8.62747 9.24927 0.01745
C 11.05293 0.74602 0.0402
C 9.82755 0.01271 0.00572
C 12.23892 32.62615 0.03592
C 13.48838 31.93201 0.00406
C 13.54878 30.53875 0.00943
C 12.30041 29.8083 0.02841
C 12.2948 28.4051 -0.01111
C 13.54872 27.81692 -0.01275
C 11.03098 2.13286 -0.02759
C 13.67253 10.66873 0.00985
C 12.34774 8.5395 -0.00428
C 12.32212 7.14975 0.03101
C 13.4732 6.28239 -0.01536
C 13.49913 4.94212 -0.02689
C 12.24989 4.27751 -0.01046
C 12.25022 2.78333 -0.00891
C 13.54166 2.12048 0.02819
C 13.52619 0.72514 0.00165
C 13.5019 9.27463 -0.02245
C 9.85827 2.78893 0.03589
C 9.82611 4.30428 -0.00033
C 11.05709 5.02721 -0.01062
C 7.41869 8.54764 0.00488
C 7.34105 7.09213 -0.01004
C 8.60747 6.42981 -0.02896
C 8.64577 5.0285 -0.00131
C 7.3768 4.27095 -0.01118
C 7.32969 2.88331 -0.014
C 8.64207 2.12861 0.02147
C 8.62058 0.7667 0.00373
C 7.3804 0.04546 -0.00191
C 9.86171 32.72666 0.00438
C 11.02588 32.03321 0.01291
C 11.04609 30.58185 0.00093
C 9.86788 29.85214 0.00057
C 9.77833 28.37904 -0.01634
C 11.07995 27.77009 -0.00334
C 11.10412 9.21985 0.02339
C 9.86676 8.55774 0.01641
C 9.81027 7.15675 -0.00719
C 11.03959 6.47207 0.01364
C 8.63525 27.719 0.03693
C 22.07255 21.29223 0.0106
C 22.08283 19.92499 -0.01154
C 23.33796 19.13976 -0.01721
C 31.98171 32.64391 0.01713
C 33.14849 31.99984 -0.01694
C 33.17774 30.55686 0.01428
C 32.02969 29.86984 -0.02142
C 32.00522 28.35779 0.0544
C 33.20762 27.71108 0.00026
C 33.14394 26.27069 0.00682
C 31.96469 25.55433 -0.01779
C 29.49338 0.02424 0.00346
C 31.89833 24.14167 0.03794
C 33.16129 22.00903 0.01574
C 31.94527 21.26066 -0.02383
C 31.98054 19.93253 -0.01429
C 33.14688 19.17223 -0.0136
C 33.20761 17.79903 0.00594
C 31.9815 17.00181 -0.02474
C 31.98705 15.60581 0.00369
C 33.20645 14.90874 0.00455
C 33.2444 23.42157 0.01927
C 30.76156 0.74897 0.00307
C 30.72312 2.11572 0.00716
C 29.51339 2.83567 0.02108
C 30.7186 23.44632 -0.01854
C 30.69933 22.08344 -0.01415
C 29.57301 21.30076 -0.03039
C 29.53991 19.82481 0.01836
C 30.80622 19.12971 0.03531
C 30.73928 17.75768 -0.00669
C 29.50486 17.05855 0.0101
C 29.53698 15.6224 0.01705
C 30.7456 14.90167 -0.0405
C 30.73111 13.48197 -0.01303
C 29.49148 12.82131 -0.01461
C 29.57132 11.40476 -0.02155
C 30.75316 10.57473 -0.00944
C 30.78139 9.18114 -0.03735
C 29.52996 8.54166 -0.00971
C 29.51727 7.14538 0.01518
C 30.73936 6.34588 0.01908
C 30.69818 4.98507 0.07705
C 29.55557 4.21746 0.0103
C 33.16699 13.42491 -0.00644
C 29.46497 24.14626 -0.02049
C 31.93228 12.74105 -0.01839
C 33.15287 10.6857 0.00199
C 1.21088 19.113 -0.01678
C 1.22649 17.75572 0.01223
C 0.04342 17.01798 0.00648
C 0.0105 15.63242 0.02114
C 1.2764 14.89358 -0.02957
C 1.24096 13.43838 0.00343
C 0.00208 12.76682 -0.02656
C 0.02535 11.33093 -0.02442
C 34.40516 19.87007 0.01951
C 1.23066 10.65053 -0.00027
C 34.42587 8.54375 -0.02302
C 34.407 7.1165 -0.02849
C 1.25123 6.45178 0.02931
C 1.20268 4.97078 0.00628
C 0.03188 4.29905 -0.0345
C 34.39377 2.85352 -0.00931
C 1.2537 2.1474 -0.00939
C 1.24676 0.707 -0.00468
C 1.27332 9.28298 -0.00583
C 0.03375 21.29299 -0.02213
C 1.15973 21.97997 0.02712
C 1.25517 23.45467 0.00723
C 33.20198 9.2533 0.04381
C 32.00379 8.57723 0.02806
C 31.92762 7.03076 0.01504
C 33.1511 6.36934 -0.00069
C 33.20185 4.96805 0.04926
C 32.03404 4.27014 -0.03838
C 31.90754 2.8092 0.00349
C 33.13638 2.13278 -0.00323
C 33.18721 0.65805 -0.00841
C 31.93932 34.06816 0.0001
C 34.41457 32.61214 -0.02927
C 1.22221 32.01978 -0.01404
C 1.22949 30.58757 0.01027
C 0.00196 29.82587 0.01831
C 0.00402 28.39394 -0.01037
C 1.1845 27.64957 -0.00439
C 1.16613 26.27939 -0.00598
C 34.42274 25.59107 -0.05239
C 0.02752 24.11336 0.03076
C 31.96474 11.33597 0.00137
C 29.46705 25.58157 0.03265
C 30.73397 26.29094 0.00261
C 30.74207 27.74024 0.02326
C 25.77981 27.73386 -0.00225
C 25.77329 26.291 0.00071
C 24.59392 25.58834 -0.01107
C 24.61363 24.13746 -0.01586
C 25.83587 23.43035 -0.01971
C 25.79371 21.97384 -0.02118
C 24.56905 21.27067 0.00733
C 24.55796 19.87563 -0.00178
C 24.56932 28.46675 0.01515
C 25.80404 19.11907 0.00768
C 24.57487 17.01589 0.03005
C 24.5095 15.60794 -0.04078
C 25.8061 14.94137 0.02117
C 25.88322 13.49834 0.02737
C 24.55241 12.73622 -0.00498
C 24.56418 11.358 0.00135
C 25.842 10.64119 0.03102
C 25.81443 9.17231 0.02555
C 25.77486 17.76715 -0.0276
C 24.61601 29.79242 -0.0055
C 25.84294 30.51254 0.02734
C 25.84671 31.94318 0.01153
C 23.32409 17.72474 -0.02422
C 22.13617 16.96333 0.01277
C 22.10376 15.57899 0.00096
C 23.30268 14.87992 -0.01527
C 23.3808 13.47914 0.01087
C 22.18164 12.745 0.00199
C 22.10368 11.38521 0.01511
C 23.27397 10.64788 -0.00478
C 23.28664 9.20744 -0.01662
C 22.13004 8.44614 -0.01185
C 22.10775 7.09189 0.01126
C 23.40933 6.35615 0.01852
C 23.36677 4.95838 -0.00381
C 22.03422 4.26791 0.03046
C 22.08514 2.79206 0.0296
C 23.38439 2.10455 0.03374
C 23.37392 0.68022 -0.02845
C 22.17554 34.0294 -0.03213
C 24.65055 32.63529 0.02239
C 24.60908 8.49693 0.01423
C 24.58654 7.09166 -0.00285
C 25.85322 6.31 -0.009
C 25.78284 4.93014 -0.01199
C 28.25563 13.52317 0.01257
C 27.10861 12.71525 0.02316
C 27.13764 11.30335 0.04185
C 28.28888 10.61144 0.00194
C 28.28224 9.22104 -0.00621
C 27.0694 8.51992 0.02611
C 27.06662 7.07378 0.02198
C 28.34128 6.3996 0.01094
C 28.25707 4.95557 0.00235
C 27.05932 4.27228 0.01495
C 27.11324 2.83648 0.01259
C 28.34818 2.14799 0.01799
C 28.32127 0.74149 0.01699
C 27.06399 0.02572 -0.00416
C 29.55477 32.5823 0.01177
C 30.73396 31.94211 0.04266
C 30.77475 30.53891 0.01324
C 29.49043 29.87686 0.0014
C 29.48891 28.39924 0.00924
C 28.28615 14.9406 0.00152
C 3.66238 31.98718 -0.03113
C 27.03236 15.61937 -0.00294
C 28.30525 17.76292 0.00487
C 24.57746 4.3225 -0.00229
C 24.58866 2.81491 -0.00938
C 25.86618 2.20223 -0.0264
C 25.88173 0.73178 -0.01154
C 24.66342 34.06959 0.00684
C 27.00984 32.61417 -0.01052
C 28.31107 31.96396 -0.01679
C 28.29759 30.52625 0.00367
C 27.17847 29.86045 0.04306
C 27.02408 28.44215 0.00996
C 28.27866 27.679 0.00195
C 28.28664 26.25667 -0.00802
C 26.95491 25.5951 -0.00218
C 26.97519 24.17402 -0.01654
C 28.2239 23.41999 -0.00037
C 28.26388 21.99798 -0.0032
C 27.07542 21.24806 0.00622
C 26.95982 19.81889 -0.02815
C 28.27671 19.16405 -0.00942
C 27.00227 17.06728 0.00826
C 2.42912 32.64408 0.017
