323
Graphene
C 0.01785 0.03308 0.01295
C 9.8881 25.53769 -0.00289
C 9.82423 24.19703 0.00028
C 11.09493 23.46661 -0.02213
C 11.0838 21.99243 0.03698
C 9.88542 21.31028 -0.00109
C 9.8561 19.87653 -0.00491
C 11.00981 19.1162 0.03338
C 11.04058 26.2467 -0.00066
C 11.05193 17.63328 -0.0258
C 9.82373 15.60176 -0.00316
C 11.11798 14.9364 0.02188
C 11.10399 13.46588 -0.01979
C 9.88046 12.77874 0.02691
C 9.88271 11.34705 -0.01581
C 11.04651 10.71641 0.01452
C 11.07905 9.18907 0.04892
C 9.82907 16.96589 -0.0331
C 9.79078 8.4962 -0.00111
C 11.1092 27.62464 0.00213
C 9.79301 29.81708 -0.04147
C 7.35153 12.81191 -0.00114
C 7.37701 11.33575 0.00228
C 8.57547 10.70083 0.00798
C 8.51039 9.30095 0.00422
C 7.39288 8.54093 0.0351
C 7.40291 7.09911 -0.03113
C 8.62739 6.39281 0.02098
C 9.85508 28.41651 -0.05302
C 8.59781 4.97646 0.01848
C 7.38738 2.8484 -0.02162
C 8.62521 2.16535 0.00889
C 8.59718 0.79527 -0.00481
C 7.34518 0.00092 0.00979
C 9.82963 32.73419 0.01443
C 11.07807 31.89016 0.03505
C 11.07735 30.51335 -0.02815
C 7.4066 4.29149 -0.00619
C 9.90567 7.07488 -0.03557
C 11.06077 6.33535 0.03754
C 11.05876 4.98672 0.01739
C 13.52613 13.45574 -0.01721
C 12.23474 12.74864 -0.02422
C 12.3121 11.33906 0.01277
C 13.58942 10.64628 0.00096
C 13.5251 9.25525 -0.01527
C 12.32904 8.51255 0.01087
C 12.26939 7.16822 0.00199
C 13.51588 14.93691 -0.01154
C 13.50921 6.31963 0.01511
C 12.28942 4.22207 -0.01662
C 12.30237 2.87391 -0.01185
C 13.54314 2.08299 0.01126
C 13.49289 0.69881 0.01852
C 12.28394 0.01444 -0.00381
C 14.77877 32.62055 0.03046
C 16.04268 31.99315 0.0296
C 13.5394 4.92006 -0.00478
C 12.32035 15.60681 0.0106
C 12.32503 17.00395 -0.01594
C 13.56251 17.71482 0.00742
C 9.78406 4.25361 0.00755
C 9.82895 2.81877 -0.0054
C 11.08613 2.0856 0.00667
C 11.09331 0.67082 0.00143
C 9.82408 0.04571 -0.017
C 12.26093 32.6661 0.00364
C 13.5028 31.97028 -0.00831
C 13.47073 30.57826 -0.02957
C 12.27804 29.8731 -0.04422
C 12.29557 28.42279 0.00654
C 13.52643 27.62439 -0.00703
C 12.32654 25.52984 -0.04076
C 12.34535 24.19787 -0.00652
C 13.52412 22.04376 0.0058
C 12.34774 21.32397 -0.00865
C 12.31893 19.87904 0.00675
C 13.515 19.12002 -0.00311
C 8.59036 13.44986 -0.02696
C 15.92696 30.49644 0.03374
C 8.64732 14.9294 -0.00368
C 7.34879 17.03462 -0.01957
C 3.66368 9.23298 0.00057
C 2.42264 8.5502 -0.01634
C 2.45994 7.10014 -0.00334
C 3.64499 6.41085 0.02339
C 3.69745 5.0085 0.01641
C 2.52096 4.25791 -0.00719
C 2.44491 2.85207 0.01364
C 3.69259 10.59151 0.00093
C 3.66529 2.1426 -0.01062
C 2.46327 34.06557 0.03589
C 4.88245 32.6344 -0.02759
C 6.17693 31.9336 0.0402
C 6.1836 30.54191 0.00572
C 4.87077 29.89228 0.03592
C 4.92927 28.3769 0.00406
C 6.1236 27.70011 0.00943
C 3.6673 0.72966 -0.00033
C 6.14972 26.31785 0.02841
C 2.4633 11.31044 0.01291
C 3.67572 13.52492 -0.00191
C 3.65487 30.57482 0.00393
C 2.43317 29.82601 0.00895
C 2.45354 28.41378 0.00685
C 3.68568 27.7294 0.02888
C 3.70168 26.22096 -0.00482
C 2.46497 25.57339 -0.01384
C 2.47531 24.15802 0.03693
C 2.49085 12.78678 0.00438
C 3.62778 23.48144 0.01745
C 2.44631 21.33932 -0.01004
C 2.44054 19.88516 -0.02896
C 3.6614 19.18126 -0.00131
C 3.66646 17.77054 -0.01118
C 2.4856 16.99192 -0.014
C 2.50422 15.64048 0.02147
C 3.67698 14.91415 0.00373
C 3.73618 22.00247 0.00488
C 4.92156 25.55645 -0.01111
C 4.85557 24.14179 -0.01275
C 6.1138 23.52175 0.00985
C 4.90906 0.00404 0.01241
C 7.40938 32.62815 -0.01454
C 8.5953 31.98291 0.01945
C 8.64641 30.54353 0.01416
C 7.34875 29.78231 0.03542
C 7.44313 28.38079 0.02299
C 8.54477 27.63933 0.00244
C 6.12714 0.76483 0.0076
C 8.57305 26.29462 -0.01717
C 7.35569 24.13264 -0.01952
C 8.63777 23.45402 -0.02813
C 8.61554 21.92462 0.00374
C 7.40055 21.3126 0.00052
C 7.41855 19.92676 -0.03682
C 8.61203 19.19778 0.01965
C 8.59524 17.72884 0.02058
C 7.34843 25.50423 0.05265
C 6.14759 2.12111 0.02162
C 4.96282 2.85369 -0.0014
C 4.91625 4.23791 0.00415
C 6.14501 22.05433 -0.02245
C 4.91969 21.37261 -0.00428
C 4.88209 19.89232 0.03101
C 6.19494 19.15788 -0.01536
C 6.20157 17.7523 -0.02689
C 4.95772 17.09226 -0.01046
C 4.91033 15.52103 -0.00891
C 6.15025 14.88501 0.02819
C 6.10708 13.5072 0.00165
C 4.86577 12.74154 -0.02971
C 4.91385 11.35395 0.02894
C 6.13129 10.68457 -0.01789
C 6.12466 9.25435 0.00444
C 4.94057 8.46683 -0.00925
C 4.90414 7.12575 0.01877
C 6.14486 6.40753 0.01363
C 6.17716 4.98002 -0.02162
C 7.37107 15.61065 -0.0108
C 3.69598 31.96002 0.0288
C 14.81849 29.87051 -0.02845
C 14.76306 17.08154 0.02239
C 33.1659 27.73128 0.00682
C 33.23923 26.26283 -0.01779
C 31.98957 25.6074 0.03794
C 31.98591 24.16392 0.01927
C 33.24508 23.46967 0.01574
C 33.18109 22.08457 -0.02383
C 31.95731 21.35064 -0.01429
C 31.99 28.41745 0.00026
C 31.90479 19.89749 -0.0136
C 33.21411 17.79406 -0.02474
C 32.00431 17.01062 0.00369
C 32.00291 15.58405 0.00455
C 33.19289 14.9324 -0.00644
C 33.16646 13.5289 -0.01839
C 31.97354 12.77249 0.00137
C 31.90203 11.33491 0.00199
C 33.14669 19.217 0.00594
C 33.18059 10.635 0.04381
C 32.00924 29.80444 0.0544
C 33.16092 31.99435 0.01428
C 30.72967 23.45608 -0.01303
C 30.78148 22.07414 -0.01461
C 29.55228 21.25225 -0.02155
C 29.51064 19.88514 -0.00944
C 30.69916 19.17947 -0.03735
C 30.75273 17.74866 -0.00971
C 29.49848 17.07469 0.01518
C 33.13768 30.52512 -0.02142
C 29.4884 15.6368 0.01908
C 30.71156 13.42789 0.0103
C 29.50383 12.82754 0.02108
C 29.50172 11.32306 0.00716
C 30.71334 10.70159 0.00307
C 30.71341 0.63251 0.00346
C 29.51155 0.00927 0.01713
C 31.96422 32.68595 -0.01694
C 30.78325 14.91147 0.07705
C 33.21381 9.2589 0.02806
C 31.94753 8.53055 0.01504
C 33.19523 6.40955 -0.00069
C 34.41963 17.03038 0.00648
C 34.37663 15.66153 0.02114
C 1.26779 14.90809 -0.02957
C 1.24996 13.45125 0.00343
C 0.04836 12.74709 -0.02656
C 34.3998 11.38421 -0.02442
C 1.20802 10.69434 -0.00027
C 1.24028 17.74569 0.01223
C 1.20631 9.22507 -0.00583
C 34.40941 7.07639 -0.02849
C 1.20224 6.40056 0.02931
C 1.26889 4.99453 0.00628
C 0.01051 4.16542 -0.0345
C 0.03471 2.78911 -0.00931
C 1.26584 2.14895 -0.00939
C 1.24114 0.75105 -0.00468
C 0.00948 8.47552 -0.02302
C 1.19292 19.19224 -0.01678
C 0.03169 19.84156 0.01951
C 34.38661 21.25904 -0.02213
C 33.15125 5.01133 0.04926
C 31.95172 4.18822 -0.03838
C 31.95018 2.93534 0.00349
C 33.17359 2.11976 -0.00323
C 33.21915 0.64474 -0.00841
C 32.00182 34.07438 0.0001
C 3e-05 32.69126 -0.02927
C 1.28374 31.94321 -0.01404
C 1.22567 30.46145 0.01027
C 0.00169 29.82524 0.01831
C 0.03675 28.38575 -0.01037
C 1.2029 27.6655 -0.00439
C 1.24854 26.24652 -0.00598
C 34.43205 25.58817 -0.05239
C 34.41755 24.16894 0.03076
C 1.2428 23.51192 0.00723
C 1.19032 22.03087 0.02712
C 29.57079 24.19586 -0.0405
C 15.9872 17.73808 -0.03213
C 29.50973 25.56754 0.01705
C 30.74402 27.67186 -0.00669
C 18.44048 2.1822 0.03102
C 18.46473 0.69277 0.02555
C 17.17609 34.05016 0.01423
C 19.67973 32.64225 -0.00285
C 20.91656 31.97727 -0.009
C 19.73081 17.06833 -0.01199
C 19.6104 15.57635 -0.00229
C 17.22676 2.79583 0.00135
C 20.9023 14.93901 -0.00938
C 19.76569 12.81098 -0.01154
C 20.82938 0.64731 0.00684
C 19.62037 0.00223 -0.01052
C 22.14223 32.57583 -0.01679
C 23.34458 31.97751 0.00367
C 22.15653 16.99462 0.04306
C 22.13801 15.6947 0.00996
C 20.91158 13.54004 -0.0264
C 23.36965 14.90319 0.00195
C 17.23888 12.80993 -0.00498
C 18.37207 14.89564 0.02117
C 14.71377 15.64263 0.01153
C 15.95911 14.91344 0.02734
C 16.027 13.42864 -0.0055
C 14.75895 12.76783 0.01515
C 14.69481 11.41089 -0.00225
C 14.73616 8.51761 0.00071
C 14.72484 7.2067 -0.01107
C 18.44395 13.49388 0.02737
C 14.72425 4.2416 -0.01586
C 15.97862 2.17416 -0.02118
C 15.98684 0.71648 0.00733
C 14.76748 34.05769 -0.00178
C 17.19058 32.6349 0.00768
C 18.4206 31.98164 -0.0276
C 17.15366 17.08284 0.03005
C 17.17094 15.68703 -0.04078
C 14.76142 2.80687 -0.01971
C 23.35869 13.47079 -0.00802
C 22.09096 12.80574 -0.00218
C 23.39282 0.71031 -0.01654
C 28.30177 22.01062 0.01699
C 27.00511 21.22718 -0.00416
C 26.97999 19.87903 0.01177
C 28.31909 19.15231 0.04266
C 28.26543 17.70623 0.01324
C 27.02667 17.04027 0.0014
C 27.09078 15.56859 0.00924
C 28.32697 23.41683 0.01799
C 28.32916 14.91085 0.02326
C 27.02114 12.75383 0.03265
C 27.07454 33.96323 -0.02049
C 29.5011 32.65925 -0.01854
C 30.7139 31.95773 -0.01415
C 30.77953 30.54249 -0.03039
C 29.5679 29.78272 0.01836
C 29.50795 28.41878 0.03531
C 28.18856 13.47413 0.00261
C 28.23944 26.2509 0.01259
C 28.24998 27.60961 0.01495
C 27.03382 28.42105 0.00235
C 22.16666 0.01481 -0.00037
C 24.62947 32.67313 -0.0032
C 25.73019 31.92838 0.00622
C 25.7651 30.46817 -0.02815
C 25.84785 19.13184 -0.00942
C 25.79898 17.73571 0.00487
C 24.61195 16.97073 0.00826
C 24.62806 15.60005 -0.00294
C 25.86336 14.88986 0.00152
C 25.82563 13.48482 0.01257
C 24.60593 12.68097 0.02316
C 24.56179 11.32992 0.04185
C 24.54431 0.04691 0.00194
C 27.10234 32.61334 -0.00621
C 28.3719 31.90672 0.02611
C 28.27665 30.49949 0.02198
C 27.0417 29.78546 0.01094
C 30.75217 26.27952 0.0101
C 2.45619 32.65764 -0.0008
