299
Graphene
C 34.39754 0.02233 0.01295
C 12.33529 8.71857 -0.03557
C 12.30796 7.15891 0.03754
C 13.48411 6.34115 0.01739
C 13.49084 4.96329 0.00755
C 12.26677 4.21169 -0.0054
C 12.29109 2.84728 0.00667
C 13.66754 9.34584 -0.00111
C 13.55877 2.2423 0.00143
C 12.36193 0.12104 0.00364
C 14.72573 32.61022 -0.00831
C 15.98003 31.87648 -0.02957
C 15.97143 30.48039 -0.04422
C 14.70631 29.89903 0.00654
C 14.76198 28.46316 -0.00703
C 13.55895 0.80494 -0.017
C 14.23236 10.54481 0.04892
C 14.34033 26.22518 0.01452
C 13.69022 27.44343 -0.01581
C 11.0131 9.32325 0.00213
C 9.81566 8.73062 -0.00066
C 9.78762 7.27207 -0.00289
C 11.00543 6.64971 0.00028
C 11.06121 5.02482 -0.02213
C 9.8106 4.33796 0.03698
C 9.76786 2.87281 -0.00109
C 11.0548 2.16384 -0.00491
C 11.05176 0.74188 0.03338
C 9.85024 0.01708 -0.0258
C 12.24934 32.64735 -0.0331
C 13.3996 31.9509 -0.00316
C 13.43939 30.48135 0.02188
C 12.28109 29.72124 -0.01979
C 12.42651 28.1695 0.02691
C 16.02247 27.64699 -0.04076
C 15.65109 26.30683 -0.00652
C 15.65082 10.5802 0.0058
C 15.91334 9.13997 -0.00865
C 18.4707 12.00688 -0.00381
C 16.63915 11.38964 0.03046
C 17.86727 10.5786 0.0296
C 18.40053 9.40579 0.03374
C 17.27734 8.66115 -0.02845
C 17.28051 7.15792 -0.03213
C 18.40138 6.40097 0.02239
C 18.45205 4.9397 0.01153
C 17.18524 4.28323 0.02734
C 17.21426 2.81031 -0.0055
C 18.45267 2.12299 0.01515
C 18.42651 0.74871 -0.00225
C 17.21419 0.03632 0.00071
C 19.594 32.61442 -0.01107
C 20.82487 31.97653 -0.01586
C 18.39802 23.81072 0.01852
C 11.08483 27.59203 -0.05302
C 17.0959 24.07794 0.01126
C 18.24912 26.18681 -0.01662
C 14.76919 8.41464 0.00675
C 14.75563 7.0024 -0.00311
C 16.05366 6.37285 0.00742
C 16.02873 4.97616 -0.01594
C 14.84947 4.31507 0.0106
C 14.72977 2.94622 -0.01154
C 15.91048 2.17127 -0.01721
C 15.97019 0.73863 -0.02422
C 14.75174 34.07271 0.01277
C 17.21305 32.66137 0.00096
C 18.4241 31.97643 -0.01527
C 18.42532 30.42824 0.01087
C 17.19231 29.68892 0.00199
C 17.22451 28.30815 0.01511
C 18.41227 27.66216 -0.00478
C 16.88014 25.40118 -0.01185
C 20.86357 30.52254 -0.01971
C 9.88172 28.44177 -0.04147
C 11.02347 30.54169 0.03505
C 2.43493 8.65655 -0.01536
C 2.36667 7.20256 -0.02689
C 3.63192 6.40651 -0.01046
C 3.6926 4.95999 -0.00891
C 2.42219 4.25747 0.02819
C 2.44145 2.82779 0.00165
C 3.72355 9.30209 0.03101
C 3.71851 2.13414 -0.02971
C 2.43198 0.05971 -0.01789
C 4.9269 32.63861 0.00444
C 6.16383 31.95212 -0.00925
C 6.11236 30.56714 0.01877
C 4.88853 29.87914 0.01363
C 4.80173 28.45038 -0.02162
C 3.74821 0.70512 0.02894
C 3.84763 10.72199 -0.00428
C 2.57678 11.39281 -0.02245
C 2.45897 12.80233 0.00985
C 3.62294 30.60485 0.01641
C 2.45239 29.85844 -0.00719
C 2.32621 28.49064 0.01364
C 3.55718 27.7152 -0.01062
C 3.53567 26.2575 -0.00033
C 2.27677 25.53252 0.03589
C 2.30296 24.16544 -0.02759
C 3.60883 23.36437 0.0402
C 3.49454 21.99832 0.00572
C 2.41549 21.17844 0.03592
C 2.40027 19.71998 0.00406
C 2.39604 17.14655 0.00943
C 2.54315 15.82563 0.02841
C 3.73446 14.88033 -0.01111
C 3.80561 13.50055 -0.01275
C 6.06228 27.80365 0.00415
C 6.09092 26.21928 -0.0014
C 4.78673 25.51067 0.02162
C 4.93958 24.1315 0.0076
C 8.36238 26.35754 -0.02696
C 7.3685 25.70312 -0.00114
C 7.74431 10.68467 0.00228
C 8.4383 9.18285 0.00798
C 7.24587 8.4578 0.00422
C 7.32897 7.1015 0.0351
C 8.6066 6.4653 -0.03113
C 8.58623 5.06631 0.02098
C 7.35931 4.2444 0.01848
C 7.33288 2.91527 -0.00619
C 8.50674 2.22792 -0.02162
C 8.57145 0.74235 0.00889
C 7.33 0.01588 -0.00481
C 9.86038 32.67477 0.00979
C 11.06229 31.99725 0.01443
C 8.62126 27.81023 -0.00368
C 9.81629 29.93348 -0.02815
C 7.338 28.4835 -0.0108
C 8.52781 30.59005 0.02058
C 4.98083 12.65221 0.01241
C 5.21123 11.38947 -0.01454
C 6.3979 10.58194 0.01945
C 6.0665 9.18468 0.01416
C 4.83789 8.49165 0.03542
C 4.86073 7.06533 0.02299
C 6.1362 6.39519 0.00244
C 6.16033 4.93621 -0.01717
C 4.88992 4.28972 0.05265
C 4.88143 2.92176 -0.01952
C 6.09998 2.2189 -0.02813
C 6.139 0.69766 0.00374
C 4.93852 34.04966 0.00052
C 7.39517 32.69139 -0.03682
C 8.58746 31.98184 0.01965
C 7.30082 29.86671 -0.01957
C 3.61054 32.09566 0.02339
C 19.68429 29.69351 -0.02118
C 20.92903 27.66147 -0.00178
C 31.67894 24.26747 -0.02383
C 32.92673 23.5529 -0.01429
C 32.87541 22.11346 -0.0136
C 31.79577 21.19881 0.00594
C 33.06033 19.14326 -0.02474
C 33.23893 17.72497 0.00369
C 31.95454 25.70305 0.01574
C 33.12321 14.98708 0.00455
C 31.94081 12.85227 -0.01839
C 31.71555 11.46542 0.00137
C 33.11666 10.73612 0.00199
C 33.21677 9.34239 0.04381
C 32.04981 8.56026 0.02806
C 31.88595 7.15747 0.01504
C 33.11494 13.54802 -0.00644
C 33.17072 26.34444 0.01927
C 33.08248 27.78032 0.03794
C 31.84582 28.38618 -0.01779
C 30.53955 10.57704 0.01518
C 30.69334 9.23444 0.01908
C 29.49191 8.55724 0.07705
C 29.48338 7.12455 0.0103
C 30.66752 6.44609 0.02108
C 30.66028 5.02412 0.00716
C 29.48627 4.31495 0.00307
C 29.49938 2.93286 0.00346
C 30.65897 2.24164 0.01713
C 30.72942 0.82722 -0.01694
C 29.50118 0.06151 0.01428
C 31.84769 32.70758 -0.02142
C 33.07636 32.01942 0.0544
C 33.10086 30.56536 0.00026
C 31.8966 29.80754 0.00682
C 33.14906 6.42414 -0.00069
C 33.15103 5.07674 0.04926
C 31.91463 4.32042 -0.03838
C 31.98003 2.93864 0.00349
C 34.40079 15.62105 0.02114
C 1.28862 14.95307 -0.02957
C 1.30035 13.58763 0.00343
C 0.01744 12.89611 -0.02656
C 34.39033 11.52165 -0.02442
C 1.14504 10.74428 -0.00027
C 1.23047 9.39294 -0.00583
C 34.42992 8.59559 -0.02302
C 34.40843 7.21272 -0.02849
C 1.19892 6.43426 0.02931
C 1.16644 4.96952 0.00628
C 34.38032 4.2683 -0.0345
C 34.38319 2.86324 -0.00931
C 1.20109 2.15043 -0.00939
C 1.23005 0.73366 -0.00468
C 34.34567 17.00626 0.00648
C 30.39287 24.1918 -0.00971
C 1.08874 17.80198 0.01223
C 34.21963 19.92985 0.01951
C 33.14637 2.22099 -0.00323
C 33.16213 0.75765 -0.00841
C 31.93932 0.0255 0.0001
C 34.36489 32.66766 -0.02927
C 1.20459 31.98185 -0.01404
C 1.16519 30.59872 0.01027
C 34.32717 29.88596 0.01831
C 34.33477 28.47436 -0.01037
C 1.1079 27.72895 -0.00439
C 1.05658 26.23719 -0.00598
C 34.29903 25.524 -0.05239
C 34.25347 24.12047 0.03076
C 1.06737 23.46921 0.00723
C 1.098 21.97116 0.02712
C 34.18242 21.3183 -0.02213
C 1.11226 19.26735 -0.01678
C 19.64775 28.21796 0.00733
C 29.52519 25.59001 -0.03735
C 30.63452 27.74008 -0.02155
C 23.30625 26.34283 -0.01052
C 22.15682 25.76144 -0.01679
C 23.3557 9.12055 0.00367
C 22.11913 8.69048 0.04306
C 22.08887 7.13051 0.00996
C 23.34481 6.43664 0.00195
C 23.30557 27.75458 0.00684
C 23.32224 5.05976 -0.00802
C 22.10555 2.891 -0.01654
C 23.27962 2.10591 -0.00037
C 23.35028 0.63157 -0.0032
C 22.06483 34.06818 0.00622
C 24.55114 32.53864 -0.02815
C 25.75649 31.93862 -0.00942
C 22.0961 4.31492 -0.00218
C 22.07266 28.47141 -0.01154
C 22.07079 29.83426 -0.0264
C 23.32498 30.55746 -0.00938
C 20.8271 26.14082 0.00768
C 19.50949 25.46262 -0.0276
C 19.75385 23.92555 0.03005
C 20.85953 9.23176 -0.04078
C 19.63436 8.62476 0.02117
C 19.64114 7.09084 0.02737
C 20.92199 6.48604 -0.00498
C 20.86292 5.00406 0.00135
C 19.64788 4.29318 0.03102
C 19.65911 2.8701 0.02555
C 20.92856 2.14479 0.01423
C 20.86037 0.65524 -0.00285
C 19.59016 34.07701 -0.009
C 22.12787 32.69769 -0.01199
C 23.3161 31.97071 -0.00229
C 25.80185 30.53146 0.00487
C 24.5412 29.90038 0.00826
C 24.5757 28.51196 -0.00294
C 25.75788 27.68519 0.00152
C 28.3599 9.29435 0.02326
C 27.07702 8.78639 0.00261
C 27.07402 7.20917 0.03265
C 28.23205 6.46451 -0.02049
C 28.25216 4.9871 -0.01854
C 27.03416 4.22159 -0.01415
C 27.04213 2.83251 -0.03039
C 28.27747 2.14167 0.01836
C 28.21778 0.73218 0.03531
C 26.96389 0.03631 -0.00669
C 29.44992 32.70895 0.0101
C 30.63121 31.95105 0.01705
C 30.66322 30.54012 -0.0405
C 29.46301 29.82175 -0.01303
C 29.41013 28.38953 -0.01461
C 26.97097 25.60549 0.00924
C 30.717 26.35412 -0.00944
C 28.23533 26.09915 0.0014
C 27.05786 28.29531 0.04266
C 25.8653 26.29072 0.01257
C 25.78349 9.28836 0.02316
C 24.62896 8.46374 0.04185
C 24.61538 7.05098 0.00194
C 25.82929 6.40718 -0.00621
C 25.79327 4.98957 0.02611
C 24.57066 4.36945 0.02198
C 24.5359 2.87323 0.01094
C 25.72785 2.2243 0.00235
C 25.73792 0.77478 0.01495
C 24.5719 33.99867 0.01259
C 26.9164 32.71517 0.01799
C 28.14447 32.05749 0.01699
C 28.22614 30.52141 -0.00416
C 26.99759 29.72461 0.01177
C 28.28816 27.54805 0.01324
C 2.36792 32.73519 -0.00334
