436
Graphene
C 0.03993 0.00445 0.01295
C 13.58429 9.22427 0.02339
C 12.28566 8.60105 0.01641
C 12.27556 7.17467 -0.00719
C 13.54408 6.3915 0.01364
C 13.56909 4.99434 -0.01062
C 12.34214 4.29968 -0.00033
C 12.24968 2.8263 0.03589
C 13.47277 2.09286 -0.02759
C 13.48229 0.57352 0.0402
C 12.28188 34.05182 0.00572
C 14.8297 32.68594 0.03592
C 16.01929 31.89721 0.00406
C 16.05571 30.50237 0.00943
C 14.81841 29.80375 0.02841
C 14.75129 28.47862 -0.01111
C 15.98167 27.63807 -0.01275
C 15.95624 26.20137 0.00985
C 14.69265 25.47836 -0.02245
C 14.77381 24.06273 -0.00428
C 15.93057 23.39518 0.03101
C 15.96955 22.02946 -0.01536
C 14.76774 21.29029 -0.02689
C 14.73896 19.90294 -0.01046
C 13.44041 10.71028 -0.00334
C 15.9844 19.19256 -0.00891
C 12.29736 11.39914 -0.01634
C 13.54292 13.50707 0.00093
C 9.83764 4.27511 -0.00892
C 9.81482 2.86158 -0.01362
C 11.04791 2.11838 -0.0008
C 11.10297 0.76767 0.0288
C 9.86135 0.09843 0.00393
C 12.26526 32.67614 0.00895
C 13.51554 32.02638 0.00685
C 13.55142 30.4883 0.02888
C 12.30777 29.81099 -0.00482
C 12.34937 28.43017 -0.01384
C 13.60326 27.65689 0.03693
C 13.50099 26.2108 0.01745
C 12.27534 25.57111 0.00488
C 12.29895 24.12105 -0.01004
C 13.4558 23.40318 -0.02896
C 13.56424 22.00266 -0.00131
C 12.40198 21.32903 -0.01118
C 12.33252 19.9096 -0.014
C 13.55703 19.24204 0.02147
C 13.46995 17.87388 0.00373
C 12.26085 17.07903 -0.00191
C 12.27054 15.57483 0.00438
C 13.55769 14.87908 0.01291
C 12.30181 12.87663 0.00057
C 15.99957 17.71373 0.02819
C 14.70488 17.08834 0.00165
C 14.71661 15.67334 -0.02971
C 18.44408 19.14306 -0.0108
C 18.51751 17.79405 -0.00368
C 17.24988 17.0094 -0.02696
C 17.23247 15.59404 -0.00114
C 18.47556 14.88158 0.00228
C 18.46266 13.44345 0.00798
C 17.15698 12.77653 0.00422
C 17.18119 11.34713 0.0351
C 18.48833 10.59313 -0.03113
C 18.47832 9.16414 0.02098
C 17.21004 8.55533 0.01848
C 17.13282 7.10135 -0.00619
C 18.37413 6.40276 -0.02162
C 18.35989 5.02436 0.00889
C 17.19369 4.29398 -0.00481
C 17.22395 2.8558 0.00979
C 18.48352 2.09433 0.01443
C 18.46253 0.71007 0.03505
C 17.20218 0.03486 -0.02815
C 19.6896 32.68785 -0.04147
C 20.94062 31.96399 -0.05302
C 20.88015 30.56041 0.00213
C 19.6885 29.78953 -0.00066
C 17.21751 19.85223 -0.01957
C 17.19948 21.31561 0.02058
C 18.47387 22.04391 0.01965
C 18.38578 23.43196 -0.03682
C 15.93137 14.95827 0.02894
C 15.90297 13.51913 -0.01789
C 14.74218 12.76715 0.00444
C 14.69074 11.3707 -0.00925
C 15.96469 10.65748 0.01877
C 16.01475 9.21429 0.01363
C 14.75382 8.49319 -0.02162
C 14.75719 7.03326 0.00415
C 15.92598 6.35577 -0.0014
C 15.96026 4.94629 0.02162
C 14.72442 4.24825 0.0076
C 11.12033 4.96705 -0.04848
C 14.79509 2.82064 0.01241
C 15.95616 0.73325 0.01945
C 14.78201 34.047 0.01416
C 17.19867 32.67004 0.03542
C 18.42425 31.98417 0.02299
C 18.46161 30.57806 0.00244
C 17.24916 29.76617 -0.01717
C 17.18468 28.4071 0.05265
C 18.41968 27.7136 -0.01952
C 18.41326 26.27489 -0.02813
C 17.1856 25.55738 0.00374
C 17.20169 24.1869 0.00052
C 16.00734 2.1163 -0.01454
C 19.70139 28.38702 -0.00289
C 11.10914 6.41216 0.01572
C 9.84781 8.53271 0.03007
C 4.85262 25.71865 -0.02375
C 4.92168 24.19225 0.00558
C 6.15422 23.40134 -0.0059
C 6.11172 21.99634 -0.01386
C 4.90479 21.32397 -0.02805
C 4.97189 19.83026 0.00081
C 6.2376 19.18909 0.00245
C 6.13967 17.74105 0.02728
C 5.00021 17.01227 -0.00039
C 4.94265 15.62534 0.0064
C 6.05862 14.89546 0.00211
C 6.11903 13.55222 -0.00449
C 4.91227 12.77453 -0.01979
C 4.93184 11.31125 0.02784
C 6.15155 10.64912 -0.01977
C 6.19764 9.22486 -0.00561
C 4.91356 8.46057 0.00208
C 4.93462 7.07072 0.01707
C 6.07332 6.34369 0.02769
C 6.11647 5.06174 -0.03291
C 4.88327 4.30149 -0.04999
C 4.9071 2.87535 0.04505
C 6.15412 2.15376 0.03284
C 6.1385 26.13414 0.00828
C 6.18816 0.74912 -0.04307
C 4.9678 32.74845 0.00088
C 3.68667 0.75286 -0.00177
C 2.46235 25.53882 0.01984
C 2.42819 24.07345 0.00535
C 3.68718 23.43617 -0.00198
C 3.72101 21.99377 -0.00012
C 2.46481 21.29537 -0.04306
C 2.47285 19.92516 -0.03672
C 3.71021 19.22744 0.01913
C 3.67261 17.78924 0.00267
C 2.49885 17.02624 0.00787
C 2.52565 15.63148 0.02426
C 3.69157 14.91951 0.01218
C 3.65472 13.36058 -0.01471
C 2.42774 12.74921 -0.02827
C 2.37489 11.35651 0.01078
C 3.60679 10.5729 -0.00112
C 3.68178 9.19207 0.03345
C 2.44183 8.53644 0.00748
C 2.43155 7.10101 0.00662
C 3.73232 6.3342 -0.0154
C 3.67563 5.00027 -0.01299
C 2.44474 4.26886 -0.00407
C 2.51486 2.86038 0.01138
C 3.686 2.10855 0.03278
C 2.48528 34.02871 0.04421
C 4.96132 0.00492 0.03189
C 7.33461 32.73003 0.00031
C 8.51009 31.97929 -0.003
C 9.8795 32.71248 -0.01343
C 11.07765 32.01316 0.00988
C 11.08679 30.59232 0.0276
C 9.82467 29.9378 0.01305
C 9.74634 28.5157 -0.00077
C 11.01714 27.74437 0.03368
C 11.03768 26.32861 -0.02929
C 9.77478 25.57804 -0.00966
C 9.83971 24.18078 -0.03337
C 11.07028 23.41941 0.01227
C 11.11119 21.97151 0.00873
C 9.83997 21.36575 -0.00049
C 9.82645 19.95943 0.00848
C 11.05636 19.21268 -0.01303
C 10.99695 17.75915 -0.01378
C 9.76687 17.08815 0.02635
C 9.8282 15.60729 0.0127
C 11.08548 14.92338 0.01396
C 11.02661 13.53936 0.01849
C 9.81822 12.81739 -0.01142
C 9.92728 11.43403 -0.00562
C 11.09448 10.6369 -0.00494
C 11.04489 9.2358 0.00054
C 7.3204 34.04686 0.01087
C 8.62062 0.72473 -0.05697
C 8.5352 2.18941 -0.00725
C 7.31075 2.87471 0.02322
C 8.54513 30.55498 0.01402
C 8.57969 27.67498 0.02379
C 8.58412 26.33878 0.00907
C 7.31792 25.57997 0.00643
C 7.39115 24.16452 -0.01509
C 8.59823 23.43166 0.03267
C 8.61021 22.00738 0.02374
C 7.37223 21.33046 0.00402
C 7.44171 19.90464 0.0073
C 8.63864 19.21535 0.0174
C 8.58326 17.74746 0.03828
C 9.8184 7.11201 -0.00095
C 7.33037 17.02796 0.01226
C 8.53822 14.97389 0.01996
C 8.65086 13.50805 -0.03996
C 7.40774 12.73684 0.01465
C 7.42382 11.32611 -0.00074
C 8.63324 10.68524 -0.00518
C 8.61645 9.2631 0.0086
C 7.42768 8.53739 -0.00643
C 7.36259 7.08341 0.017
C 8.57746 6.39125 -0.03113
C 8.60772 4.99922 -0.02566
C 7.42006 4.30791 -0.00094
C 7.35327 15.52769 -0.00279
C 20.97062 27.6734 0.00028
C 20.92482 26.295 -0.02213
C 19.67419 25.5934 0.03698
C 30.75943 14.85969 -0.0405
C 30.68167 13.48668 -0.01303
C 29.56405 12.71265 -0.01461
C 29.47264 11.30052 -0.02155
C 30.69892 10.67092 -0.00944
C 30.70224 9.18079 -0.03735
C 29.47248 8.55275 -0.00971
C 29.51567 7.12297 0.01518
C 30.74426 6.32374 0.01908
C 30.76154 4.95826 0.07705
C 29.53135 4.30025 0.0103
C 29.60014 2.80149 0.02108
C 30.7656 2.06233 0.00716
C 30.75705 0.67762 0.00307
C 29.53833 34.02848 0.00346
C 31.93329 32.63073 0.01713
C 33.20366 31.92711 -0.01694
C 33.19711 30.54927 0.01428
C 31.96231 29.85032 -0.02142
C 31.99482 28.46829 0.0544
C 33.21297 27.7223 0.00026
C 33.22692 26.34884 0.00682
C 31.92905 25.60352 -0.01779
C 29.53526 15.63033 0.01705
C 31.96391 24.14824 0.03794
C 29.5826 17.07381 0.0101
C 30.74827 19.16953 0.03531
C 28.24488 9.1853 -0.00621
C 27.02031 8.54327 0.02611
C 27.07607 7.13543 0.02198
C 28.3069 6.44654 0.01094
C 28.21598 4.88292 0.00235
C 26.99764 4.22353 0.01495
C 27.05679 2.81282 0.01259
C 28.36698 2.12315 0.01799
C 28.23737 0.65791 0.01699
C 26.99309 34.06478 -0.00416
C 29.51938 32.59342 0.01177
C 30.67584 31.91737 0.04266
C 30.74075 30.46393 0.01324
C 29.50427 29.87612 0.0014
C 29.53721 28.44843 0.00924
C 30.75326 27.70492 0.02326
C 30.721 26.2346 0.00261
C 29.44894 25.50183 0.03265
C 29.45377 24.15877 -0.02049
C 30.74353 23.44463 -0.01854
C 30.81057 21.98067 -0.01415
C 29.52398 21.29119 -0.03039
C 29.46133 19.921 0.01836
C 30.74948 17.79076 -0.00669
C 33.19246 23.50787 0.01927
C 33.17494 22.04438 0.01574
C 31.93801 21.29218 -0.02383
C 0.00265 24.20808 0.03076
C 1.22445 23.42475 0.00723
C 1.24998 22.0016 0.02712
C 34.40049 21.27375 -0.02213
C 34.37983 19.86001 0.01951
C 1.17989 19.19432 -0.01678
C 1.20774 17.83451 0.01223
C 34.43198 16.98386 0.00648
C 0.0102 15.56376 0.02114
C 1.18458 14.90416 -0.02957
C 1.21256 13.50291 0.00343
C 0.01456 12.78345 -0.02656
C 34.34468 11.28456 -0.02442
C 1.16651 10.62844 -0.00027
C 1.24259 9.23891 -0.00583
C 0.00266 8.46824 -0.02302
C 34.38934 7.09111 -0.02849
C 1.24939 6.34194 0.02931
C 1.25891 4.94013 0.00628
C 0.03551 4.25371 -0.0345
C 0.00265 2.78856 -0.00931
C 1.27815 2.06386 -0.00939
C 1.22391 0.68916 -0.00468
C 34.38304 25.57509 -0.05239
C 1.24426 26.26938 -0.00598
C 1.27343 27.66075 -0.00439
C 0.03255 28.42006 -0.01037
C 31.88328 19.88333 -0.01429
C 33.1043 19.13183 -0.0136
C 33.20669 17.66107 0.00594
C 31.93672 17.01521 -0.02474
C 32.03417 15.60338 0.00369
C 33.23159 14.87177 0.00455
C 33.0789 13.46348 -0.00644
C 31.88619 12.69914 -0.01839
C 31.96443 11.33522 0.00137
C 33.17327 10.59941 0.00199
C 33.25112 9.15934 0.04381
C 28.31899 10.58836 0.00194
C 31.98484 8.51712 0.02806
C 33.16582 6.38037 -0.00069
C 33.23419 4.88982 0.04926
C 31.94272 4.23318 -0.03838
C 31.95274 2.81268 0.00349
C 33.25648 2.05921 -0.00323
C 33.28088 0.65335 -0.00841
C 31.95658 34.00752 0.0001
C 34.42551 32.66333 -0.02927
C 1.2996 31.90585 -0.01404
C 1.21959 30.50081 0.01027
C 0.0745 29.86435 0.01831
C 31.94415 7.07658 0.01504
C 27.06957 11.36104 0.04185
C 27.12194 12.78474 0.02316
C 28.35237 13.48222 0.01257
C 22.17707 28.43556 -0.00652
C 23.39071 27.71686 0.0058
C 23.41705 26.18313 -0.00865
C 22.12592 25.548 0.00675
C 22.13896 24.14967 -0.00311
C 23.33405 23.48831 0.00742
C 23.31865 22.0328 -0.01594
C 22.12132 21.33989 0.0106
C 22.07604 19.91381 -0.01154
C 23.32476 19.1657 -0.01721
C 23.3758 17.78508 -0.02422
C 22.09609 17.10467 0.01277
C 22.1271 15.58687 0.00096
C 23.35572 14.93658 -0.01527
C 23.41173 13.51172 0.01087
C 22.20862 12.74201 0.00199
C 22.13275 11.33687 0.01511
C 23.40019 10.70061 -0.00478
C 23.41515 9.24575 -0.01662
C 22.26188 8.54823 -0.01185
C 22.11032 7.14638 0.01126
C 23.35252 6.33854 0.01852
C 23.34247 4.92857 -0.00381
C 22.01242 29.84497 -0.04076
C 23.26847 30.58898 -0.00703
C 23.31345 31.96716 0.00654
C 22.10623 32.67951 -0.04422
C 19.68848 24.13458 -0.00109
C 20.82275 23.36444 -0.00491
C 20.89859 21.98286 0.03338
C 19.62559 21.30298 -0.0258
C 19.60814 19.87991 -0.0331
C 20.85374 19.20336 -0.00316
C 20.90282 17.78643 0.02188
C 19.68447 17.04822 -0.01979
C 19.66852 15.60444 0.02691
C 20.89924 14.80444 -0.01581
C 20.96016 13.44083 0.01452
C 22.11026 4.23992 0.03046
C 19.68916 12.7788 0.04892
C 20.94728 10.71086 -0.03557
C 20.92804 9.22849 0.03754
C 19.65222 8.44155 0.01739
C 19.66238 7.0555 0.00755
C 20.88806 6.44203 -0.0054
C 20.86401 4.99232 0.00667
C 19.64198 4.27583 0.00143
C 19.74845 2.88286 -0.017
C 20.9419 2.13221 0.00364
C 20.87905 0.74665 -0.00831
C 19.66022 34.05229 -0.02957
C 19.66542 11.37438 -0.00111
C 3.61422 26.26437 0.01073
C 22.12534 2.81949 0.0296
C 23.31623 0.69662 -0.02845
C 24.60495 4.21522 -0.00229
C 24.54172 2.80916 -0.00938
C 25.85753 2.13032 -0.0264
C 25.8178 0.70965 -0.01154
C 24.60514 0.10015 0.00684
C 27.09627 32.67565 -0.01052
C 28.2162 31.93535 -0.01679
C 28.30564 30.5057 0.00367
C 27.05401 29.84074 0.04306
C 27.07867 28.47203 0.00996
C 28.30392 27.67297 0.00195
C 28.29651 26.23271 -0.00802
C 27.10722 25.57525 -0.00218
C 27.02075 24.21113 -0.01654
C 28.25614 23.45065 -0.00037
C 28.28927 22.03063 -0.0032
C 27.07563 21.26618 0.00622
C 27.04664 19.81118 -0.02815
C 28.23738 19.10355 -0.00942
C 28.33915 17.72019 0.00487
C 27.02852 17.02941 0.00826
C 26.96123 15.62709 -0.00294
C 28.27079 14.92774 0.00152
C 25.75499 4.9853 -0.01199
C 25.85118 6.36223 -0.009
C 24.53136 7.00748 -0.00285
C 24.55283 8.47236 0.01423
C 22.10396 0.04912 -0.03213
C 24.61436 32.71244 0.02239
C 25.79102 31.8658 0.01153
C 25.85965 30.51783 0.02734
C 24.54467 29.89209 -0.0055
C 24.57003 28.43104 0.01515
C 25.81446 27.77014 -0.00225
C 25.85684 26.2545 0.00071
C 24.63469 25.51694 -0.01107
C 24.59898 24.11711 -0.01586
C 25.83085 23.43071 -0.01971
C 23.37321 2.09254 0.03374
C 25.86365 22.02814 -0.02118
C 24.55742 19.87794 -0.00178
C 25.83464 19.19138 0.00768
C 25.76768 17.73681 -0.0276
C 24.54021 17.08595 0.03005
C 24.55207 15.63517 -0.04078
C 25.72718 14.90163 0.02117
C 25.78728 13.50778 0.02737
C 24.59515 12.80578 -0.00498
C 24.64257 11.44239 0.00135
C 25.79822 10.65477 0.03102
C 25.82335 9.26881 0.02555
C 24.58502 21.2456 0.00733
C 2.51232 32.63251 -0.00018
