305
Graphene
C 0.04222 0.01074 0.01295
C 11.2997 27.67313 -0.01581
C 10.9237 26.34694 0.01452
C 9.80646 25.51937 0.04892
C 9.9018 24.16461 -0.00111
C 11.07645 23.42356 -0.03557
C 10.87538 22.1239 0.03754
C 9.92555 21.29834 0.01739
C 9.93662 19.91227 0.00755
C 10.82324 18.95176 -0.0054
C 10.98853 17.60704 0.00667
C 9.73982 16.88451 0.00143
C 11.1369 4.85837 -0.017
C 9.85266 4.33701 0.00364
C 9.89719 2.90646 -0.00831
C 11.16705 2.06618 -0.02957
C 9.87689 28.35714 0.02691
C 11.09153 0.75319 -0.04422
C 9.81534 29.7541 -0.01979
C 11.07711 31.87886 -0.00316
C 7.43348 17.06589 0.03505
C 7.41629 15.58549 -0.02815
C 8.52265 14.84785 -0.04147
C 7.28748 13.01528 -0.05302
C 7.14403 11.5567 0.00213
C 7.34848 8.55611 -0.00066
C 7.63477 7.24781 -0.00289
C 8.63114 6.34162 0.00028
C 8.64796 5.00473 -0.02213
C 7.38513 4.34752 0.03698
C 7.43384 2.93208 -0.00109
C 8.64507 2.2259 -0.00491
C 8.6325 0.73733 0.03338
C 7.44773 0.0363 -0.0258
C 9.88318 32.60195 -0.0331
C 11.02139 30.43887 0.02188
C 8.63052 17.72429 0.01443
C 9.83731 0.03638 0.00654
C 13.49744 31.92904 -0.04076
C 18.38843 30.59627 -0.01185
C 17.16627 30.11468 0.01126
C 17.34522 4.16576 0.01852
C 17.2888 2.76453 -0.00381
C 18.45104 2.10994 0.03046
C 18.49315 0.74379 0.0296
C 17.29485 0.01763 0.03374
C 19.63781 32.70094 -0.02845
C 20.92048 31.96301 -0.03213
C 20.84987 30.6646 0.02239
C 20.97798 6.24995 0.01153
C 20.76491 4.90888 0.02734
C 19.44262 4.18272 -0.0055
C 19.64417 2.84897 0.01515
C 20.86389 2.04289 -0.00225
C 18.46554 31.91406 -0.01662
C 12.30862 32.61489 -0.00703
C 17.23361 32.65266 -0.00478
C 16.04329 0.72364 0.00199
C 13.46734 30.53321 -0.00652
C 12.3017 29.7392 0.0058
C 12.50765 28.39968 -0.00865
C 12.30682 4.12081 0.00675
C 12.39796 2.77268 -0.00311
C 13.54161 2.11565 0.00742
C 13.50564 0.66826 -0.01594
C 12.32152 33.99932 0.0106
C 14.81056 32.66129 -0.01154
C 16.06813 32.00348 -0.01721
C 15.91786 30.49994 -0.02422
C 14.69678 29.85437 0.01277
C 14.69631 4.16295 0.00096
C 14.72525 2.84345 -0.01527
C 15.97373 2.10047 0.01087
C 14.76292 34.05646 0.01511
C 8.63865 19.09903 0.00979
C 7.38027 19.88701 -0.00481
C 7.33579 21.31517 0.00889
C 3.71519 10.62287 -0.01111
C 3.67688 9.17477 -0.01275
C 2.40784 8.50561 0.00985
C 2.41461 7.09333 -0.02245
C 3.65273 6.34068 -0.00428
C 3.61573 4.93343 0.03101
C 2.35496 4.25504 -0.01536
C 2.4115 2.8425 -0.02689
C 3.74314 2.14947 -0.01046
C 3.74455 0.63648 -0.00891
C 2.48435 34.00696 0.02819
C 4.8891 32.56603 0.00165
C 6.10633 31.91848 -0.02971
C 6.15344 30.46417 0.02894
C 4.93376 29.72723 -0.01789
C 2.54198 11.38541 0.02841
C 4.93754 28.30355 0.00444
C 2.46861 12.8075 0.00943
C 3.6395 14.97786 0.03592
C 3.6766 30.41693 0.01291
C 2.50222 29.73752 0.00093
C 2.44864 28.34814 0.00057
C 3.66274 27.63933 -0.01634
C 3.60012 26.32462 -0.00334
C 2.37539 25.56841 0.02339
C 2.38649 24.14223 0.01641
C 3.6553 23.49403 -0.00719
C 3.62692 22.03406 0.01364
C 2.42749 21.29714 -0.01062
C 2.39809 19.93923 -0.00033
C 3.6773 19.22565 0.03589
C 3.68446 17.80496 -0.02759
C 2.44951 17.16849 0.0402
C 2.44327 15.68169 0.00572
C 3.69292 13.55449 0.00406
C 6.2151 27.65251 -0.00925
C 6.1579 26.23898 0.01877
C 4.88627 25.57876 0.01363
C 4.91545 2.88825 0.02058
C 6.18057 2.15855 -0.01957
C 6.1969 0.71984 -0.0108
C 4.88999 34.01884 -0.00368
C 7.28772 32.70098 -0.02696
C 8.60959 32.0502 -0.00114
C 8.56658 30.5027 0.00228
C 7.34918 29.76383 0.00798
C 7.37674 28.39895 0.00422
C 8.66849 27.61457 0.0351
C 8.53842 26.26568 -0.03113
C 7.39175 25.62064 0.02098
C 7.39668 24.17455 0.01848
C 8.7423 23.47088 -0.00619
C 8.64365 21.93681 -0.02162
C 4.86359 4.25407 0.01965
C 6.15792 5.00901 -0.03682
C 6.23474 6.39565 0.00052
C 4.94978 7.05085 0.00374
C 4.86587 24.15976 -0.02162
C 6.10998 23.44384 0.00415
C 6.13095 22.01373 -0.0014
C 4.89054 21.33712 0.02162
C 4.96117 19.94717 0.0076
C 6.18186 19.25093 0.01241
C 6.16166 17.78742 -0.01454
C 20.9496 0.73751 0.00071
C 4.90435 17.10698 0.01945
C 6.04982 15.00133 0.03542
C 6.10978 13.66395 0.02299
C 4.88826 12.85261 0.00244
C 4.90524 11.34893 -0.01717
C 6.16507 10.58043 0.05265
C 6.16011 9.23001 -0.01952
C 4.85198 8.40947 -0.02813
C 4.86759 15.7205 0.01416
C 3.74424 31.81595 0.00438
C 19.71929 0.0222 -0.01107
C 23.3464 32.08116 -0.01971
C 33.11696 22.05103 0.01574
C 31.91512 21.34259 -0.02383
C 31.93715 19.81933 -0.01429
C 33.20399 19.15129 -0.0136
C 33.21698 17.74232 0.00594
C 32.0041 17.09825 -0.02474
C 31.91856 15.63669 0.00369
C 33.13554 14.92921 0.00455
C 33.14323 13.51878 -0.00644
C 31.92916 12.79969 -0.01839
C 31.9641 11.41212 0.00137
C 33.24963 10.70414 0.00199
C 33.25382 9.33609 0.04381
C 31.99515 8.6007 0.02806
C 31.97704 7.20093 0.01504
C 33.07997 23.47496 0.01927
C 33.16162 6.49653 -0.00069
C 31.87891 24.25131 0.03794
C 33.2001 26.25537 0.00682
C 29.46721 8.50952 -0.00971
C 29.41049 7.14101 0.01518
C 30.71824 6.48528 0.01908
C 30.69161 5.04007 0.07705
C 29.43943 4.27475 0.0103
C 29.39055 2.87254 0.02108
C 30.58864 2.12727 0.00716
C 30.6316 0.77869 0.00307
C 29.42506 0.00214 0.00346
C 31.89498 32.66814 0.01713
C 33.20375 32.06314 -0.01694
C 33.23506 30.61736 0.01428
C 32.05214 29.89744 -0.02142
C 31.96169 28.43444 0.0544
C 33.20803 27.69358 0.00026
C 31.94083 25.66658 -0.01779
C 30.73951 9.26761 -0.03735
C 33.1082 5.08399 0.04926
C 31.83637 2.88444 0.00349
C 34.41997 15.69621 0.02114
C 1.22472 14.91868 -0.02957
C 1.29656 13.53297 0.00343
C 34.3945 12.81766 -0.02656
C 0.03693 11.46726 -0.02442
C 1.26884 10.69402 -0.00027
C 1.22306 9.24439 -0.00583
C 34.42211 8.57078 -0.02302
C 34.40712 7.14357 -0.02849
C 1.20266 6.43862 0.02931
C 1.12046 5.02877 0.00628
C 34.30372 4.33485 -0.0345
C 34.3711 2.82651 -0.00931
C 1.14566 2.14285 -0.00939
C 1.30187 0.71989 -0.00468
C 0.00901 17.08626 0.00648
C 31.85579 4.2828 -0.03838
C 1.21677 17.81731 0.01223
C 34.37145 19.95069 0.01951
C 33.09143 2.18081 -0.00323
C 33.18151 0.75066 -0.00841
C 31.91013 0.03785 0.0001
C 34.42811 32.66831 -0.02927
C 1.23725 31.97355 -0.01404
C 1.25497 30.53209 0.01027
C 34.42454 29.8437 0.01831
C 34.39243 28.4341 -0.01037
C 1.15967 27.72658 -0.00439
C 1.19324 26.27708 -0.00598
C 34.35696 25.55882 -0.05239
C 34.34629 24.13592 0.03076
C 1.16789 23.42661 0.00723
C 1.19757 22.04938 0.02712
C 34.39383 21.37602 -0.02213
C 1.20309 19.24237 -0.01678
C 30.7721 10.71575 -0.00944
C 29.53658 11.37341 -0.02155
C 29.45742 12.7334 -0.01461
C 25.82841 10.58269 -0.0264
C 25.80499 9.2139 -0.01154
C 24.52356 8.43636 0.00684
C 24.48175 7.04392 -0.01052
C 25.81113 6.32268 -0.01679
C 25.78469 4.96251 0.00367
C 24.56074 4.26449 0.04306
C 24.50532 2.88352 0.00996
C 25.75828 2.16484 0.00195
C 25.81703 0.80682 -0.00802
C 24.60282 0.04074 -0.00218
C 26.9549 32.58323 -0.01654
C 28.20661 31.91982 -0.00037
C 28.2771 30.56858 -0.0032
C 27.00016 29.73656 0.00622
C 24.45279 11.38012 -0.00938
C 27.01082 28.44269 -0.02815
C 24.65641 12.69706 -0.00229
C 24.5684 29.91208 -0.009
C 23.44879 30.70764 -0.02118
C 23.51787 10.55252 0.00733
C 23.24432 9.20123 -0.00178
C 22.12144 8.41072 0.00768
C 21.93575 7.08209 -0.0276
C 23.34167 6.37939 0.03005
C 23.30651 4.89561 -0.04078
C 22.06099 4.20007 0.02117
C 22.07841 2.76501 0.02737
C 23.34294 2.1868 -0.00498
C 23.39377 0.70262 0.00135
C 22.19693 0.00748 0.03102
C 24.59053 32.7222 0.02555
C 25.7489 31.88795 0.01423
C 25.81611 30.46578 -0.00285
C 25.85161 13.46851 -0.01199
C 28.107 27.63405 -0.00942
C 28.38832 26.38039 0.00487
C 28.22279 17.7107 0.00826
C 29.43799 28.44315 0.00924
C 30.64394 27.76207 0.02326
C 30.72475 26.33185 0.00261
C 29.45809 25.47137 0.03265
C 29.46127 24.08891 -0.02049
C 30.63867 23.3986 -0.01854
C 30.68761 22.00416 -0.01415
C 29.67131 21.19208 -0.03039
C 29.46853 19.85976 0.01836
C 30.67707 19.18048 0.03531
C 30.75746 17.77608 -0.00669
C 29.49587 17.02005 0.0101
C 29.4646 15.67872 0.01705
C 30.68175 14.9526 -0.0405
C 30.71876 13.47664 -0.01303
C 29.51512 29.85193 0.0014
C 30.7567 30.52737 0.01324
C 30.73618 31.94618 0.04266
C 29.43812 32.66019 0.01177
C 27.12506 15.68895 -0.00294
C 28.25984 14.91168 0.00152
C 28.25157 13.43985 0.01257
C 26.97723 12.8098 0.02316
C 27.10029 11.34147 0.04185
C 28.32047 10.60279 0.00194
C 28.28885 9.21691 -0.00621
C 22.14414 32.78009 -0.01586
C 27.04805 8.48412 0.02611
C 28.24592 6.40485 0.01094
C 28.29969 5.03014 0.00235
C 27.04846 4.2966 0.01495
C 27.00374 2.87232 0.01259
C 28.20879 2.07865 0.01799
C 28.23202 0.67447 0.01699
C 26.97332 0.00992 -0.00416
C 26.99409 7.03323 0.02198
C 2.45545 32.58643 -0.00191
