360
Graphene
C 0.00329 0.01185 0.01295
C 9.87324 7.07072 0.02058
C 11.03823 6.41666 -0.01957
C 11.13361 5.08211 -0.0108
C 9.87311 4.22972 -0.00368
C 9.8812 2.90026 -0.02696
C 11.0798 2.13761 -0.00114
C 11.02021 0.65215 0.00228
C 9.80104 0.00832 0.00798
C 9.73802 8.33216 0.01965
C 12.27432 32.64547 0.00422
C 12.39314 29.86268 -0.03113
C 12.37137 28.3593 0.02098
C 13.56906 27.65538 0.01848
C 13.5584 26.24131 -0.00619
C 12.27091 25.64617 -0.02162
C 12.32002 24.14791 0.00889
C 13.51789 23.34234 -0.00481
C 13.45781 21.9511 0.00979
C 13.5733 30.40017 0.0351
C 9.71725 12.71234 -0.03682
C 9.76458 15.65454 0.00052
C 9.84841 16.97536 0.00374
C 7.32795 2.91521 -0.00925
C 8.53248 2.21293 0.01877
C 8.6019 0.79624 0.01363
C 7.42107 0.07154 -0.02162
C 9.86029 32.68608 0.00415
C 11.08412 31.96909 -0.0014
C 11.05973 30.52603 0.02162
C 9.8546 29.86189 0.0076
C 9.85628 28.42365 0.01241
C 11.07748 27.80543 -0.01454
C 11.02601 26.33431 0.01945
C 9.80904 25.61063 0.01416
C 9.85814 24.08962 0.03542
C 11.07103 23.42955 0.02299
C 11.103 22.04086 0.00244
C 9.94012 21.27587 -0.01717
C 9.83986 19.85983 0.05265
C 11.10583 19.17604 -0.01952
C 11.06641 17.67563 -0.02813
C 12.2244 21.23183 0.01443
C 7.3685 4.29136 0.00444
C 12.3669 19.86212 0.03505
C 13.36914 17.72323 -0.04147
C 17.13106 32.69386 0.00755
C 17.20863 29.89717 -0.0054
C 17.21064 28.45618 0.00667
C 18.38541 27.6119 0.00143
C 18.44102 26.23264 -0.017
C 17.19876 25.57178 0.00364
C 17.19191 24.15802 -0.00831
C 18.41379 23.4066 -0.02957
C 14.79143 0.06402 0.01739
C 18.46458 21.97552 -0.04422
C 17.26488 19.93654 -0.00703
C 18.44563 19.09898 -0.04076
C 18.55408 17.77493 -0.00652
C 17.25022 2.74349 0.0058
C 18.46143 2.11408 -0.00865
C 18.34823 0.64652 0.00675
C 17.19748 34.05369 -0.00311
C 20.89171 30.413 0.00742
C 17.22476 21.2851 0.00654
C 15.9222 0.70061 0.03754
C 15.93023 2.23685 -0.03557
C 14.67349 2.83811 -0.00111
C 12.36169 17.24625 -0.05302
C 12.24757 4.25925 0.00213
C 12.3063 2.8815 -0.00066
C 13.58607 2.12819 -0.00289
C 13.58552 0.65867 0.00028
C 12.31407 34.07045 -0.02213
C 16.10889 32.02096 0.03698
C 16.04579 30.62374 -0.00109
C 14.78804 29.81579 -0.00491
C 14.77993 28.32972 0.03338
C 15.94624 27.66416 -0.0258
C 16.00015 26.28975 -0.0331
C 14.81403 25.53777 -0.00316
C 14.71316 24.14145 0.02188
C 15.92682 23.48258 -0.01979
C 15.93364 22.01178 0.02691
C 14.71888 21.29519 -0.01581
C 14.75439 19.8693 0.01452
C 15.99514 19.25207 0.04892
C 13.59869 19.12785 -0.02815
C 19.68742 29.8283 -0.01594
C 8.62502 4.86074 -0.01789
C 7.34667 7.09221 -0.02971
C 3.71316 6.41741 0.01396
C 3.66892 4.94943 0.01849
C 2.46058 4.23558 -0.01142
C 2.51622 2.87437 -0.00562
C 3.66942 2.16531 -0.00494
C 3.70851 0.65801 0.00054
C 2.45569 0.0103 0.03007
C 4.8949 32.66847 -0.00095
C 2.47611 7.17106 0.0127
C 6.16549 31.89641 0.01572
C 4.84832 29.85743 -0.00892
C 4.90476 28.45259 -0.01362
C 6.10662 27.6945 -0.0008
C 6.12675 26.31307 0.0288
C 4.91019 25.59292 0.00393
C 4.90441 24.12321 0.00895
C 6.12944 23.43425 0.00685
C 6.17171 22.05894 0.02888
C 6.15585 30.52827 -0.04848
C 2.42677 8.63325 0.02635
C 3.70552 9.25363 -0.01378
C 3.64319 10.67331 -0.01303
C 3.63076 30.53564 -0.02566
C 2.40875 29.82226 -0.00094
C 2.49301 28.33141 0.02322
C 3.70499 27.7188 -0.00725
C 3.70411 26.26444 -0.05697
C 2.52013 25.52259 0.01087
C 2.44686 24.16694 -0.01343
C 3.63994 23.46087 0.00988
C 3.65738 22.08107 0.0276
C 2.44212 21.32529 0.01305
C 2.48501 19.87671 -0.00077
C 3.69753 19.17075 0.03368
C 3.71234 17.77358 -0.02929
C 2.46162 16.97885 -0.00966
C 2.4765 15.59969 -0.03337
C 3.61237 14.8949 0.01227
C 3.64906 13.51247 0.00873
C 2.44323 12.82581 -0.00049
C 2.45075 11.39598 0.00848
C 4.94334 21.37418 -0.00482
C 8.55968 6.26831 0.02894
C 4.97624 19.93975 -0.01384
C 6.19001 17.82355 0.01745
C 8.56096 26.30576 0.0402
C 7.3611 25.56575 0.00572
C 7.35624 24.09879 0.03592
C 8.58899 23.38963 0.00406
C 8.68663 21.99559 0.00943
C 7.40945 21.27063 0.02841
C 7.38835 19.92875 -0.01111
C 8.60868 19.20629 -0.01275
C 8.58223 27.7167 -0.02759
C 8.6616 17.77149 0.00985
C 7.44191 15.65728 -0.00428
C 8.65035 14.92868 0.03101
C 8.59359 13.33778 -0.01536
C 7.31649 12.76305 -0.02689
C 7.34391 11.31742 -0.01046
C 8.50726 10.6217 -0.00891
C 8.67496 9.22545 0.02819
C 7.35219 8.53942 0.00165
C 7.40488 17.08863 -0.02245
C 7.37074 28.36933 0.03589
C 7.37625 29.85791 -0.00033
C 8.56776 30.56537 -0.01062
C 4.98598 17.04864 0.00488
C 4.90114 15.6141 -0.01004
C 6.14989 14.94854 -0.02896
C 6.18149 13.5268 -0.00131
C 4.91186 12.8564 -0.01118
C 4.90163 11.40834 -0.014
C 6.17331 10.68996 0.02147
C 6.16907 9.30136 0.00373
C 4.9248 8.5884 -0.00191
C 4.8898 7.21749 0.00438
C 6.13454 6.48148 0.01291
C 6.11486 5.04551 0.00093
C 4.92805 4.3011 0.00057
C 4.85637 2.84398 -0.01634
C 6.10491 2.17616 -0.00334
C 6.19494 0.72126 0.02339
C 4.96779 34.04625 0.01641
C 7.30156 32.70515 -0.00719
C 8.58124 32.02564 0.01364
C 6.1652 19.19241 0.03693
C 19.5616 28.3955 0.0106
C 20.87369 27.71338 -0.01154
C 20.87236 26.24503 -0.01721
C 31.97046 32.66749 0.01713
C 33.14334 31.99499 -0.01694
C 33.18738 30.58392 0.01428
C 32.01685 29.86927 -0.02142
C 31.98829 28.3887 0.0544
C 33.20631 27.6864 0.00026
C 33.15725 26.27815 0.00682
C 31.93378 25.56607 -0.01779
C 29.50263 0.0238 0.00346
C 31.89944 24.12876 0.03794
C 33.15479 22.01 0.01574
C 31.90008 21.29307 -0.02383
C 31.97 19.91395 -0.01429
C 33.13834 19.18723 -0.0136
C 33.22369 17.77731 0.00594
C 31.98332 16.98981 -0.02474
C 31.98399 15.62563 0.00369
C 33.20106 14.90644 0.00455
C 33.21174 23.42713 0.01927
C 30.74274 0.75019 0.00307
C 30.70881 2.13802 0.00716
C 29.52638 2.81493 0.02108
C 30.68028 23.4625 -0.01854
C 30.71191 22.06029 -0.01415
C 29.53775 21.27522 -0.03039
C 29.59923 19.82611 0.01836
C 30.83165 19.13561 0.03531
C 30.74669 17.7605 -0.00669
C 29.45134 17.01345 0.0101
C 29.59244 15.62973 0.01705
C 30.7004 14.89434 -0.0405
C 30.69375 13.48515 -0.01303
C 29.49031 12.71171 -0.01461
C 29.64668 11.547 -0.02155
C 30.71463 10.58056 -0.00944
C 30.79394 9.12905 -0.03735
C 29.53548 8.58176 -0.00971
C 29.51257 7.16645 0.01518
C 30.70618 6.33396 0.01908
C 30.70771 4.95815 0.07705
C 29.56356 4.23129 0.0103
C 33.13898 13.42529 -0.00644
C 29.44609 24.21056 -0.02049
C 31.92381 12.71141 -0.01839
C 33.17917 10.69305 0.00199
C 1.1995 19.15744 -0.01678
C 1.25905 17.69681 0.01223
C 0.01463 17.05412 0.00648
C 0.03152 15.62343 0.02114
C 1.28206 14.87614 -0.02957
C 1.21631 13.41567 0.00343
C 34.42658 12.77253 -0.02656
C 0.028 11.31508 -0.02442
C 34.3973 19.85792 0.01951
C 1.24948 10.63712 -0.00027
C 0.00496 8.55992 -0.02302
C 34.39394 7.12702 -0.02849
C 1.25716 6.49294 0.02931
C 1.26114 4.99886 0.00628
C 0.02849 4.32773 -0.0345
C 34.37778 2.86144 -0.00931
C 1.21756 2.13706 -0.00939
C 1.21783 0.72605 -0.00468
C 1.24021 9.30332 -0.00583
C 34.43162 21.27959 -0.02213
C 1.20992 21.98181 0.02712
C 1.23373 23.44211 0.00723
C 33.23064 9.26787 0.04381
C 31.99707 8.56829 0.02806
C 31.9428 7.01374 0.01504
C 33.13858 6.36215 -0.00069
C 33.22039 4.9693 0.04926
C 32.01196 4.26614 -0.03838
C 31.89287 2.78847 0.00349
C 33.12112 2.1299 -0.00323
C 33.18195 0.67766 -0.00841
C 31.93008 34.05262 0.0001
C 34.40434 32.64353 -0.02927
C 1.20064 32.0005 -0.01404
C 1.20846 30.61369 0.01027
C 0.01496 29.85206 0.01831
C 34.43204 28.38058 -0.01037
C 1.18574 27.67526 -0.00439
C 1.16623 26.25484 -0.00598
C 34.39366 25.56364 -0.05239
C 0.04117 24.12604 0.03076
C 31.93788 11.35155 0.00137
C 29.47472 25.59859 0.03265
C 30.7403 26.306 0.00261
C 30.71051 27.76856 0.02326
C 23.31697 23.47002 -0.00225
C 23.32805 22.00212 0.00071
C 22.12033 21.35836 -0.01107
C 22.18697 19.88134 -0.01586
C 23.38503 19.23568 -0.01971
C 23.49524 6.39921 -0.02118
C 23.28566 4.9568 0.00733
C 22.04571 4.30586 -0.00178
C 22.0839 24.17109 0.01515
C 22.1369 2.78827 0.00768
C 23.34739 0.68231 0.03005
C 22.06454 33.97444 -0.04078
C 24.60275 32.67298 0.02117
C 25.80592 31.94536 0.02737
C 25.74667 30.47274 -0.00498
C 24.56076 29.79435 0.00135
C 24.6276 28.4034 0.03102
C 25.83365 27.64209 0.02555
C 23.37334 2.13883 -0.0276
C 22.13551 25.56743 -0.0055
C 23.41948 26.26764 0.02734
C 23.40736 27.68591 0.01153
C 19.68702 25.49251 -0.02422
C 19.66221 24.07733 0.01277
C 20.90113 23.41125 0.00096
C 20.87561 21.96705 -0.01527
C 19.66346 21.27567 0.01087
C 19.71905 19.85025 0.00199
C 20.95262 19.16222 0.01511
C 20.71999 17.79422 -0.00478
C 20.70268 4.8304 -0.01662
C 19.7915 4.15859 -0.01185
C 19.60203 2.82843 0.01126
C 20.93938 2.0892 0.01852
C 20.83558 0.66082 -0.00381
C 19.53969 0.06687 0.03046
C 22.05105 32.51084 0.0296
C 23.3356 31.94437 0.03374
C 23.37558 30.5001 -0.02845
C 22.18312 29.78413 -0.03213
C 22.18157 28.29944 0.02239
C 25.84822 26.21404 0.01423
C 24.58085 25.53917 -0.00285
C 24.5783 24.06925 -0.009
C 25.76722 23.45308 -0.01199
C 27.01915 21.34092 0.01257
C 27.16404 19.81634 0.02316
C 28.38732 19.08472 0.04185
C 28.24427 17.71063 0.00194
C 28.21271 9.14875 -0.00621
C 27.20278 8.54294 0.02611
C 27.02937 7.08837 0.02198
C 28.3214 6.41826 0.01094
C 28.27468 4.95145 0.00235
C 27.09374 4.27564 0.01495
C 27.1212 2.81714 0.01259
C 28.3481 2.16666 0.01799
C 28.33428 0.76107 0.01699
C 27.0526 0.08882 -0.00416
C 29.52396 32.5743 0.01177
C 30.71415 31.94378 0.04266
C 30.78604 30.53356 0.01324
C 29.47711 29.88124 0.0014
C 29.45236 28.41277 0.00924
C 28.29611 22.02931 0.00152
C 3.62496 31.9872 -0.03113
C 28.24292 23.40889 -0.00294
C 27.08715 25.56518 0.00487
C 25.82414 22.02402 -0.00229
C 24.54696 21.30625 -0.00938
C 24.65812 19.87239 -0.0264
C 25.90756 19.22418 -0.01154
C 24.49022 6.92015 0.00684
C 25.76936 6.39744 -0.01052
C 25.7916 4.97792 -0.01679
C 24.60565 4.27672 0.00367
C 24.70094 2.91834 0.04306
C 25.887 2.15003 0.00996
C 25.82678 0.72804 0.00195
C 24.58963 34.06961 -0.00802
C 26.96567 32.70672 -0.00218
C 28.17183 31.95911 -0.01654
C 28.20779 30.56049 -0.00037
C 26.97795 29.7717 -0.0032
C 27.04343 28.34424 0.00622
C 28.19095 27.63938 -0.02815
C 28.25667 26.24919 -0.00942
C 27.00408 24.15549 0.00826
C 2.4264 32.64223 0.017
