276
Graphene
C 0.014 0.02618 0.01295
C 18.47767 2.09691 0.00096
C 17.17489 2.88362 0.01277
C 17.20392 4.28852 -0.02422
C 18.44925 4.97297 -0.01721
C 18.48456 6.40353 -0.01154
C 17.23668 7.09711 0.0106
C 17.22836 8.45038 -0.01594
C 18.37174 9.23349 0.00742
C 18.42723 10.52199 -0.00311
C 18.44977 31.9404 0.00675
C 17.27 32.67274 -0.00865
C 14.79639 34.04422 0.0058
C 16.04714 0.69916 -0.00652
C 16.04297 2.10191 -0.04076
C 18.40725 0.77039 -0.01527
C 14.75545 2.79219 -0.00703
C 15.97825 4.93793 -0.04422
C 15.94448 6.36334 -0.02957
C 14.86312 29.79267 -0.00831
C 15.90566 30.53011 0.00364
C 15.98184 31.97518 -0.017
C 14.76833 32.60718 0.00143
C 12.26564 0.05228 0.00667
C 13.47316 0.74648 -0.0054
C 13.53533 2.15155 0.00755
C 12.32511 2.84458 0.01739
C 12.32955 4.29682 0.03754
C 13.54521 4.94868 -0.03557
C 12.27741 28.40753 -0.00111
C 12.31893 29.79515 0.04892
C 14.76868 4.29582 0.00654
C 17.24511 0.05018 0.01087
C 19.65845 32.62979 0.00199
C 20.89739 32.01196 0.01511
C 22.18584 0.00053 -0.00498
C 23.40024 0.69871 0.02737
C 22.10339 11.37707 0.02117
C 22.18787 12.74787 -0.04078
C 23.34622 13.4506 0.03005
C 23.3554 14.96051 -0.0276
C 22.12728 15.58184 0.00768
C 22.06911 17.00297 -0.00178
C 23.36452 17.73836 0.00733
C 23.4082 19.17272 -0.02118
C 22.14261 19.91445 -0.01971
C 23.39785 22.04506 -0.01586
C 23.3351 23.46502 -0.01107
C 23.34173 26.31861 0.00071
C 23.32142 27.63225 -0.00225
C 22.133 28.42424 0.01515
C 22.13049 29.82526 -0.0055
C 20.89183 17.70885 -0.00478
C 19.65317 17.02804 -0.01662
C 19.66548 15.67234 -0.01185
C 20.93126 14.86694 0.01126
C 20.92819 13.51322 0.01852
C 19.70364 12.72288 -0.00381
C 13.55032 30.52617 0.01452
C 19.67111 11.33957 0.03046
C 19.69239 2.76919 0.03374
C 20.84581 0.69285 -0.02845
C 19.66361 34.06761 -0.03213
C 22.151 32.64491 0.02239
C 23.40448 31.92299 0.01153
C 23.31268 30.54681 0.02734
C 20.91968 10.67419 0.0296
C 24.56977 32.66441 0.00135
C 13.48475 31.99253 -0.01581
C 9.85205 0.02177 -0.01979
C 6.13132 23.42522 0.02058
C 4.95845 24.10965 0.01965
C 4.94568 25.56916 -0.03682
C 6.14365 26.28647 0.00052
C 6.14799 27.70682 0.00374
C 4.94668 28.40198 -0.02813
C 4.91032 29.80717 -0.01952
C 6.16486 30.47607 0.05265
C 6.1352 31.91978 -0.01717
C 4.93161 32.65711 0.00244
C 2.52941 0.01952 0.02299
C 3.66838 0.7246 0.03542
C 3.65118 2.16608 0.01416
C 2.41607 2.8646 0.01945
C 6.12582 4.95407 -0.01957
C 2.41336 4.24662 -0.01454
C 3.68628 6.3742 0.0076
C 2.51759 7.09702 0.02162
C 2.43937 8.50949 -0.0014
C 2.41278 19.83896 0.00415
C 2.44293 21.25323 -0.02162
C 3.71068 21.99599 0.01363
C 3.65465 23.40495 0.01877
C 2.46899 24.12258 -0.00925
C 2.49459 25.57459 0.00444
C 3.65695 26.32879 -0.01789
C 3.70328 27.65797 0.02894
C 2.43764 28.42734 -0.02971
C 2.44827 29.84883 0.00165
C 3.71243 30.5671 0.02819
C 3.69242 4.91591 0.01241
C 4.90676 4.2823 -0.0108
C 4.89641 2.86195 -0.00368
C 6.11736 2.11468 -0.02696
C 11.05966 0.72635 0.02188
C 11.04639 2.1969 -0.00316
C 9.84161 2.78358 -0.0331
C 9.85517 4.30334 -0.0258
C 11.06699 4.9676 0.03338
C 9.80496 24.13002 -0.00491
C 9.77213 25.55814 -0.00109
C 11.10728 27.74061 0.03698
C 9.85169 28.36707 -0.02213
C 9.84984 29.81189 0.00028
C 11.03819 30.55444 -0.00289
C 11.09567 31.90216 -0.00066
C 9.87704 32.67016 0.00213
C 7.36012 0.01214 -0.05302
C 8.6876 0.70249 -0.04147
C 8.60931 2.11831 -0.02815
C 7.31209 2.79856 0.03505
C 6.12567 0.77849 -0.00114
C 4.91796 0.02013 0.00228
C 7.39332 32.64418 0.00798
C 8.57198 31.98215 0.00422
C 8.65887 30.5021 0.0351
C 7.34756 29.76165 -0.03113
C 12.34035 32.67302 0.02691
C 7.30431 28.34161 0.02098
C 8.60317 26.33802 -0.00619
C 7.34036 25.61901 -0.02162
C 7.34478 24.14517 0.00889
C 8.65285 23.51255 -0.00481
C 8.59903 4.87548 0.00979
C 7.41722 4.2987 0.01443
C 8.63359 27.72056 0.01848
C 25.82477 31.97071 0.03102
C 25.79825 30.50824 0.02555
C 24.55042 29.77041 0.01423
C 33.19082 6.37952 -0.03838
C 31.99626 7.09783 0.04926
C 31.98083 8.496 -0.00069
C 33.18782 9.26729 0.01504
C 33.20595 10.69615 0.02806
C 31.92549 11.3696 0.04381
C 32.00841 12.76093 0.00199
C 33.2544 13.46426 0.00137
C 33.22511 14.94571 -0.01839
C 31.95686 15.51981 -0.00644
C 31.97592 17.00019 0.00455
C 33.1723 17.7431 0.00369
C 33.15503 19.12626 -0.02474
C 31.95829 19.88283 0.00594
C 33.19455 5.00622 0.00349
C 31.95542 21.33124 -0.0136
C 33.25327 23.38999 -0.02383
C 31.97128 24.14813 0.01574
C 31.98033 25.5714 0.01927
C 33.23438 26.29661 0.03794
C 33.18557 27.67626 -0.01779
C 31.97039 28.39963 0.00682
C 32.01209 29.85703 0.00026
C 33.22034 30.52667 0.0544
C 33.18253 31.97112 -0.02142
C 32.01458 32.64752 0.01428
C 29.52955 0.03546 -0.01694
C 30.72168 0.73226 0.01713
C 30.77133 2.14415 0.00346
C 29.46556 2.90132 0.00307
C 33.18946 22.04496 -0.01429
C 31.99156 4.26161 -0.00323
C 31.91697 2.82256 -0.00841
C 33.2128 2.16276 0.0001
C 1.27034 0.69748 -0.00468
C 1.26165 2.11852 -0.00939
C 34.41885 2.86509 -0.00931
C 34.40641 4.27869 -0.0345
C 1.23456 4.95969 0.00628
C 1.16014 6.36363 0.02931
C 34.39122 7.13535 -0.02849
C 34.41618 8.49887 -0.02302
C 1.2683 9.21745 -0.00583
C 1.16562 10.72046 -0.00027
C 34.39798 11.39345 -0.02442
C 0.0387 12.81342 -0.02656
C 0.00729 15.58345 0.00343
C 0.00661 17.04016 -0.02957
C 1.1575 17.73947 0.02114
C 1.25484 19.13061 0.00648
C 34.4014 19.90752 0.01223
C 33.12803 0.70919 -0.02927
C 31.92735 0.01367 -0.01404
C 34.41265 32.60862 0.01027
C 1.23484 31.99486 0.01831
C 1.18814 30.54751 -0.01037
C 0.01257 29.83406 -0.00439
C 29.52725 4.21221 0.00716
C 34.42866 28.40034 -0.00598
C 1.21844 26.30665 0.03076
C 0.03161 25.5792 0.00723
C 0.0077 24.19819 0.02712
C 1.20574 23.42012 -0.02213
C 1.21319 22.02399 0.01951
C 34.42927 21.30861 -0.01678
C 1.18171 27.76285 -0.05239
C 30.77403 4.98229 0.02108
C 30.74353 6.35422 0.0103
C 29.58273 8.50363 0.07705
C 27.05237 19.91065 -0.00621
C 27.05701 21.32201 0.00194
C 28.30593 21.99852 0.04185
C 28.26442 23.40942 0.02316
C 27.05973 24.13203 0.01257
C 27.04433 25.5715 0.00152
C 28.31229 26.31245 -0.00294
C 28.27582 27.6256 0.00826
C 27.073 28.35911 0.00487
C 27.06605 29.81864 -0.00942
C 28.27344 30.54385 -0.02815
C 28.28278 31.90688 0.00622
C 27.02375 32.68119 -0.0032
C 24.63673 34.04868 -0.00037
C 25.79222 0.66413 -0.01654
C 24.56792 12.84396 -0.00218
C 25.80173 13.4764 -0.00802
C 24.56894 28.41538 -0.00285
C 25.81233 27.68999 -0.009
C 25.84439 26.20551 -0.01199
C 24.59216 25.57724 -0.00229
C 24.60896 24.1933 -0.00938
C 25.86979 23.42823 -0.0264
C 28.28777 19.12236 0.02611
C 25.85414 22.03375 -0.01154
C 24.63431 19.83074 -0.01052
C 25.82314 19.15381 -0.01679
C 25.83881 17.73928 0.00367
C 24.60209 17.06814 0.04306
C 24.57515 15.63581 0.00996
C 25.8412 14.97286 0.00195
C 24.57147 21.29657 0.00684
C 3.75513 31.99104 -0.00891
C 28.25081 17.76778 0.02198
C 27.06736 15.62348 0.00235
C 30.73979 9.22932 0.01908
C 30.78583 10.69123 0.01518
C 29.52813 11.34774 -0.00971
C 29.4881 12.7716 -0.03735
C 30.74762 13.50121 -0.00944
C 30.75766 14.91725 -0.02155
C 29.53342 15.67657 -0.01461
C 29.48075 16.98404 -0.01303
C 30.74069 17.73152 -0.0405
C 30.73629 19.15843 0.01705
C 29.5603 19.87073 0.0101
C 29.47072 21.25099 -0.00669
C 30.68947 22.00693 0.03531
C 30.73868 23.38099 0.01836
C 29.51199 24.15075 -0.03039
C 29.50161 25.53342 -0.01415
C 30.75033 26.31939 -0.01854
C 28.28278 14.94467 0.01495
C 28.28927 13.49975 0.01259
C 27.05748 12.75322 0.01799
C 27.03568 11.30695 0.01699
C 28.21095 10.67771 -0.00416
C 28.25885 2.13546 0.01177
C 27.10138 16.99454 0.01094
C 28.30612 0.69331 0.04266
C 29.48352 32.6846 0.0014
C 30.75109 31.95991 0.00924
C 30.74813 30.56371 0.02326
C 29.47862 29.81917 0.00261
C 29.4795 28.37501 0.03265
C 30.74209 27.69419 -0.02049
C 27.06271 0.01177 0.01324
C 2.50332 32.68278 -0.01046
