288
Graphene
C 34.36487 0.0287 0.01295
C 12.27847 32.61879 -0.017
C 13.57183 31.82228 0.00364
C 13.58702 30.44219 -0.00831
C 12.27723 29.81203 -0.02957
C 12.20245 28.34303 -0.04422
C 13.52139 27.75676 0.00654
C 9.87569 0.02268 0.00143
C 13.58696 26.34756 -0.00703
C 12.32601 24.19061 -0.00652
C 13.56119 23.46793 0.0058
C 13.43545 22.04559 -0.00865
C 12.18107 21.37543 0.00675
C 12.34026 20.01184 -0.00311
C 13.47123 19.3198 0.00742
C 12.30559 25.51327 -0.04076
C 12.35537 4.23508 -0.01594
C 11.10013 0.71542 0.00667
C 9.97854 2.87492 0.00755
C 11.01296 30.56533 0.03338
C 9.80171 29.85124 -0.0258
C 9.84036 28.3923 -0.0331
C 11.00612 27.72498 -0.00316
C 11.01305 26.19037 0.02188
C 9.86563 25.46772 -0.01979
C 11.18213 2.09381 -0.0054
C 9.76191 24.11794 0.02691
C 10.94216 21.97945 0.01452
C 9.73547 21.26141 0.04892
C 9.97441 6.95427 -0.00111
C 11.07743 6.34998 -0.03557
C 11.1586 4.94996 0.03754
C 9.84154 4.1982 0.01739
C 11.03002 23.38557 -0.01581
C 11.0897 31.88752 -0.00491
C 12.46342 2.89112 0.0106
C 13.49688 0.58179 -0.01721
C 15.79523 0.62309 0.02239
C 14.63878 34.00403 0.01153
C 17.23858 32.7761 0.02734
C 18.49287 32.08306 -0.0055
C 18.51146 30.6768 0.01515
C 17.33189 29.87756 -0.00225
C 15.57478 15.06154 -0.03213
C 17.20567 28.4684 0.00071
C 18.42193 26.28992 -0.01586
C 17.17042 25.58617 -0.01971
C 17.15195 24.12184 -0.02118
C 18.41457 23.45032 0.00733
C 18.38566 22.05778 -0.00178
C 17.11955 21.41096 0.00768
C 18.40651 27.63557 -0.01107
C 13.60597 1.99562 -0.01154
C 15.33725 16.55785 -0.02845
C 15.90776 19.35798 0.0296
C 12.26021 34.05199 -0.02422
C 14.713 32.5325 0.01277
C 16.01317 31.93966 0.00096
C 16.02771 30.49131 -0.01527
C 14.81819 29.77321 0.01087
C 14.78715 28.43229 0.00199
C 15.87391 18.01032 0.03374
C 16.03507 27.70673 0.01511
C 14.78414 25.61227 -0.01662
C 14.70135 24.17296 -0.01185
C 15.90878 23.44874 0.01126
C 15.86981 22.06197 0.01852
C 14.70178 21.33125 -0.00381
C 14.70499 19.93433 0.03046
C 16.02009 26.22708 -0.00478
C 17.20647 19.93166 -0.0276
C 9.85868 32.69446 -0.00109
C 8.59492 0.69456 -0.02213
C 3.83436 9.35101 -0.00925
C 2.51312 8.62767 0.01877
C 2.47333 7.22169 0.01363
C 3.69549 6.38636 -0.02162
C 3.69004 4.99177 0.00415
C 2.40508 4.29879 -0.0014
C 3.6506 10.73752 0.00444
C 2.38734 2.85344 0.02162
C 3.62489 0.71652 0.01241
C 2.35607 0.03891 -0.01454
C 4.88035 32.69652 0.01945
C 6.08215 31.96089 0.01416
C 6.16038 30.48827 0.03542
C 4.86882 29.81327 0.02299
C 3.61102 2.15536 0.0076
C 4.8297 28.44501 0.00244
C 2.50921 11.54402 -0.01789
C 2.37632 15.4864 -0.02971
C 3.58443 30.56332 0.00943
C 2.39181 29.91776 0.02841
C 2.34628 28.48748 -0.01111
C 3.59006 27.74727 -0.01275
C 3.57533 26.31392 0.00985
C 2.33886 25.61257 -0.02245
C 2.26579 12.95609 0.02894
C 2.42505 24.15953 -0.00428
C 3.5963 22.03944 -0.01536
C 2.40164 21.36899 -0.02689
C 2.4313 19.86559 -0.01046
C 3.71077 19.13415 -0.00891
C 3.57661 17.75911 0.02819
C 2.4558 16.88435 0.00165
C 3.68634 23.44256 0.03101
C 7.37609 0.08517 0.03698
C 6.07862 27.72625 -0.01717
C 4.78767 25.61358 -0.01952
C 7.35409 28.38006 -0.00619
C 8.61957 27.67622 -0.02162
C 8.6586 26.26666 0.00889
C 7.4224 25.63101 -0.00481
C 7.36898 24.17718 0.00979
C 8.57514 23.40631 0.01443
C 7.37275 29.82777 0.01848
C 8.47155 21.89884 0.03505
C 7.27902 7.21201 -0.04147
C 8.51657 6.58536 -0.05302
C 8.62067 4.99069 0.00213
C 7.47158 4.25795 -0.00066
C 7.43768 2.77027 -0.00289
C 8.66348 2.08898 0.00028
C 7.16262 21.37781 -0.02815
C 6.11884 26.29673 0.05265
C 8.56019 30.56933 0.02098
C 7.38862 32.70999 0.0351
C 4.84066 24.23465 -0.02813
C 6.15974 23.59029 0.00374
C 6.05717 22.08766 0.00052
C 4.88411 21.38229 -0.03682
C 4.99693 19.96421 0.01965
C 4.98348 8.4907 0.02058
C 8.62867 32.04667 -0.03113
C 4.91445 7.10227 -0.01957
C 6.17691 4.90664 -0.00368
C 4.96569 4.23472 -0.02696
C 4.86472 2.88256 -0.00114
C 6.1235 2.20566 0.00228
C 6.16393 0.77849 0.00798
C 4.85869 0.06845 0.00422
C 6.15144 6.3689 -0.0108
C 18.36935 19.24319 0.03005
C 16.93007 17.21814 -0.04078
C 18.436 0.71127 0.02117
C 33.1415 23.47505 -0.0136
C 33.1247 22.01664 0.00594
C 31.86336 21.25636 -0.02474
C 31.82549 19.92093 0.00369
C 33.13552 19.21299 0.00455
C 33.16072 17.77261 -0.00644
C 31.95453 24.18254 -0.01429
C 31.96114 17.11494 -0.01839
C 32.99683 13.67648 0.00199
C 33.14146 10.45679 0.04381
C 33.21665 8.89365 0.02806
C 32.15401 7.37168 0.01504
C 33.15253 6.40544 -0.00069
C 33.0224 4.98714 0.04926
C 33.03971 15.04142 0.00137
C 31.55494 4.04472 -0.03838
C 31.92678 25.53013 -0.02383
C 33.13951 27.66655 0.01927
C 29.44661 21.2742 0.0103
C 29.29157 19.91242 0.02108
C 30.56128 19.04717 0.00716
C 30.78504 17.74712 0.00307
C 30.81096 6.8521 0.00346
C 30.40808 5.62499 0.01713
C 33.15605 26.24796 0.01574
C 29.94031 4.37852 -0.01694
C 29.38462 0.5411 -0.02142
C 31.84576 32.80933 0.0544
C 33.05442 31.99051 0.00026
C 33.06549 30.56108 0.00682
C 31.89685 29.84132 -0.01779
C 31.93515 28.45076 0.03794
C 30.76497 1.18591 0.01428
C 30.7139 22.05303 0.07705
C 31.68815 2.6131 0.00349
C 33.20775 0.82545 -0.00841
C 1.02413 14.9316 -0.02957
C 0.97621 13.52103 0.00343
C 34.10999 12.81586 -0.02656
C 34.2352 11.2745 -0.02442
C 1.21444 10.74958 -0.00027
C 1.29453 9.24802 -0.00583
C 34.27861 15.72218 0.02114
C 0.09601 8.48616 -0.02302
C 1.28164 6.43413 0.02931
C 1.19629 5.04295 0.00628
C 34.32114 4.30171 -0.0345
C 34.28396 2.91126 -0.00931
C 1.14552 2.19277 -0.00939
C 1.14864 0.82275 -0.00468
C 0.0326 7.0515 -0.02849
C 33.03177 2.18372 -0.00323
C 34.38252 17.11991 0.00648
C 1.2215 19.18114 -0.01678
C 31.89252 0.26191 0.0001
C 34.30001 32.6543 -0.02927
C 1.15412 32.05332 -0.01404
C 1.12985 30.61229 0.01027
C 34.34055 29.88478 0.01831
C 34.36134 28.46447 -0.01037
C 1.19254 17.79394 0.01223
C 1.0883 27.76676 -0.00439
C 34.31477 25.55303 -0.05239
C 34.35138 24.13155 0.03076
C 1.16372 23.44924 0.00723
C 1.16988 22.02339 0.02712
C 0.03 21.29311 -0.02213
C 34.3983 19.88878 0.01951
C 1.12845 26.27209 -0.00598
C 30.65753 23.45505 0.01908
C 29.45921 24.17769 0.01518
C 29.41595 25.58129 -0.00971
C 23.32129 30.54754 0.00996
C 22.09741 29.82233 0.00195
C 22.07254 28.44449 -0.00802
C 23.38864 27.67215 -0.00218
C 23.33443 26.30975 -0.01654
C 22.14725 25.58022 -0.00037
C 23.32269 31.96645 0.04306
C 22.11672 24.12268 -0.0032
C 23.2522 21.82551 -0.02815
C 21.95909 21.20826 -0.00942
C 23.53476 2.18834 0.00487
C 23.25127 0.83585 0.00826
C 22.08892 0.06036 -0.00294
C 24.46335 32.66143 0.00152
C 23.23331 23.28265 0.00622
C 25.73601 32.01616 0.01257
C 22.04921 32.673 0.00367
C 20.96141 0.85821 -0.01052
C 17.16047 0.24388 0.02737
C 19.69711 32.79153 -0.00498
C 20.82869 31.99699 0.00135
C 20.86598 30.51807 0.03102
C 19.65578 29.81323 0.02555
C 19.61489 28.35555 0.01423
C 19.7031 0.20069 -0.01679
C 20.82841 27.65326 -0.00285
C 19.67905 25.59341 -0.01199
C 19.61547 24.13245 -0.00229
C 20.85238 23.42332 -0.00938
C 20.86245 22.04321 -0.0264
C 19.70323 21.29976 -0.01154
C 19.40124 19.96376 0.00684
C 20.87269 26.27691 -0.009
C 25.80445 30.60851 0.02316
C 24.59015 29.85253 0.04185
C 24.62277 28.39077 0.00194
C 27.00102 24.05095 -0.01854
C 28.30638 23.42655 -0.01415
C 28.34636 22.02534 -0.03039
C 27.20754 21.315 0.01836
C 27.49783 2.22275 0.03531
C 28.08098 1.1532 -0.00669
C 26.93641 25.45236 -0.02049
C 26.97125 0.09941 0.0101
C 30.60531 32.17632 -0.0405
C 30.64585 30.64386 -0.01303
C 29.49025 29.86064 -0.01461
C 29.49824 28.41291 -0.02155
C 30.68819 27.76032 -0.00944
C 30.63729 26.35051 -0.03735
C 29.38468 32.96827 0.01705
C 28.19545 26.22755 0.03265
C 28.18968 27.65318 0.00261
C 27.03315 28.33359 0.02326
C 25.84287 27.60992 -0.00621
C 25.76584 26.19756 0.02611
C 24.51107 25.44592 0.02198
C 24.46527 24.02613 0.01094
C 25.75533 23.34139 0.00235
C 25.87095 21.79822 0.01495
C 24.55695 21.35585 0.01259
C 24.76371 2.69702 0.01799
C 26.00518 2.18881 0.01699
C 25.78058 0.65764 -0.00416
C 24.53218 0.03722 0.01177
C 27.04462 32.86193 0.04266
C 28.21025 32.12551 0.01324
C 28.223 30.6146 0.0014
C 27.06003 29.90517 0.00924
C 3.69699 31.98329 0.00406
C 2.3928 32.67649 0.03592
