384
Graphene
C 34.4316 0.07018 0.01295
C 11.02928 4.97969 0.02162
C 9.83367 4.35192 0.0076
C 9.84654 2.89197 0.01241
C 11.08793 2.20556 -0.01454
C 11.11391 0.74023 0.01945
C 9.9014 0.06132 0.01416
C 12.29266 32.64275 0.03542
C 13.45761 31.88679 0.02299
C 13.54235 30.48299 0.00244
C 11.02969 6.38965 -0.0014
C 12.26921 29.81495 -0.01717
C 13.56015 27.66335 -0.01952
C 13.58079 26.23787 -0.02813
C 12.31482 25.62416 0.00374
C 12.33187 24.17605 0.00052
C 13.48992 23.32873 -0.03682
C 13.4622 21.91071 0.01965
C 12.23533 21.25323 0.02058
C 12.3087 19.80227 -0.01957
C 13.56735 19.08428 -0.0108
C 12.30798 28.43422 0.05265
C 13.50812 17.71881 -0.00368
C 9.84934 7.18827 0.00415
C 11.01939 9.2992 0.01363
C 11.11908 30.60846 0.00943
C 9.90858 29.82624 0.02841
C 9.87968 28.44733 -0.01111
C 11.08667 27.69205 -0.01275
C 11.08306 26.30361 0.00985
C 9.81967 25.63281 -0.02245
C 9.84346 24.20435 -0.00428
C 11.05815 23.50664 0.03101
C 11.06954 22.05125 -0.01536
C 9.77584 8.66159 -0.02162
C 9.87567 21.27393 -0.02689
C 11.0509 19.18009 -0.00891
C 11.0727 17.80501 0.02819
C 9.90286 16.9914 0.00165
C 9.82259 15.59221 -0.02971
C 11.04995 14.91019 0.02894
C 11.03223 13.46018 -0.01789
C 9.8063 12.76859 0.00444
C 9.89317 11.36074 -0.00925
C 11.15926 10.70226 0.01877
C 9.82289 19.76568 -0.01046
C 11.01956 31.98267 0.00406
C 12.30038 17.11142 -0.02696
C 13.52563 14.95062 0.00228
C 16.01569 21.94435 0.03338
C 14.72863 21.2488 -0.0258
C 14.72784 19.84894 -0.0331
C 15.98669 19.1771 -0.00316
C 15.98041 17.76511 0.02188
C 14.73917 17.04845 -0.01979
C 14.79622 15.60737 0.02691
C 16.07179 14.91767 -0.01581
C 16.06599 13.46285 0.01452
C 15.99799 23.35268 -0.00491
C 14.76747 12.81687 0.04892
C 15.99549 10.61985 -0.03557
C 15.93248 9.14727 0.03754
C 14.72122 8.44757 0.01739
C 14.84636 7.05203 0.00755
C 16.03668 6.34684 -0.0054
C 15.97602 4.90833 0.00667
C 14.66265 4.30233 0.00143
C 14.67646 2.87693 -0.017
C 15.9503 2.14574 0.00364
C 14.74974 11.33122 -0.00111
C 12.25092 15.70223 -0.00114
C 14.78303 24.11904 -0.00109
C 16.02361 26.21209 -0.02213
C 13.54098 13.56694 0.00798
C 12.36128 12.79981 0.00422
C 12.38124 11.43162 0.0351
C 13.578 10.6453 -0.03113
C 13.49406 9.16211 0.02098
C 12.21488 8.52793 0.01848
C 12.27248 7.07277 -0.00619
C 13.55595 6.37327 -0.02162
C 13.47183 4.98752 0.00889
C 14.81986 25.48711 0.03698
C 12.31495 4.22577 -0.00481
C 13.47748 2.09305 0.01443
C 13.46354 0.72587 0.03505
C 12.26494 34.06278 -0.02815
C 14.70018 32.63152 -0.04147
C 15.96143 31.83799 -0.05302
C 15.9727 30.42934 0.00213
C 14.75682 29.71622 -0.00066
C 14.75016 28.31175 -0.00289
C 15.93294 27.61211 0.00028
C 12.32933 2.8484 0.00979
C 15.96512 0.74862 -0.00831
C 9.86805 32.75103 0.03592
C 8.63389 0.71186 0.0402
C 3.61633 4.9744 -0.02566
C 2.42984 4.2752 -0.00094
C 2.51317 2.90977 0.02322
C 3.65316 2.17955 -0.00725
C 3.63476 0.6952 -0.05697
C 2.41518 0.00422 0.01087
C 4.83278 32.72607 -0.01343
C 6.10305 32.0389 0.00988
C 6.15912 30.59157 0.0276
C 3.64186 6.3914 -0.03113
C 4.89434 29.89822 0.01305
C 6.09491 27.70194 0.03368
C 6.05871 26.34666 -0.02929
C 4.90423 25.60259 -0.00966
C 4.8946 24.18313 -0.03337
C 6.1229 23.44572 0.01227
C 6.12515 21.96354 0.00873
C 4.89368 21.32856 -0.00049
C 4.99684 19.87328 0.00848
C 6.23433 19.20897 -0.01303
C 4.89591 28.45117 -0.00077
C 6.21751 17.78641 -0.01378
C 2.42146 7.05118 0.017
C 3.62776 9.20338 0.0086
C 3.64502 30.57661 0.00031
C 2.46461 29.81056 -0.003
C 2.46736 28.42125 0.01402
C 3.68809 27.70367 0.02379
C 3.63513 26.29499 0.00907
C 2.47969 25.52047 0.00643
C 2.40295 24.10027 -0.01509
C 3.65219 23.47962 0.03267
C 3.62374 21.99793 0.02374
C 2.42193 8.52843 -0.00643
C 2.39616 21.28396 0.00402
C 3.75583 19.13499 0.0174
C 3.76627 17.75919 0.03828
C 2.4754 17.08607 0.01226
C 2.5021 15.64848 -0.00279
C 3.66776 14.96659 0.01996
C 3.67325 13.5105 -0.03996
C 2.42078 12.74993 0.01465
C 2.43805 11.30347 -0.00074
C 3.64313 10.60732 -0.00518
C 2.50052 19.88209 0.0073
C 7.39996 0.03159 0.00572
C 4.98518 17.11817 0.02635
C 6.06942 14.93822 0.01396
C 8.68274 22.02776 -0.00131
C 7.46101 21.37924 -0.01118
C 7.49273 19.91176 -0.014
C 8.61675 19.09444 0.02147
C 8.6361 17.6348 0.00373
C 7.39388 16.94028 -0.00191
C 7.2775 15.59668 0.00438
C 8.57773 14.89308 0.01291
C 8.55972 13.496 0.00093
C 8.63032 23.46697 -0.02896
C 7.3732 12.83667 0.00057
C 8.59712 10.70365 -0.00334
C 8.58102 9.32151 0.02339
C 7.40768 8.52932 0.01641
C 7.32819 7.13653 -0.00719
C 8.6073 6.45021 0.01364
C 8.58292 5.00939 -0.01062
C 7.38123 4.32486 -0.00033
C 7.36533 2.87902 0.03589
C 8.62559 2.16085 -0.02759
C 7.37988 11.36811 -0.01634
C 4.89472 15.69788 0.0127
C 7.39355 24.17362 -0.01004
C 8.55335 26.3434 0.01745
C 6.14102 13.47963 0.01849
C 4.87624 12.80789 -0.01142
C 4.93262 11.40264 -0.00562
C 6.13769 10.72087 -0.00494
C 6.16672 9.24531 0.00054
C 4.90969 8.55159 0.03007
C 4.86473 7.13176 -0.00095
C 6.13982 6.43789 0.01572
C 6.15127 5.04567 -0.04848
C 7.33302 25.61035 0.00488
C 4.84976 4.31729 -0.00892
C 6.12288 2.12659 -0.0008
C 6.11667 0.73412 0.0288
C 4.8633 0.01169 0.00393
C 7.35098 32.70786 0.00895
C 8.60477 32.00076 0.00685
C 8.62404 30.56325 0.02888
C 7.34814 29.8549 -0.00482
C 7.3605 28.47016 -0.01384
C 8.57715 27.76732 0.03693
C 4.90008 2.86348 -0.01362
C 14.70431 0.00925 -0.02957
C 17.16002 32.57534 -0.04422
C 18.37391 31.89311 0.00654
C 30.95484 22.04837 0.0103
C 30.64313 9.16623 0.02108
C 29.58494 8.50784 0.00716
C 29.44083 7.12185 0.00307
C 30.71274 6.46796 0.00346
C 30.77415 5.01732 0.01713
C 29.51541 4.31291 -0.01694
C 29.54721 2.87941 0.01428
C 30.74481 2.16504 -0.02142
C 30.709 23.37979 0.07705
C 30.68302 0.72431 0.0544
C 31.95658 32.67097 0.00682
C 33.1972 31.96791 -0.01779
C 33.25619 30.50085 0.03794
C 32.01788 29.81193 0.01927
C 31.96889 28.41198 0.01574
C 33.13703 27.69209 -0.02383
C 33.16809 26.30685 -0.01429
C 31.97824 25.53894 -0.0136
C 32.00494 24.12276 0.00594
C 29.49918 34.0579 0.00026
C 33.19949 23.44835 -0.02474
C 29.43745 23.99896 0.01908
C 30.76285 26.2633 -0.00971
C 27.09558 28.44205 0.0014
C 28.29319 27.68481 0.00924
C 28.2127 26.23721 0.02326
C 27.02615 25.52395 0.00261
C 27.12501 23.96057 0.03265
C 28.32345 23.32892 -0.02049
C 26.99499 7.10956 -0.01854
C 28.1963 6.4132 -0.01415
C 28.20151 4.94375 -0.03039
C 29.5002 25.49748 0.01518
C 27.01124 4.24833 0.01836
C 28.30315 2.18874 -0.00669
C 28.33132 0.7372 0.0101
C 27.10168 34.04107 0.01705
C 29.47857 32.61829 -0.0405
C 30.74631 31.9101 -0.01303
C 30.81882 30.47117 -0.01461
C 29.50335 29.79248 -0.02155
C 29.50725 28.40388 -0.00944
C 30.77331 27.63911 -0.03735
C 27.05308 2.79314 0.03531
C 27.04931 29.85216 0.01324
C 33.11784 22.0444 0.00369
C 33.30908 19.12201 -0.00644
C 34.36845 21.29622 -0.02213
C 0.00407 19.9311 0.01951
C 1.22608 19.17655 -0.01678
C 1.28687 17.78803 0.01223
C 34.37813 16.9797 0.00648
C 34.36523 15.49717 0.02114
C 1.2177 14.98687 -0.02957
C 1.29015 13.52502 0.00343
C 0.04264 12.88717 -0.02656
C 1.18381 21.93843 0.02712
C 34.36554 11.34821 -0.02442
C 1.18944 9.27103 -0.00583
C 34.43137 8.51241 -0.02302
C 34.35025 7.09547 -0.02849
C 1.16045 6.3792 0.02931
C 1.14976 4.93783 0.00628
C 34.33964 4.21982 -0.0345
C 34.33687 2.76445 -0.00931
C 1.21584 2.20199 -0.00939
C 1.20406 0.81386 -0.00468
C 1.18634 10.61487 -0.00027
C 31.86273 21.36556 0.00455
C 1.18549 23.35741 0.00723
C 0.0005 25.58241 -0.05239
C 33.30584 17.95462 -0.01839
C 33.289 13.43821 0.00137
C 33.22538 10.66719 0.00199
C 33.18745 9.29376 0.04381
C 31.89262 8.66761 0.02806
C 31.92756 7.17637 0.01504
C 33.09819 6.41264 -0.00069
C 33.15996 5.00135 0.04926
C 31.94505 4.29843 -0.03838
C 0.02302 24.18525 0.03076
C 31.94829 2.82094 0.00349
C 33.16038 0.6619 -0.00841
C 31.90965 34.07378 0.0001
C 34.41923 32.73877 -0.02927
C 1.18718 31.96801 -0.01404
C 1.2072 30.53056 0.01027
C 0.02971 29.7858 0.01831
C 34.40942 28.35564 -0.01037
C 1.22685 27.74551 -0.00439
C 1.22414 26.27892 -0.00598
C 33.1338 2.04615 -0.00323
C 28.27284 30.56035 0.04266
C 28.32633 31.90447 0.01177
C 27.07908 32.62966 -0.00416
C 18.44895 4.94266 -0.00381
C 17.21322 4.24557 0.03046
C 17.21799 2.82643 0.0296
C 18.46655 2.08587 0.03374
C 18.44163 0.68114 -0.02845
C 17.21063 34.05971 -0.03213
C 19.62738 32.55023 0.02239
C 20.88652 31.96497 0.01153
C 20.91328 30.57454 0.02734
C 18.51158 6.36588 0.01852
C 19.65145 29.86248 -0.0055
C 20.82604 27.66804 -0.00225
C 20.87532 26.2202 0.00071
C 19.6844 25.47844 -0.01107
C 19.64878 24.05821 -0.01586
C 20.96393 23.36469 -0.01971
C 20.89486 22.03399 -0.02118
C 19.71861 21.17667 0.00733
C 19.5051 19.86583 -0.00178
C 19.81894 11.2496 0.00768
C 19.59621 28.43123 0.01515
C 20.78469 10.6384 -0.0276
C 17.25656 7.04899 0.01126
C 18.46102 9.24314 -0.01662
C 18.42073 30.52714 -0.00703
C 17.17558 29.73189 -0.04076
C 17.14935 28.29668 -0.00652
C 18.42383 27.6529 0.0058
C 18.5193 26.222 -0.00865
C 17.27462 25.46823 0.00675
C 17.2309 24.06442 -0.00311
C 18.42413 23.40458 0.00742
C 18.40974 22.07217 -0.01594
C 17.22693 8.45965 -0.01185
C 17.21532 21.3412 0.0106
C 18.37558 19.11839 -0.01721
C 18.39495 17.76455 -0.02422
C 17.25955 17.07078 0.01277
C 17.39227 15.68588 0.00096
C 18.51496 14.80899 -0.01527
C 18.40882 13.6563 0.01087
C 17.29886 12.73467 0.00199
C 17.24913 11.28526 0.01511
C 18.47685 10.68814 -0.00478
C 17.14923 19.91288 -0.01154
C 20.99692 9.24411 0.03005
C 19.69829 8.57244 -0.04078
C 19.6965 7.1178 0.02117
C 22.13117 0.01446 0.00622
C 24.58465 32.67043 -0.02815
C 25.82936 31.96169 -0.00942
C 25.83771 30.58764 0.00487
C 24.59902 29.84514 0.00826
C 24.65712 28.40452 -0.00294
C 25.87267 27.69557 0.00152
C 25.79294 26.24468 0.01257
C 24.57129 25.5912 0.02316
C 23.28053 0.69485 -0.0032
C 24.72321 24.12955 0.04185
C 24.43263 8.546 -0.00621
C 24.56387 7.1609 0.02611
C 25.84531 6.40628 0.02198
C 25.72245 4.93968 0.01094
C 24.47484 4.253 0.00235
C 24.51154 2.84214 0.01495
C 25.75949 2.06681 0.01259
C 25.82299 0.64762 0.01799
C 24.54708 34.05268 0.01699
C 25.90782 23.46741 0.00194
C 23.28139 2.13698 -0.00037
C 22.08323 2.85293 -0.01654
C 22.06177 4.23936 -0.00218
C 20.8515 6.42898 0.02737
C 20.81939 4.97979 -0.00498
C 19.66642 4.20124 0.00135
C 19.7023 2.79069 0.03102
C 20.92408 2.07944 0.02555
C 20.88936 0.65635 0.01423
C 19.6435 34.0783 -0.00285
C 22.21273 32.68587 -0.009
C 23.37827 31.95875 -0.01199
C 23.35239 30.48252 -0.00229
C 22.04217 29.78881 -0.00938
C 22.07706 28.38536 -0.0264
C 23.3124 27.72142 -0.01154
C 23.38467 26.30541 0.00684
C 22.14307 25.65373 -0.01052
C 22.16913 24.18195 -0.01679
C 23.42389 23.50393 0.00367
C 22.10863 8.47891 0.04306
C 22.13347 7.1204 0.00996
C 23.35199 6.40485 0.00195
C 23.2651 4.99471 -0.00802
C 3.64444 32.04011 0.03189
C 2.41393 32.71887 -0.04307
