362
Graphene
C 34.41252 0.04999 0.01295
C 18.29725 21.95236 0.01965
C 17.05225 21.18894 0.02058
C 17.30352 19.92667 -0.01957
C 18.46162 19.2587 -0.0108
C 18.41232 17.82046 -0.00368
C 17.26298 17.04023 -0.02696
C 16.96168 15.77511 -0.00114
C 18.25238 14.95491 0.00228
C 18.41942 23.45453 -0.03682
C 18.42789 13.50835 0.00798
C 17.26209 11.33239 0.0351
C 18.43567 10.64952 -0.03113
C 18.44717 9.26463 0.02098
C 17.21676 8.4854 0.01848
C 17.179 7.06416 -0.00619
C 18.33598 6.36866 -0.02162
C 18.39714 4.98201 0.00889
C 17.22043 4.25367 -0.00481
C 17.23887 12.80595 0.00422
C 17.16853 24.10454 0.00052
C 17.20752 25.49837 0.00374
C 18.44288 26.23131 -0.02813
C 15.97141 22.04396 0.00444
C 15.69428 14.93003 -0.00925
C 16.09372 13.51607 0.01877
C 14.90838 12.85355 0.01363
C 16.07686 10.70708 -0.02162
C 16.23224 9.41033 0.00415
C 15.92025 6.42992 -0.0014
C 15.98498 5.02888 0.02162
C 14.7215 4.41389 0.0076
C 14.74442 2.96093 0.01241
C 16.01587 2.14786 -0.01454
C 15.97913 0.69607 0.01945
C 14.73343 34.06763 0.01416
C 17.17413 32.69475 0.03542
C 18.40256 31.91816 0.02299
C 18.42159 30.50541 0.00244
C 17.25667 29.81914 -0.01717
C 17.24186 28.31391 0.05265
C 18.44997 27.63898 -0.01952
C 17.25867 2.81381 0.00979
C 15.78384 23.41142 -0.01789
C 18.44186 2.14344 0.01443
C 17.23014 0.01473 -0.02815
C 19.6847 8.48955 0.01739
C 19.56658 7.02258 0.00755
C 20.83313 6.32106 -0.0054
C 20.89149 4.9691 0.00667
C 19.68895 4.22047 0.00143
C 19.69863 2.76813 -0.017
C 20.95992 2.10095 0.00364
C 20.95787 0.66235 -0.00831
C 20.92357 9.25597 0.03754
C 19.66495 0.01163 -0.02957
C 23.37012 31.94207 0.00654
C 23.40303 30.51468 -0.00703
C 22.20217 29.84712 -0.04076
C 22.13557 28.44654 -0.00652
C 23.30408 27.66895 0.0058
C 23.31459 26.23656 -0.00865
C 22.11082 25.52697 0.00675
C 22.04332 24.12719 -0.00311
C 22.1412 32.68459 -0.04422
C 20.86418 10.64602 -0.03557
C 19.68975 11.39082 -0.00111
C 19.63959 12.75463 0.04892
C 19.6867 32.61089 -0.04147
C 20.94085 31.97069 -0.05302
C 20.96354 30.51286 0.00213
C 19.70367 29.82348 -0.00066
C 19.7091 28.39854 -0.00289
C 20.95468 27.63818 0.00028
C 20.89581 26.20558 -0.02213
C 19.65045 25.49554 0.03698
C 19.64915 24.03528 -0.00109
C 20.86356 23.38405 -0.00491
C 20.89112 21.99095 0.03338
C 19.66907 21.26225 -0.0258
C 19.72504 19.81867 -0.0331
C 20.88748 19.12131 -0.00316
C 20.87696 17.68848 0.02188
C 19.64006 16.98822 -0.01979
C 19.52467 15.6134 0.02691
C 20.8165 14.89734 -0.01581
C 20.82187 13.4658 0.01452
C 18.40635 0.73391 0.03505
C 14.59052 24.09792 0.02894
C 14.7259 25.51941 -0.02971
C 15.94488 26.24841 0.00165
C 6.21913 27.73727 0.02635
C 6.09957 26.40066 0.0127
C 5.01889 25.57307 0.01396
C 4.92673 11.78628 0.01849
C 5.99267 10.68883 -0.01142
C 6.27726 9.37011 -0.00562
C 4.96217 7.19397 -0.00494
C 6.08726 6.39229 0.00054
C 4.98817 28.45294 -0.01378
C 6.10269 4.99567 0.03007
C 4.92238 2.87577 0.01572
C 6.14378 2.18555 -0.04848
C 6.15216 0.80665 -0.00892
C 4.88483 0.0339 -0.01362
C 7.34744 32.79923 -0.0008
C 8.56941 32.04866 0.0288
C 8.59142 30.58419 0.00393
C 7.35093 29.82135 0.00895
C 4.83686 4.27391 -0.00095
C 4.93352 29.86969 -0.01303
C 6.09095 30.63184 0.00848
C 6.13618 32.0695 -0.00049
C 3.58052 30.60843 0.017
C 2.4271 29.79233 -0.03113
C 2.5189 28.42185 -0.02566
C 3.78347 27.67307 -0.00094
C 3.76277 26.25191 0.02322
C 2.47663 25.55166 -0.00725
C 2.54689 24.14023 -0.05697
C 3.77569 13.46748 0.01087
C 2.44774 12.69825 -0.01343
C 2.53452 11.36864 0.00988
C 2.37433 7.23562 0.0276
C 3.71118 6.54742 0.01305
C 3.61044 5.08241 -0.00077
C 2.41112 4.39833 0.03368
C 2.38736 2.89893 -0.02929
C 3.6766 2.208 -0.00966
C 3.66834 0.67763 -0.03337
C 2.39335 0.02967 0.01227
C 4.91209 32.74456 0.00873
C 7.42444 28.36969 0.00685
C 8.66424 27.65664 0.02888
C 8.81438 26.18987 -0.00482
C 7.16562 11.42468 -0.01384
C 13.48082 31.88532 0.03589
C 13.42874 30.45785 -0.02759
C 12.2257 29.84086 0.0402
C 12.29311 28.33715 0.00572
C 13.47477 27.58073 0.03592
C 13.55077 26.20962 0.00406
C 12.27432 25.70895 0.00943
C 13.5084 5.10374 0.02841
C 12.28709 4.60401 -0.01111
C 12.31685 2.94774 -0.01275
C 13.54494 2.15751 0.00985
C 13.52255 0.65133 -0.02245
C 12.31996 0.0568 -0.00428
C 14.76712 32.59593 0.03101
C 16.01354 31.9063 -0.01536
C 15.99688 30.51658 -0.02689
C 14.69684 29.81019 -0.01046
C 14.71025 28.33672 -0.00891
C 15.96365 27.6407 0.02819
C 12.22849 32.65408 -0.00033
C 23.31428 23.40526 0.00742
C 9.83304 0.09964 -0.01062
C 11.12033 2.16459 -0.00719
C 7.22728 8.47079 0.03693
C 7.54388 7.10828 0.01745
C 8.698 6.42205 0.00488
C 8.58182 5.00615 -0.01004
C 7.38107 4.324 -0.02896
C 7.34962 2.92403 -0.00131
C 8.64658 2.26481 -0.01118
C 8.55169 0.87717 -0.014
C 7.31371 0.11368 0.02147
C 9.80998 32.69695 0.00373
C 10.99602 31.955 -0.00191
C 11.01339 30.52986 0.00438
C 9.7979 29.81075 0.01291
C 9.84894 28.37346 0.00093
C 11.03843 27.66231 0.00057
C 11.00231 26.29003 -0.01634
C 11.00651 5.0878 -0.00334
C 9.83403 4.31415 0.02339
C 9.88013 2.94271 0.01641
C 11.09012 0.74249 0.01364
C 23.33569 21.95376 -0.01594
C 22.12011 21.23762 0.0106
C 22.1095 19.84011 -0.01154
C 29.50046 0.03202 0.00346
C 31.94305 32.72624 0.01713
C 33.17446 32.01387 -0.01694
C 33.13456 30.61769 0.01428
C 31.89801 29.89978 -0.02142
C 31.92401 28.4866 0.0544
C 33.1404 27.76523 0.00026
C 33.1646 26.32283 0.00682
C 30.71616 0.74273 0.00307
C 31.94457 25.61677 -0.01779
C 33.21531 23.52662 0.01927
C 33.21784 22.02202 0.01574
C 32.03263 21.30081 -0.02383
C 32.02502 19.81579 -0.01429
C 33.2927 19.12909 -0.0136
C 33.29867 17.68917 0.00594
C 31.99764 17.09182 -0.02474
C 31.94092 15.62499 0.00369
C 31.90846 24.19574 0.03794
C 30.68277 2.10858 0.00716
C 29.47283 2.85816 0.02108
C 29.51469 4.2095 0.0103
C 29.46965 24.15213 -0.02049
C 30.65285 23.47798 -0.01854
C 30.65435 22.08028 -0.01415
C 29.43672 21.3144 -0.03039
C 29.49318 19.86232 0.01836
C 30.73662 19.17047 0.03531
C 30.74693 17.78436 -0.00669
C 29.50125 17.09129 0.0101
C 29.47709 15.63201 0.01705
C 30.72965 14.92786 -0.0405
C 30.70298 13.45958 -0.01303
C 29.52314 12.78661 -0.01461
C 29.517 11.33753 -0.02155
C 30.74349 10.58585 -0.00944
C 30.75158 9.23232 -0.03735
C 29.52961 8.49124 -0.00971
C 29.59684 7.07313 0.01518
C 30.72468 6.32955 0.01908
C 30.762 4.92067 0.07705
C 33.22293 14.92008 0.00455
C 33.19335 13.50397 -0.00644
C 31.91366 12.7921 -0.01839
C 31.95788 11.35518 0.00137
C 0.06071 19.90971 0.01951
C 1.25249 19.12197 -0.01678
C 1.12641 17.79621 0.01223
C 0.04278 16.92297 0.00648
C 0.06854 15.59713 0.02114
C 1.25613 14.84185 -0.02957
C 1.10593 13.4553 0.00343
C 34.3743 12.71585 -0.02656
C 0.01072 11.32602 -0.02442
C 1.41211 10.53914 -0.00027
C 1.27477 9.11825 -0.00583
C 34.37499 8.47326 -0.02302
C 34.40747 7.12075 -0.02849
C 1.17263 6.4175 0.02931
C 1.20472 5.05423 0.00628
C 34.40665 4.28666 -0.0345
C 34.3929 2.94397 -0.00931
C 1.13274 2.19432 -0.00939
C 1.19833 0.7772 -0.00468
C 0.00873 21.28459 -0.02213
C 29.39249 25.63378 0.03265
C 1.07328 22.08472 0.02712
C 0.01437 24.15926 0.03076
C 33.21355 10.67835 0.00199
C 33.17375 9.22897 0.04381
C 31.97503 8.41999 0.02806
C 31.90621 7.03665 0.01504
C 33.22826 6.37325 -0.00069
C 33.15255 4.90971 0.04926
C 31.92423 4.1522 -0.03838
C 31.93421 2.80473 0.00349
C 33.20885 2.16772 -0.00323
C 33.14935 0.71371 -0.00841
C 31.92409 0.05328 0.0001
C 34.43185 32.71328 -0.02927
C 1.17248 32.00308 -0.01404
C 1.18989 30.51966 0.01027
C 34.39619 29.79031 0.01831
C 0.032 28.36808 -0.01037
C 1.2729 27.67252 -0.00439
C 1.2557 26.27576 -0.00598
C 0.0082 25.59256 -0.05239
C 1.33066 23.37492 0.00723
C 3.57212 31.98156 -0.00643
C 30.63196 26.35548 0.00261
C 29.39027 28.43505 0.00924
C 24.56255 28.38336 0.01515
C 25.77942 27.61889 -0.00225
C 25.73542 26.23795 0.00071
C 24.54308 25.56354 -0.01107
C 24.52855 24.15341 -0.01586
C 25.71288 23.41414 -0.01971
C 25.75113 21.95209 -0.02118
C 24.51027 21.37338 0.00733
C 24.66436 29.86925 -0.0055
C 24.55395 19.87317 -0.00178
C 25.75549 17.70533 -0.0276
C 24.52461 16.98827 0.03005
C 24.59399 15.55627 -0.04078
C 25.83084 14.87607 0.02117
C 25.70308 13.42173 0.02737
C 24.48624 12.73715 -0.00498
C 24.58367 11.27054 0.00135
C 25.7908 10.59792 0.03102
C 25.72661 19.16001 0.00768
C 25.82951 30.54886 0.02734
C 25.94468 31.98627 0.01153
C 24.66556 32.63662 0.02239
C 23.35913 19.10665 -0.01721
C 23.31043 17.68427 -0.02422
C 22.08135 17.03392 0.01277
C 21.98375 15.60241 0.00096
C 23.2934 14.87346 -0.01527
C 23.2822 13.41172 0.01087
C 22.03329 12.76537 0.00199
C 22.07586 11.39681 0.01511
C 23.36784 10.5846 -0.00478
C 23.34302 9.18028 -0.01662
C 22.0759 8.5257 -0.01185
C 22.07946 7.09358 0.01126
C 23.26912 6.37017 0.01852
C 23.39037 4.91051 -0.00381
C 22.16709 4.16401 0.03046
C 22.17879 2.77254 0.0296
C 23.39648 2.06767 0.03374
C 23.43661 0.65745 -0.02845
C 22.18899 34.05293 -0.03213
C 25.81379 9.17563 0.02555
C 24.61278 8.46362 0.01423
C 24.54822 7.00954 -0.00285
C 25.77735 6.43558 -0.009
C 28.22395 14.86621 0.00152
C 28.32398 13.45409 0.01257
C 27.00954 12.69679 0.02316
C 27.03908 11.28675 0.04185
C 28.26575 10.59109 0.00194
C 28.28035 9.17405 -0.00621
C 27.11099 8.48412 0.02611
C 27.06462 7.08582 0.02198
C 28.34452 6.39663 0.01094
C 28.32379 4.98642 0.00235
C 27.08216 4.25211 0.01495
C 27.07365 2.88521 0.01259
C 28.23361 2.20151 0.01799
C 28.24686 0.80558 0.01699
C 27.01627 0.05109 -0.00416
C 29.48821 32.69342 0.01177
C 30.79364 32.03011 0.04266
C 30.65747 30.61743 0.01324
C 29.48925 29.83131 0.0014
C 27.05298 15.57617 -0.00294
C 30.60166 27.74807 0.02326
C 27.04483 16.96012 0.00826
C 28.23235 19.24409 -0.00942
C 25.91736 4.96089 -0.01199
C 24.61749 4.24301 -0.00229
C 24.71189 2.82598 -0.00938
C 25.90277 2.12742 -0.0264
C 25.85335 0.7065 -0.01154
C 24.6249 33.98663 0.00684
C 27.02608 32.68973 -0.01052
C 28.32297 31.9647 -0.01679
C 28.25772 30.5687 0.00367
C 27.06105 29.85351 0.04306
C 27.00962 28.40245 0.00996
C 28.2183 27.71571 0.00195
C 28.15887 26.31108 -0.00802
C 26.96712 25.52818 -0.00218
C 26.96626 24.11665 -0.01654
C 28.29897 23.43579 -0.00037
C 28.2308 22.00206 -0.0032
C 26.98503 21.28289 0.00622
C 26.99661 19.92352 -0.02815
C 28.26213 17.76262 0.00487
C 2.39916 32.70697 0.0086
