424
Graphene
C 0.01329 0.01264 0.01295
C 13.54075 10.63144 0.00572
C 13.47773 9.28577 0.03592
C 12.28334 8.54762 0.00406
C 12.29751 7.07441 0.00943
C 13.53614 6.43072 0.02841
C 13.52712 4.97157 -0.01111
C 12.27876 4.28906 -0.01275
C 12.28766 2.84039 0.00985
C 13.51221 2.09476 -0.02245
C 13.50774 0.71745 -0.00428
C 12.32669 11.38543 0.0402
C 12.31249 34.06698 0.03101
C 15.9952 31.93876 -0.02689
C 16.03462 30.54641 -0.01046
C 14.7865 29.84996 -0.00891
C 14.78249 28.38073 0.02819
C 15.99194 27.67358 0.00165
C 15.96927 26.27214 -0.02971
C 16.00231 17.70344 0.02894
C 14.73114 17.0566 -0.01789
C 14.73652 15.63363 0.00444
C 15.97913 14.89144 -0.00925
C 14.72662 32.66221 -0.01536
C 12.25802 12.78982 -0.02759
C 13.52398 13.5059 0.03589
C 13.52903 14.92081 -0.00033
C 11.05739 13.47023 -0.01384
C 9.85741 12.78115 0.03693
C 9.82191 11.34497 0.01745
C 11.05435 10.65871 0.00488
C 11.03961 9.24969 -0.01004
C 9.83174 8.59119 -0.02896
C 9.83473 7.133 -0.00131
C 11.07989 6.39242 -0.01118
C 11.05722 4.9446 -0.014
C 9.83596 4.2585 0.02147
C 9.85419 2.86353 0.00373
C 11.10862 2.15396 -0.00191
C 11.0944 0.67943 0.00438
C 9.81129 0.0284 0.01291
C 12.32833 32.64511 0.00093
C 13.50396 31.93585 0.00057
C 13.54102 30.54581 -0.01634
C 12.35787 29.83551 -0.00334
C 12.30644 28.43244 0.02339
C 13.54937 27.71485 0.01641
C 13.54587 26.32474 -0.00719
C 12.27311 17.0755 0.01364
C 12.31177 15.64093 -0.01062
C 15.98642 13.47615 0.01877
C 11.07072 14.93798 -0.00482
C 14.77613 12.7656 0.01363
C 15.94212 10.6634 0.00415
C 17.21836 11.34919 0.0351
C 18.44085 10.61366 -0.03113
C 18.46801 9.24816 0.02098
C 17.22449 8.48138 0.01848
C 17.2343 7.1118 -0.00619
C 18.44338 6.40764 -0.02162
C 18.45513 4.9629 0.00889
C 17.17136 4.27379 -0.00481
C 17.18661 2.82331 0.00979
C 18.46994 2.13199 0.01443
C 17.18893 12.79477 0.00422
C 18.42533 0.70821 0.03505
C 19.67655 32.68045 -0.04147
C 20.88467 31.98172 -0.05302
C 20.86682 30.53799 0.00213
C 19.65792 29.82482 -0.00066
C 19.66806 28.40944 -0.00289
C 20.96832 27.67639 0.00028
C 20.93332 26.2634 -0.02213
C 19.6794 25.58187 0.03698
C 19.66993 24.10584 -0.00109
C 20.91966 23.40951 -0.00491
C 17.21174 34.07678 -0.02815
C 18.44695 13.46169 0.00798
C 18.43494 14.91757 0.00228
C 17.21329 15.60999 -0.00114
C 16.02119 9.24968 -0.0014
C 14.75504 8.53088 0.02162
C 14.74571 7.08186 0.0076
C 15.96394 6.39577 0.01241
C 15.99376 4.93682 -0.01454
C 14.72088 4.2722 0.01945
C 14.74391 2.88281 0.01416
C 15.99203 2.12127 0.03542
C 16.02074 0.70239 0.02299
C 14.76674 34.04306 0.00244
C 17.20817 32.65354 -0.01717
C 18.4708 31.92197 0.05265
C 18.40896 30.49534 -0.01952
C 17.21427 29.79957 -0.02813
C 17.24797 28.39344 0.00374
C 18.40965 27.70403 0.00052
C 18.48647 26.26834 -0.03682
C 17.20807 25.57323 0.01965
C 18.44714 23.39445 0.02058
C 18.43694 22.04245 -0.01957
C 18.45341 19.14637 -0.0108
C 18.45076 17.76239 -0.00368
C 17.20738 17.02101 -0.02696
C 14.74536 11.33663 -0.02162
C 20.88138 22.00609 0.03338
C 9.84306 15.62315 0.02888
C 11.09207 17.73206 0.00895
C 3.71054 2.11518 -0.01979
C 3.67608 0.71946 0.02784
C 2.43325 0.00208 -0.01977
C 4.88975 32.6753 -0.00561
C 6.17103 31.96827 0.00208
C 6.15575 30.53111 0.01707
C 4.92575 29.86023 0.02769
C 4.94365 28.3905 -0.03291
C 6.18426 27.65774 -0.04999
C 6.19158 26.26644 0.04505
C 2.46783 2.81654 -0.00449
C 4.94243 25.52389 0.03284
C 6.13293 23.3988 0.03189
C 6.12327 21.99743 0.00031
C 4.90209 21.36468 -0.003
C 4.89621 19.89452 0.01402
C 6.15821 19.17934 0.02379
C 6.14762 17.79062 0.00907
C 4.94174 17.04206 0.00643
C 4.88358 15.60903 -0.01509
C 6.18086 14.88239 0.03267
C 6.13116 13.48693 0.02374
C 4.89424 24.15369 -0.04307
C 2.45067 4.25951 0.00211
C 3.65607 4.96397 0.0064
C 3.67393 6.41611 -0.00039
C 3.67234 30.49775 -0.02827
C 2.48684 29.8251 0.01078
C 2.48047 28.40475 -0.00112
C 3.71119 27.68199 0.03345
C 3.69843 26.23058 0.00748
C 2.44598 25.50639 0.00662
C 2.43059 24.12965 -0.0154
C 3.69461 23.41358 -0.01299
C 3.72096 21.98867 -0.00407
C 2.49124 21.30214 0.01138
C 2.51027 19.89321 0.03278
C 3.66249 19.14698 -0.00177
C 3.71054 17.76107 0.04421
C 2.48177 17.03688 0.00088
C 2.47448 15.65289 0.00828
C 3.6561 14.90098 -0.02375
C 3.70517 13.46954 0.00558
C 2.42897 12.80327 -0.0059
C 2.46459 11.31204 -0.01386
C 3.67957 10.63402 -0.02805
C 3.69272 9.24112 0.00081
C 2.45318 8.52479 0.00245
C 2.48049 7.07659 0.02728
C 4.95483 12.79237 0.00402
C 9.83422 17.07186 0.00685
C 4.94129 11.37302 0.0073
C 6.12493 9.21259 0.03828
C 8.6518 13.52202 0.00873
C 7.40514 12.78585 -0.00049
C 7.36776 11.35551 0.00848
C 8.62139 10.67303 -0.01303
C 8.63053 9.26308 -0.01378
C 7.40219 8.5339 0.02635
C 7.38376 7.12874 0.0127
C 8.62609 6.40138 0.01396
C 8.60036 5.03067 0.01849
C 7.40042 4.28846 -0.01142
C 8.61628 14.9197 0.01227
C 7.33834 2.82142 -0.00562
C 8.62804 0.72194 0.00054
C 7.38614 34.05525 0.03007
C 9.8513 32.63562 -0.00095
C 11.02797 31.98055 0.01572
C 11.02039 30.54367 -0.04848
C 9.85933 29.81235 -0.00892
C 9.78483 28.39968 -0.01362
C 11.03622 27.74104 -0.0008
C 11.0742 26.25463 0.0288
C 9.86508 25.58163 0.00393
C 8.58988 2.11642 -0.00494
C 7.34613 15.62445 -0.03337
C 7.40743 17.07935 -0.00966
C 8.64428 17.70909 -0.02929
C 4.93423 8.51114 0.01226
C 4.84286 7.1337 -0.00279
C 6.16821 6.39796 0.01996
C 6.13832 4.98947 -0.03996
C 4.8931 4.26055 0.01465
C 4.89501 2.84084 -0.00074
C 6.15396 2.10878 -0.00518
C 6.19098 0.73869 0.0086
C 4.88863 34.07302 -0.00643
C 7.3761 32.70473 0.017
C 8.62638 31.92657 -0.03113
C 8.61355 30.53002 -0.02566
C 7.36656 29.83731 -0.00094
C 7.37624 28.37585 0.02322
C 8.63696 27.6811 -0.00725
C 8.5953 26.27556 -0.05697
C 7.37201 25.58425 0.01087
C 7.37584 24.13051 -0.01343
C 8.56783 23.45701 0.00988
C 8.59596 22.0473 0.0276
C 7.38094 21.29792 0.01305
C 7.39657 19.88673 -0.00077
C 8.60623 19.20012 0.03368
C 6.14137 10.66448 0.0174
C 19.69513 21.30256 -0.0258
C 19.65768 19.85891 -0.0331
C 20.87154 19.18987 -0.00316
C 29.52441 11.37478 -0.02155
C 30.77675 10.64255 -0.00944
C 30.74648 9.23665 -0.03735
C 29.51544 8.50072 -0.00971
C 29.53296 7.10218 0.01518
C 30.74991 6.42719 0.01908
C 30.75536 4.9587 0.07705
C 29.46746 4.25182 0.0103
C 29.54586 2.83716 0.02108
C 30.72661 2.09016 0.00716
C 29.48692 12.80462 -0.01461
C 30.73707 0.68119 0.00307
C 31.92947 32.66683 0.01713
C 33.20462 31.95267 -0.01694
C 33.21641 30.5014 0.01428
C 31.99975 29.79939 -0.02142
C 32.00032 28.41096 0.0544
C 33.23639 27.69903 0.00026
C 33.18576 26.23767 0.00682
C 31.97278 25.55054 -0.01779
C 32.00034 24.14392 0.03794
C 33.20877 23.41059 0.01927
C 29.52284 34.0477 0.00346
C 30.74589 13.49766 -0.01303
C 30.77623 14.92564 -0.0405
C 29.52796 15.63845 0.01705
C 28.3005 6.38006 0.01094
C 28.3121 4.99299 0.00235
C 27.02266 4.26177 0.01495
C 27.06219 2.85653 0.01259
C 28.28864 2.11332 0.01799
C 28.29651 0.71848 0.01699
C 27.07475 34.06541 -0.00416
C 29.46822 32.63753 0.01177
C 30.76826 31.94118 0.04266
C 30.73952 30.53691 0.01324
C 29.53128 29.83628 0.0014
C 29.49641 28.34698 0.00924
C 30.75365 27.65327 0.02326
C 30.71219 26.25907 0.00261
C 29.53699 25.53561 0.03265
C 29.48527 24.06486 -0.02049
C 30.72883 23.45047 -0.01854
C 30.73196 22.01671 -0.01415
C 29.53931 21.31847 -0.03039
C 29.51712 19.83237 0.01836
C 30.73512 19.18473 0.03531
C 30.76174 17.74763 -0.00669
C 29.50068 17.0366 0.0101
C 33.21678 21.98695 0.01574
C 27.03179 7.08359 0.02198
C 31.98055 21.31613 -0.02383
C 33.20905 19.18683 -0.0136
C 1.24325 23.42775 0.00723
C 1.21183 22.02057 0.02712
C 34.40792 21.31549 -0.02213
C 34.4312 19.89844 0.01951
C 1.24414 19.21427 -0.01678
C 1.21105 17.74528 0.01223
C 34.42421 17.00633 0.00648
C 34.42117 15.6277 0.02114
C 1.23473 14.90688 -0.02957
C 1.24015 13.50545 0.00343
C 34.41098 24.13469 0.03076
C 34.42851 12.74114 -0.02656
C 1.21147 10.69028 -0.00027
C 1.22788 9.25441 -0.00583
C 34.42469 8.4991 -0.02302
C 34.4278 7.08865 -0.02849
C 1.18749 6.3593 0.02931
C 1.21822 4.96054 0.00628
C 0.02214 4.22615 -0.0345
C 34.41252 2.80306 -0.00931
C 1.24494 2.14238 -0.00939
C 1.26404 0.70968 -0.00468
C 34.40719 11.35207 -0.02442
C 34.41747 25.59913 -0.05239
C 1.258 26.25328 -0.00598
C 1.2387 27.65192 -0.00439
C 33.19503 17.76825 0.00594
C 31.96843 17.04676 -0.02474
C 32.00812 15.56625 0.00369
C 33.21226 14.87645 0.00455
C 33.21568 13.46895 -0.00644
C 31.95809 12.788 -0.01839
C 31.98442 11.32023 0.00137
C 33.17886 10.65709 0.00199
C 33.14347 9.23958 0.04381
C 31.9567 8.49721 0.02806
C 31.9539 7.09275 0.01504
C 33.18098 6.40185 -0.00069
C 33.22185 4.9648 0.04926
C 31.99108 4.25839 -0.03838
C 31.93871 2.87888 0.00349
C 33.1681 2.09009 -0.00323
C 33.20579 0.67996 -0.00841
C 31.97868 34.07592 0.0001
C 0.01079 32.63437 -0.02927
C 1.25046 31.94774 -0.01404
C 1.25125 30.5163 0.01027
C 34.41306 29.81553 0.01831
C 0.01698 28.39673 -0.01037
C 31.96016 19.87389 -0.01429
C 27.05973 8.54812 0.02611
C 28.30556 9.21898 -0.00621
C 28.3272 10.63268 0.00194
C 23.36303 23.40813 0.00742
C 23.38674 21.96064 -0.01594
C 22.15686 21.28291 0.0106
C 22.12701 19.88886 -0.01154
C 23.3704 19.17683 -0.01721
C 23.32009 17.74443 -0.02422
C 22.13958 17.03152 0.01277
C 22.12214 15.5864 0.00096
C 23.37524 14.92449 -0.01527
C 23.39317 13.47716 0.01087
C 22.12676 24.1581 -0.00311
C 22.16009 12.72805 0.00199
C 23.36291 10.65367 -0.00478
C 23.3607 9.23858 -0.01662
C 22.11366 8.53831 -0.01185
C 22.1557 7.07319 0.01126
C 23.35318 6.37415 0.01852
C 23.35784 4.96441 -0.00381
C 22.1344 4.23796 0.03046
C 22.16745 2.84982 0.0296
C 23.34739 2.13954 0.03374
C 23.36625 0.67779 -0.02845
C 22.12965 11.37299 0.01511
C 22.17398 25.56507 0.00675
C 23.38163 26.24908 -0.00865
C 23.342 27.66605 0.0058
C 20.91715 17.76452 0.02188
C 19.69655 17.02034 -0.01979
C 19.74708 15.67305 0.02691
C 20.89927 14.92739 -0.01581
C 20.91027 13.48641 0.01452
C 19.68719 12.75204 0.04892
C 19.66356 11.37451 -0.00111
C 20.86053 10.63463 -0.03557
C 20.91049 9.23399 0.03754
C 19.67643 8.50239 0.01739
C 19.67333 7.07665 0.00755
C 20.88532 6.36179 -0.0054
C 20.89605 4.97946 0.00667
C 19.67271 4.2536 0.00143
C 19.66592 2.82002 -0.017
C 20.90212 2.18354 0.00364
C 20.92426 0.72149 -0.00831
C 19.67927 0.00796 -0.02957
C 22.12514 32.68112 -0.04422
C 23.37133 31.9435 0.00654
C 23.3582 30.497 -0.00703
C 22.15154 29.80313 -0.04076
C 22.17432 28.41339 -0.00652
C 22.17014 0.01824 -0.03213
C 24.60393 32.72084 0.02239
C 25.83383 31.91856 0.01153
C 25.77838 30.4905 0.02734
C 25.85656 0.74413 -0.01154
C 24.56333 0.01647 0.00684
C 27.04632 32.61065 -0.01052
C 28.34441 31.95009 -0.01679
C 28.2862 30.55178 0.00367
C 27.07192 29.84324 0.04306
C 27.03012 28.37704 0.00996
C 28.28459 27.70786 0.00195
C 28.29546 26.28506 -0.00802
C 27.04828 25.58187 -0.00218
C 27.03502 24.13789 -0.01654
C 28.28303 23.40058 -0.00037
C 28.29886 22.01965 -0.0032
C 27.04639 21.29467 0.00622
C 27.06702 19.84301 -0.02815
C 28.28364 19.18425 -0.00942
C 28.2937 17.7493 0.00487
C 27.01918 17.03468 0.00826
C 27.04673 15.62482 -0.00294
C 28.28653 14.90381 0.00152
C 28.30028 13.52527 0.01257
C 27.04426 12.74539 0.02316
C 27.05783 11.32494 0.04185
C 25.84655 2.14201 -0.0264
C 3.66988 31.95571 -0.01471
C 24.63304 2.86815 -0.00938
C 25.8483 4.95812 -0.01199
C 24.58325 29.8004 -0.0055
C 24.59469 28.38181 0.01515
C 25.7879 27.67996 -0.00225
C 25.82635 26.30189 0.00071
C 24.58706 25.53182 -0.01107
C 24.58034 24.14085 -0.01586
C 25.82127 23.44346 -0.01971
C 25.78723 22.00615 -0.02118
C 24.58287 21.30487 0.00733
C 24.56642 19.80967 -0.00178
C 25.7815 19.16666 0.00768
C 25.82214 17.79424 -0.0276
C 24.59597 17.07866 0.03005
C 24.55297 15.55977 -0.04078
C 25.8208 14.9224 0.02117
C 25.84173 13.5298 0.02737
C 24.62688 12.8136 -0.00498
C 24.59571 11.40544 0.00135
C 25.83547 10.62329 0.03102
C 25.81077 9.18959 0.02555
C 24.59999 8.52222 0.01423
C 24.60419 7.08072 -0.00285
C 25.82737 6.37649 -0.009
C 24.58152 4.29542 -0.00229
C 2.47872 32.67578 0.01218
