410
Graphene
C 34.42319 34.061 0.01295
C 15.95699 27.77577 0.03101
C 15.93244 26.28041 -0.01536
C 14.67911 25.56276 -0.02689
C 14.70591 24.15717 -0.01046
C 15.94378 23.42833 -0.00891
C 15.92346 21.99672 0.02819
C 14.75862 21.26598 0.00165
C 14.7396 19.80123 -0.02971
C 15.95553 19.1321 0.02894
C 16.05517 17.67107 -0.01789
C 14.7708 16.98 0.00444
C 14.8414 15.64756 -0.00925
C 16.06643 14.92379 0.01877
C 15.95936 13.52525 0.01363
C 14.77123 12.82799 -0.02162
C 14.81301 11.43589 0.00415
C 15.98137 10.61019 -0.0014
C 16.01352 9.15115 0.02162
C 14.6853 8.46754 0.0076
C 14.71073 7.04612 0.01241
C 15.95215 6.36769 -0.01454
C 14.75146 28.45768 -0.00428
C 14.66198 29.84271 -0.02245
C 15.8661 30.60397 0.00985
C 15.91284 32.04032 -0.01275
C 12.33624 21.30134 -0.00191
C 12.41263 19.87971 0.00438
C 13.45551 19.1281 0.01291
C 13.52516 17.72649 0.00093
C 12.33215 17.07497 0.00057
C 12.28438 15.69098 -0.01634
C 13.55941 14.95997 -0.00334
C 13.51826 13.60985 0.02339
C 12.30882 12.75224 0.01641
C 12.34286 11.41299 -0.00719
C 15.99019 4.97904 0.01945
C 13.58683 10.62383 0.01364
C 12.28983 8.49414 -0.00033
C 12.30515 7.12692 0.03589
C 13.46748 6.26709 -0.02759
C 13.47133 4.91354 0.0402
C 12.28545 4.27336 0.00572
C 12.34533 2.85696 0.03592
C 13.58441 2.17896 0.00406
C 13.54976 0.78821 0.00943
C 12.30811 0.12992 0.02841
C 14.72943 32.68794 -0.01111
C 13.59147 9.18197 -0.01062
C 13.50067 22.02489 0.00373
C 14.79726 4.22801 0.01416
C 16.0904 2.09358 0.02299
C 17.17661 7.16054 0.00979
C 18.47055 6.45618 0.01443
C 18.5194 5.03294 0.03505
C 17.28242 4.34854 -0.02815
C 17.23295 2.81794 -0.04147
C 18.43907 2.11231 -0.05302
C 18.48651 0.66641 0.00213
C 17.24723 34.07986 -0.00066
C 19.68688 32.73758 -0.00289
C 20.91954 31.90832 0.00028
C 20.76602 30.52272 -0.02213
C 19.577 29.76996 0.03698
C 19.65531 28.33528 -0.00109
C 21.03468 27.53846 -0.00491
C 20.84522 26.17778 0.03338
C 19.53515 25.62617 -0.0258
C 19.60027 24.16987 -0.0331
C 20.83196 23.49141 -0.00316
C 20.89425 22.05159 0.02188
C 19.65472 21.28349 -0.01979
C 19.66318 19.81049 0.02691
C 17.23354 8.509 -0.00481
C 18.46789 9.24514 0.00889
C 18.45462 10.66164 -0.02162
C 17.21012 11.28713 -0.00619
C 16.01289 0.76175 0.00244
C 14.77436 0.12195 -0.01717
C 17.26436 32.66782 0.05265
C 18.4645 31.92024 -0.01952
C 18.40562 30.50912 -0.02813
C 17.09082 29.93073 0.00374
C 17.20472 28.47581 0.00052
C 18.37861 27.7242 -0.03682
C 18.32522 26.32003 0.01965
C 17.11075 25.59671 0.02058
C 14.84912 2.83708 0.03542
C 17.22095 24.20864 -0.01957
C 18.41777 21.96595 -0.00368
C 17.1909 21.2476 -0.02696
C 17.12021 19.80674 -0.00114
C 18.4441 19.15681 0.00228
C 18.45257 17.7827 0.00798
C 17.24985 17.01495 0.00422
C 17.31118 15.5958 0.0351
C 18.44867 14.97004 -0.03113
C 18.4304 13.50671 0.02098
C 17.20966 12.72528 0.01848
C 18.40298 23.36914 -0.0108
C 13.4864 23.44243 0.02147
C 12.36715 24.18681 -0.014
C 12.14999 25.56833 -0.01118
C 6.10013 30.55303 0.00031
C 4.81082 29.87386 -0.003
C 4.88237 28.42003 0.01402
C 6.08595 27.71496 0.02379
C 6.06235 26.25485 0.00907
C 6.10783 14.97553 0.00643
C 6.12961 13.60604 -0.01509
C 4.91787 12.82664 0.03267
C 4.90006 11.43205 0.02374
C 6.11825 10.69092 0.00402
C 6.07763 9.25041 0.0073
C 4.90752 8.47495 0.0174
C 4.93914 7.14476 0.03828
C 6.17791 6.38264 0.01226
C 6.22334 4.98237 -0.00279
C 4.95975 4.23817 0.01996
C 4.84364 2.81265 -0.03996
C 6.15217 2.16488 0.01465
C 6.17327 0.65533 -0.00074
C 4.95027 34.03884 -0.00518
C 7.34885 32.65254 0.0086
C 6.1506 31.94035 0.03189
C 4.84499 32.66115 -0.04307
C 2.43904 34.06983 0.03284
C 3.64935 0.64055 0.04505
C 3.61277 30.58722 0.00828
C 2.29931 29.78634 -0.02375
C 2.37141 28.41104 0.00558
C 3.63486 27.77767 -0.0059
C 3.77818 26.37931 -0.01386
C 2.66702 25.53842 -0.02805
C 2.44514 24.0714 0.00081
C 2.45282 17.11084 0.00245
C 2.56682 15.73087 0.02728
C 3.69321 14.90997 -0.00039
C 8.59984 31.91656 -0.00643
C 3.59979 13.53231 0.0064
C 2.45259 11.3887 -0.00449
C 3.71499 10.72995 -0.01979
C 3.67928 9.25585 0.02784
C 2.40924 8.59019 -0.01977
C 2.50379 7.18941 -0.00561
C 3.70944 6.39738 0.00208
C 3.75415 4.93451 0.01707
C 2.51689 4.16109 0.02769
C 2.43726 2.84639 -0.03291
C 3.65196 2.056 -0.04999
C 2.44005 12.75852 0.00211
C 8.5952 30.49958 0.017
C 7.2703 29.77662 -0.03113
C 7.33868 28.33779 -0.02566
C 11.1023 14.97218 -0.00494
C 11.02819 13.57871 0.00054
C 9.7838 12.8672 0.03007
C 9.84088 11.40733 -0.00095
C 11.08189 10.64903 0.01572
C 11.15124 9.25755 -0.04848
C 9.82256 8.57498 -0.00892
C 9.77563 7.13433 -0.01362
C 11.03648 6.45463 -0.0008
C 11.01465 4.9968 0.0288
C 9.82431 15.46821 -0.00562
C 9.71588 4.34969 0.00393
C 11.05608 2.23221 0.00685
C 11.03766 0.80328 0.02888
C 9.83851 0.0709 -0.00482
C 12.28434 32.76132 -0.01384
C 13.46387 32.05264 0.03693
C 13.49246 30.62404 0.01745
C 12.26768 29.81698 0.00488
C 12.28256 28.42228 -0.01004
C 13.52092 27.70719 -0.02896
C 13.43643 26.25082 -0.00131
C 9.78917 2.93321 0.00895
C 20.9321 19.13007 -0.01581
C 9.70103 25.52698 -0.01142
C 11.00093 27.68805 0.01396
C 8.52542 27.69353 -0.00094
C 8.57129 26.36396 0.02322
C 8.58211 15.05293 -0.00725
C 8.58009 13.63937 -0.05697
C 7.34921 12.78681 0.01087
C 7.36385 11.42816 -0.01343
C 8.6383 10.66549 0.00988
C 8.60998 9.25682 0.0276
C 7.30778 8.56652 0.01305
C 7.39087 7.14072 -0.00077
C 10.90568 26.23206 0.01849
C 8.61122 6.44727 0.03368
C 7.41099 4.30334 -0.00966
C 7.29235 2.8346 -0.03337
C 8.57357 2.23475 0.01227
C 8.54184 0.76796 0.00873
C 7.35398 0.03937 -0.00049
C 9.7695 32.73576 0.00848
C 11.02858 32.03404 -0.01303
C 11.00961 30.59623 -0.01378
C 9.79937 29.80366 0.02635
C 9.75787 28.44101 0.0127
C 8.51916 5.04596 -0.02929
C 20.95429 17.70951 0.01452
C 19.71928 17.02485 0.04892
C 19.66013 15.64448 -0.00111
C 30.78629 9.14234 -0.03735
C 29.48057 8.48251 -0.00971
C 29.49452 7.03452 0.01518
C 30.76467 6.38231 0.01908
C 30.7134 4.98005 0.07705
C 29.49366 4.2496 0.0103
C 29.48023 2.85147 0.02108
C 30.71399 2.12432 0.00716
C 30.73371 0.69655 0.00307
C 29.5906 34.05126 0.00346
C 31.9302 32.72578 0.01713
C 33.14135 31.95345 -0.01694
C 33.15209 30.51492 0.01428
C 31.95732 29.85087 -0.02142
C 32.03053 28.37419 0.0544
C 33.16345 27.62331 0.00026
C 33.21658 26.21864 0.00682
C 31.96463 25.57201 -0.01779
C 31.92543 24.2095 0.03794
C 33.17521 23.4756 0.01927
C 33.11505 22.08867 0.01574
C 30.72009 10.57958 -0.00944
C 29.53047 11.36964 -0.02155
C 29.60416 12.77008 -0.01461
C 30.78056 13.48172 -0.01303
C 27.06001 2.74504 0.01259
C 28.30445 1.99945 0.01799
C 28.30898 0.62087 0.01699
C 27.08493 0.01354 -0.00416
C 29.48753 32.57964 0.01177
C 30.78449 31.91975 0.04266
C 30.76736 30.54187 0.01324
C 29.48041 29.83479 0.0014
C 29.47983 28.48471 0.00924
C 30.67939 27.74233 0.02326
C 31.97061 21.28627 -0.02383
C 30.74832 26.36269 0.00261
C 29.57739 24.18921 -0.02049
C 30.71179 23.39356 -0.01854
C 30.6983 22.01453 -0.01415
C 29.54307 21.34179 -0.03039
C 29.44097 19.86872 0.01836
C 30.64077 19.18406 0.03531
C 30.65859 17.71678 -0.00669
C 29.51514 17.07748 0.0101
C 29.56568 15.60411 0.01705
C 30.75519 14.89911 -0.0405
C 29.55485 25.58908 0.03265
C 31.93952 19.91212 -0.01429
C 33.16102 19.17702 -0.0136
C 33.16593 17.80003 0.00594
C 1.35624 23.30387 0.00723
C 1.20749 21.97151 0.02712
C 34.35385 21.33763 -0.02213
C 34.36125 19.91619 0.01951
C 1.06062 19.20293 -0.01678
C 1.27571 17.85099 0.01223
C 34.39983 17.03362 0.00648
C 34.39282 15.55008 0.02114
C 1.21628 14.93308 -0.02957
C 1.1679 13.56916 0.00343
C 34.43028 24.06346 0.03076
C 34.39485 12.85973 -0.02656
C 1.19546 10.75545 -0.00027
C 1.1853 9.31009 -0.00583
C 0.02599 8.53697 -0.02302
C 0.0055 7.11465 -0.02849
C 1.23195 6.43145 0.02931
C 1.30994 5.00682 0.00628
C 0.06666 4.23694 -0.0345
C 34.41763 2.84756 -0.00931
C 1.15402 2.08106 -0.00939
C 1.22836 0.66651 -0.00468
C 34.41737 11.42959 -0.02442
C 26.96314 4.14779 0.01495
C 34.41708 25.48306 -0.05239
C 1.21693 27.66416 -0.00439
C 31.92054 17.04281 -0.02474
C 31.87335 15.64988 0.00369
C 33.12184 14.92333 0.00455
C 33.13525 13.47304 -0.00644
C 31.94446 12.66914 -0.01839
C 31.94933 11.31218 0.00137
C 33.24899 10.65131 0.00199
C 33.21129 9.28687 0.04381
C 32.0559 8.46056 0.02806
C 32.01925 7.0317 0.01504
C 1.23837 26.21729 -0.00598
C 33.22821 6.34585 -0.00069
C 31.97556 4.23564 -0.03838
C 31.96897 2.82636 0.00349
C 33.16397 2.12216 -0.00323
C 33.19793 0.75102 -0.00841
C 32.0295 34.07964 0.0001
C 34.38972 32.69027 -0.02927
C 1.07669 31.92907 -0.01404
C 1.06923 30.55643 0.01027
C 34.35112 29.77067 0.01831
C 34.35287 28.36399 -0.01037
C 33.21673 4.88693 0.04926
C 3.61578 31.95181 0.00088
C 28.24728 4.90102 0.00235
C 27.06592 7.02832 0.02198
C 23.38493 17.62227 0.01277
C 22.13564 16.95932 0.00096
C 22.17649 15.55298 -0.01527
C 23.42175 14.82987 0.01087
C 23.34978 13.41613 0.00199
C 22.09035 12.76119 0.01511
C 22.17428 11.33313 -0.00478
C 23.39776 10.56042 -0.01662
C 23.38753 9.21479 -0.01185
C 22.12411 8.53251 0.01126
C 22.20477 7.09825 0.01852
C 23.40546 6.3619 -0.00381
C 23.37632 4.93344 0.03046
C 22.18101 4.26369 0.0296
C 22.08567 2.85082 0.03374
C 23.33876 2.16641 -0.02845
C 23.41435 0.72558 -0.03213
C 22.2291 34.03656 0.02239
C 24.57529 32.70962 0.01153
C 25.80055 31.96724 0.02734
C 25.72059 30.52906 -0.0055
C 23.36376 19.13761 -0.02422
C 22.20214 19.85441 -0.01721
C 22.11508 21.33774 -0.01154
C 23.37495 22.08012 0.0106
C 20.95743 14.87123 -0.03557
C 20.88173 13.45342 0.03754
C 19.66505 12.79646 0.01739
C 19.6954 11.43214 0.00755
C 20.8782 10.63668 -0.0054
C 20.95774 9.18629 0.00667
C 19.71494 8.61621 0.00143
C 19.67602 7.08265 -0.017
C 20.91324 6.33999 0.00364
C 20.89763 4.92941 -0.00831
C 24.44127 29.85898 0.01515
C 19.66775 4.23945 -0.02957
C 20.93174 2.18819 0.00654
C 20.96095 0.69298 -0.00703
C 19.8036 0.01537 -0.04076
C 22.13076 32.60198 -0.00652
C 23.36127 31.98072 0.0058
C 23.25572 30.55594 -0.00865
C 22.00327 29.81546 0.00675
C 22.17433 28.43978 -0.00311
C 22.02825 24.24522 0.00742
C 23.30582 23.75313 -0.01594
C 19.70798 2.84508 -0.04422
C 24.38117 28.40828 -0.00225
C 25.57951 27.49949 0.00071
C 25.76148 26.12337 -0.01107
C 28.21506 30.48382 0.00367
C 26.93686 29.76125 0.04306
C 26.95542 28.33353 0.00996
C 28.27236 27.62951 0.00195
C 28.29252 26.25169 -0.00802
C 27.00238 25.51393 -0.00218
C 27.10984 24.14637 -0.01654
C 28.34671 23.49782 -0.00037
C 28.28249 21.99363 -0.0032
C 27.11892 21.3599 0.00622
C 28.25675 31.94639 -0.01679
C 27.06743 19.97049 -0.02815
C 28.25067 17.72015 0.00487
C 27.04857 17.0627 0.00826
C 27.11307 15.67868 -0.00294
C 28.26302 14.88702 0.00152
C 28.29689 13.47965 0.01257
C 27.07762 12.75032 0.02316
C 27.03978 11.36098 0.04185
C 28.28755 10.62735 0.00194
C 28.30865 9.21408 -0.00621
C 27.10635 8.46287 0.02611
C 28.25721 19.19735 -0.00942
C 28.25969 6.30432 0.01094
C 27.07521 32.71441 -0.01052
C 25.82319 0.69706 -0.01154
C 24.66617 24.26365 -0.01586
C 25.86746 23.41325 -0.01971
C 25.84169 22.02091 -0.02118
C 24.61842 21.34062 0.00733
C 24.56785 19.90177 -0.00178
C 25.80334 19.2092 0.00768
C 25.77172 17.73096 -0.0276
C 24.61048 16.96767 0.03005
C 24.72088 15.57799 -0.04078
C 25.87091 14.85709 0.02117
C 24.6238 0.01551 0.00684
C 25.80355 13.42894 0.02737
C 24.57787 11.25064 0.00135
C 25.78856 10.55719 0.03102
C 25.81559 9.16253 0.02555
C 24.65903 8.4288 0.01423
C 24.58995 6.99535 -0.00285
C 25.86161 6.34887 -0.009
C 25.82999 4.88836 -0.01199
C 24.55816 4.21786 -0.00229
C 24.59881 2.8008 -0.00938
C 25.76121 2.07053 -0.0264
C 24.60013 12.7618 -0.00498
C 2.28346 32.61734 0.04421
