343
Graphene
C 34.41033 0.09835 0.01295
C 11.01837 4.98494 0.01848
C 9.76737 4.30543 -0.00619
C 9.84821 2.96049 -0.02162
C 11.018 2.22587 0.00889
C 11.02411 0.76793 -0.00481
C 9.77535 0.03413 0.00979
C 12.29037 32.6469 0.01443
C 13.54446 31.96698 0.03505
C 13.47187 30.57812 -0.02815
C 12.26404 29.92468 -0.04147
C 12.3107 28.53694 -0.05302
C 12.62347 10.65584 0.00213
C 13.43881 9.38152 -0.00066
C 12.35371 8.42384 -0.00289
C 12.33878 7.12538 0.00028
C 13.52019 6.35608 -0.02213
C 13.47344 4.96889 0.03698
C 11.09045 6.42946 0.02098
C 9.9604 7.09607 -0.03113
C 9.89147 8.50275 0.0351
C 11.11782 9.17521 0.00422
C 7.38724 4.2975 0.02299
C 7.40065 2.85243 0.00244
C 8.65621 2.16861 -0.01717
C 8.59161 0.71063 0.05265
C 7.25427 34.05392 -0.01952
C 9.83776 32.72127 -0.02813
C 11.04789 32.03138 0.00374
C 11.02863 30.62138 0.00052
C 12.25635 4.27009 -0.00109
C 9.8882 29.89889 -0.03682
C 11.14164 27.84645 0.02058
C 9.74841 17.14389 -0.01957
C 9.9929 15.80381 -0.0108
C 11.158 15.06128 -0.00368
C 11.15312 13.83449 -0.02696
C 10.13457 12.77592 -0.00114
C 10.16658 11.38834 0.00228
C 11.28357 10.63786 0.00798
C 9.90648 28.42917 0.01965
C 8.64167 4.99831 0.03542
C 12.26813 2.85895 -0.00491
C 13.46373 0.74353 -0.0258
C 16.97384 8.40569 -0.00703
C 17.25125 7.15045 -0.04076
C 18.50904 6.43331 -0.00652
C 18.38918 4.97705 0.0058
C 17.14524 4.24911 -0.00865
C 17.17133 2.84815 0.00675
C 18.35653 2.07776 -0.00311
C 18.29903 0.68764 0.00742
C 17.14976 34.02844 -0.01594
C 19.56567 32.61892 0.0106
C 20.84024 31.95344 -0.01154
C 20.77393 30.40897 -0.01721
C 19.57817 29.62414 -0.02422
C 19.68187 28.22977 0.01277
C 20.854 27.47687 0.00096
C 21.00406 26.10456 -0.01527
C 19.88984 25.15699 0.01087
C 18.24875 27.66168 0.00654
C 17.18906 28.31323 -0.04422
C 17.11811 29.78105 -0.02957
C 18.38202 30.4041 -0.00831
C 12.27934 0.0177 -0.0331
C 14.73313 32.67579 -0.00316
C 15.97373 31.89413 0.02188
C 15.85757 30.41948 -0.01979
C 14.61255 29.75082 0.02691
C 14.36919 28.31331 -0.01581
C 16.06152 9.09426 0.01452
C 14.68183 8.75049 0.04892
C 13.48833 2.15332 0.03338
C 14.76949 7.14861 -0.00111
C 15.97428 4.96886 0.03754
C 14.70014 4.2447 0.01739
C 14.71031 2.78153 0.00755
C 15.93945 2.17981 -0.0054
C 15.89228 0.74229 0.00667
C 14.66826 0.05459 0.00143
C 17.17708 32.64171 -0.017
C 18.43009 31.88829 0.00364
C 15.92764 6.41009 -0.03557
C 20.957 23.57958 0.00199
C 8.58789 6.4898 0.01416
C 7.43123 8.52142 -0.01454
C 2.41667 7.23659 0.00685
C 3.70821 6.52691 0.02888
C 3.75256 5.02427 -0.00482
C 2.40451 4.37314 -0.01384
C 2.52518 2.94149 0.03693
C 3.6738 2.20357 0.01745
C 3.60052 0.78904 0.00488
C 2.32196 0.00859 -0.01004
C 4.85298 32.69757 -0.02896
C 6.09915 31.91463 -0.00131
C 6.0758 30.54887 -0.01118
C 4.90783 29.80813 -0.014
C 4.89796 28.41144 0.02147
C 6.16824 27.77087 0.00373
C 6.17132 26.30049 -0.00191
C 4.97356 25.58249 0.00438
C 4.86436 24.16225 0.01291
C 2.42187 8.61739 0.00895
C 3.70207 9.35301 0.00393
C 3.74511 10.74018 0.0288
C 2.43058 11.38604 -0.0008
C 3.67239 30.57966 -0.00049
C 2.44999 29.75166 0.00848
C 2.48446 28.37617 -0.01303
C 3.67551 27.74782 -0.01378
C 3.67677 26.3565 0.02635
C 2.55376 25.60873 0.0127
C 2.47692 24.19199 0.01396
C 3.66239 23.52528 0.01849
C 6.10701 23.42034 0.00093
C 3.5456 22.13852 -0.01142
C 2.39405 19.94043 -0.00494
C 3.5632 19.22431 0.00054
C 3.57912 17.74767 0.03007
C 2.3859 17.0844 -0.00095
C 2.40457 15.63517 0.01572
C 3.73616 14.85944 -0.04848
C 3.77859 13.47635 -0.00892
C 2.46914 12.72983 -0.01362
C 2.36157 21.27534 -0.00562
C 7.40854 7.11092 0.01945
C 6.14967 22.02921 0.00057
C 4.85444 19.90506 -0.00334
C 7.28928 29.87047 -0.01046
C 7.38896 28.46243 -0.00891
C 8.65769 27.72832 0.02819
C 8.60669 26.35151 0.00165
C 7.36456 25.5131 -0.02971
C 7.23276 24.14927 0.02894
C 7.26451 21.09525 -0.01789
C 7.29611 19.91167 0.00444
C 8.74989 17.91529 -0.00925
C 7.34249 17.0482 0.01877
C 7.43858 15.63044 0.01363
C 8.78016 14.90172 -0.02162
C 8.80199 13.45057 0.00415
C 7.54033 12.72577 -0.0014
C 7.60238 11.33099 0.02162
C 8.82704 10.68514 0.0076
C 8.6994 9.27936 0.01241
C 8.56228 30.56945 -0.02689
C 8.57839 31.96963 -0.01536
C 7.28934 32.68372 0.03101
C 4.83257 0.013 -0.00428
C 6.10942 19.14325 0.02339
C 6.08829 17.73308 0.01641
C 4.90695 16.97218 -0.00719
C 4.94258 15.57169 0.01364
C 6.2119 14.90542 -0.01062
C 6.22044 13.47569 -0.00033
C 5.04892 12.75056 0.03589
C 5.01087 11.34341 -0.02759
C 4.73696 21.29561 -0.01634
C 6.32828 10.67008 0.0402
C 4.97785 8.62376 0.03592
C 4.97037 7.16579 0.00406
C 6.1333 6.41552 0.00943
C 6.1295 4.98519 0.02841
C 4.9225 4.27643 -0.01111
C 4.89119 2.9138 -0.01275
C 6.12504 2.1795 0.00985
C 6.02695 0.76299 -0.02245
C 6.25277 9.30013 0.00572
C 3.67781 31.99565 0.00873
C 19.61011 7.08767 0.01511
C 20.80696 5.00293 -0.01662
C 31.91136 29.91158 -0.02142
C 31.99547 28.4696 0.0544
C 33.17272 27.65852 0.00026
C 33.17336 26.24901 0.00682
C 31.94722 25.49046 -0.01779
C 31.90121 24.13346 0.03794
C 33.15276 23.45085 0.01927
C 33.12843 22.04388 0.01574
C 31.87851 21.3243 -0.02383
C 31.82046 19.93812 -0.01429
C 33.07391 19.14207 -0.0136
C 33.07914 17.78869 0.00594
C 31.86799 17.04394 -0.02474
C 31.92375 15.61695 0.00369
C 33.12068 14.89091 0.00455
C 33.16286 13.53026 -0.00644
C 31.91074 12.82848 -0.01839
C 33.17058 30.5815 0.01428
C 33.23148 32.04984 -0.01694
C 31.88325 32.64336 0.01713
C 29.40805 34.04106 0.00346
C 30.57815 19.10301 0.03531
C 30.63652 17.73047 -0.00669
C 29.32145 17.06739 0.0101
C 29.41223 15.67998 0.01705
C 30.67775 14.90152 -0.0405
C 30.68225 13.44276 -0.01303
C 29.38889 12.81797 -0.01461
C 29.483 11.375 -0.02155
C 31.90666 11.3534 0.00137
C 30.7169 10.63299 -0.00944
C 29.41144 8.50167 -0.00971
C 29.47514 7.10048 0.01518
C 30.63581 6.45231 0.01908
C 30.64475 4.97479 0.07705
C 29.38482 4.27222 0.0103
C 29.48638 2.92737 0.02108
C 30.66778 2.10289 0.00716
C 30.63907 0.64702 0.00307
C 30.8039 9.22664 -0.03735
C 29.42375 19.91376 0.01836
C 33.16695 10.75698 0.00199
C 32.06503 8.50248 0.02806
C 1.15693 17.7749 0.01223
C 34.33464 17.01878 0.00648
C 34.35753 15.6272 0.02114
C 1.2071 14.90885 -0.02957
C 1.21967 13.53967 0.00343
C 34.38412 12.83602 -0.02656
C 34.39893 11.46237 -0.02442
C 1.2428 10.75005 -0.00027
C 1.19511 9.26943 -0.00583
C 0.01596 8.54144 -0.02302
C 34.40781 7.10208 -0.02849
C 1.17645 6.46226 0.02931
C 1.14578 5.00244 0.00628
C 34.30439 4.31248 -0.0345
C 34.3821 2.91427 -0.00931
C 1.24405 2.27735 -0.00939
C 1.24094 0.81329 -0.00468
C 1.20218 19.25349 -0.01678
C 34.34145 19.85076 0.01951
C 34.36914 21.26911 -0.02213
C 1.20791 22.06677 0.02712
C 31.8759 7.10749 0.01504
C 33.1357 6.39686 -0.00069
C 33.06884 4.97693 0.04926
C 31.87836 4.25763 -0.03838
C 31.94531 2.82026 0.00349
C 33.17736 2.15849 -0.00323
C 33.13382 0.72794 -0.00841
C 31.91577 0.06988 0.0001
C 33.20275 9.29496 0.04381
C 0.01599 32.70633 -0.02927
C 1.21109 30.50459 0.01027
C 34.36485 29.77937 0.01831
C 34.37703 28.42241 -0.01037
C 1.23336 27.61948 -0.00439
C 1.29094 26.24345 -0.00598
C 34.39511 25.56183 -0.05239
C 34.36508 24.15088 0.03076
C 1.17512 23.49279 0.00723
C 1.2308 31.97637 -0.01404
C 20.91841 6.55289 -0.00478
C 29.40681 21.33468 -0.03039
C 30.62175 23.40486 -0.01854
C 22.004 33.97275 0.00768
C 24.551 32.6223 -0.0276
C 25.76883 31.96568 0.03005
C 25.68202 30.57792 -0.04078
C 24.48113 29.80323 0.02117
C 24.54054 28.38363 0.02737
C 25.76535 27.75098 -0.00498
C 25.81581 26.33488 0.00135
C 24.64649 25.63732 0.03102
C 24.60294 24.22882 0.02555
C 25.79874 23.48146 0.01423
C 25.59485 22.05474 -0.00285
C 25.75446 9.21545 -0.009
C 24.75464 8.50706 -0.01199
C 24.49392 7.12329 -0.00229
C 25.80552 6.46386 -0.00938
C 25.70652 5.00654 -0.0264
C 23.24921 0.69219 -0.00178
C 23.32948 2.21198 0.00733
C 22.094 2.85542 -0.02118
C 21.98181 4.25088 -0.01971
C 19.63975 4.28884 -0.01185
C 19.64575 2.83031 0.01126
C 20.85685 2.1229 0.01852
C 20.76815 0.6272 -0.00381
C 19.5322 34.03533 0.03046
C 22.12554 32.60704 0.0296
C 23.30103 31.9259 0.03374
C 23.21834 30.48414 -0.02845
C 24.57885 4.25434 -0.01154
C 22.00325 29.6612 -0.03213
C 23.32737 27.70544 0.01153
C 23.40853 26.3067 0.02734
C 22.30074 25.59173 -0.0055
C 22.23146 24.05339 0.01515
C 23.45379 23.53503 -0.00225
C 22.11757 7.24454 0.00071
C 23.24262 6.42598 -0.01107
C 23.26825 4.96806 -0.01586
C 22.0258 28.29259 0.02239
C 30.58542 21.98696 -0.01415
C 24.56127 2.82592 0.00684
C 25.75525 0.72504 -0.01679
C 27.00524 7.14492 0.02198
C 28.23986 6.43014 0.01094
C 28.21408 4.96801 0.00235
C 26.92641 4.22461 0.01495
C 27.01216 2.87193 0.01259
C 28.26369 2.2039 0.01799
C 28.20176 0.77121 0.01699
C 26.9926 0.04517 -0.00416
C 29.41351 32.6444 0.01177
C 30.67712 32.0131 0.04266
C 30.6989 30.62053 0.01324
C 29.48889 29.91813 0.0014
C 29.55423 28.47564 0.00924
C 30.74211 27.75672 0.02326
C 30.7032 26.30077 0.00261
C 29.46227 25.6355 0.03265
C 29.47526 24.18213 -0.02049
C 27.00336 8.55388 0.02611
C 28.20198 9.24319 -0.00621
C 28.16122 10.67665 0.00194
C 26.94158 11.39984 0.04185
C 24.53131 0.01229 0.00367
C 26.98888 32.66028 0.04306
C 28.20653 31.96975 0.00996
C 28.29223 30.55763 0.00195
C 26.992 29.90802 -0.00802
C 26.98122 28.41397 -0.00218
C 28.2692 27.81028 -0.01654
C 28.27179 26.31733 -0.00037
C 25.83754 2.07625 -0.01052
C 27.01778 25.61244 -0.0032
C 28.24887 23.41287 -0.02815
C 28.21296 22.0749 -0.00942
C 26.74308 21.29147 0.00487
C 26.86986 19.89205 0.00826
C 28.09393 19.20359 -0.00294
C 28.00252 17.76735 0.00152
C 28.3819 14.84815 0.01257
C 28.22398 13.50063 0.02316
C 27.03308 24.13738 0.00622
C 2.41389 32.65538 0.01227
