411
Graphene
C 34.3189 0.06028 0.01295
C 12.13958 29.99168 -0.00428
C 12.22156 28.50751 0.03101
C 13.47003 27.76584 -0.01536
C 13.49194 26.25676 -0.02689
C 12.20413 25.44766 -0.01046
C 12.25611 24.11755 -0.00891
C 13.55146 23.52145 0.02819
C 13.57938 22.05729 0.00165
C 12.35028 21.36717 -0.02971
C 12.42024 19.86017 0.02894
C 13.58854 19.1577 -0.01789
C 13.94135 17.7156 0.00444
C 12.64006 17.01627 -0.00925
C 12.37872 15.72038 0.01877
C 12.44941 8.411 0.01363
C 12.28658 7.10641 -0.02162
C 13.62147 6.40681 0.00415
C 13.5045 4.94259 -0.0014
C 12.1433 4.32218 0.02162
C 12.20372 2.89858 0.0076
C 13.41313 2.17946 0.01241
C 13.45898 30.62482 -0.02245
C 13.41147 31.98574 0.00985
C 12.20309 32.68175 -0.01275
C 9.75694 0.03916 -0.01111
C 11.06693 23.44577 0.00373
C 11.04284 21.97049 -0.00191
C 9.81585 21.30226 0.00438
C 9.95573 19.77591 0.01291
C 11.17382 19.14551 0.00093
C 11.27401 17.71552 0.00057
C 10.02236 16.9605 -0.01634
C 9.98855 15.55182 -0.00334
C 11.25264 14.85982 0.02339
C 11.11608 13.46792 0.01641
C 13.39655 0.73467 -0.01454
C 9.78663 12.84258 -0.00719
C 11.04367 10.78805 -0.01062
C 11.26677 9.33239 -0.00033
C 10.0264 8.57027 0.03589
C 9.77416 7.24801 -0.02759
C 10.99497 6.41597 0.0402
C 10.9694 4.99247 0.00572
C 9.73482 4.32685 0.03592
C 9.84465 2.92436 0.00406
C 10.98114 2.18316 0.00943
C 10.99255 0.72843 0.02841
C 9.77665 11.38501 0.01364
C 12.13824 0.06002 0.01945
C 14.68582 32.72556 0.01416
C 15.87174 31.90941 0.03542
C 18.38709 27.70862 -0.00481
C 18.5143 26.20036 0.00979
C 17.16548 25.52722 0.01443
C 17.17526 24.11012 0.03505
C 18.43231 23.34853 -0.02815
C 18.44835 21.89051 -0.04147
C 17.17511 21.13786 -0.05302
C 17.10759 19.69378 0.00213
C 18.3763 19.13827 -0.00066
C 18.57739 17.70601 -0.00289
C 17.15522 28.43372 0.00889
C 17.22006 7.29398 0.00028
C 18.37941 4.90513 0.03698
C 17.12999 4.28433 -0.00109
C 17.22058 2.86805 -0.00491
C 18.42579 2.20886 0.03338
C 18.32346 0.75388 -0.0258
C 17.0997 34.06808 -0.0331
C 19.55798 32.64531 -0.00316
C 20.77213 31.91993 0.02188
C 20.84286 30.52455 -0.01979
C 19.63336 29.79649 0.02691
C 18.44237 6.40158 -0.02213
C 9.82953 24.21941 0.02147
C 17.16951 29.84355 -0.02162
C 18.29311 31.96802 0.01848
C 15.85299 30.58272 0.02299
C 14.65017 29.7983 0.00244
C 14.68593 28.37164 -0.01717
C 15.92628 27.73407 0.05265
C 15.9346 26.30511 -0.01952
C 14.77912 25.53109 -0.02813
C 14.74033 24.16569 0.00374
C 15.96682 23.37428 0.00052
C 15.99835 21.96447 -0.03682
C 14.76992 21.32109 0.01965
C 18.4492 30.52333 -0.00619
C 14.7651 19.9586 0.02058
C 15.25809 17.68357 -0.0108
C 14.73452 7.22066 -0.00368
C 15.98491 6.53595 -0.02696
C 15.91317 5.05914 -0.00114
C 14.67951 4.35147 0.00228
C 14.73402 2.89321 0.00798
C 15.944 2.14945 0.00422
C 15.94108 0.71607 0.0351
C 14.7263 0.04852 -0.03113
C 17.10773 32.65219 0.02098
C 15.83436 18.97687 -0.01957
C 19.62253 28.41311 -0.01581
C 9.79721 25.68067 -0.014
C 10.98077 27.78671 -0.00131
C 2.33359 2.96145 0.03189
C 3.58278 2.28087 0.00031
C 3.58668 0.84836 -0.003
C 2.39343 0.04831 0.01402
C 4.78028 32.79631 0.02379
C 5.97287 32.13499 0.00907
C 6.08009 30.72381 0.00643
C 4.89474 29.89058 -0.01509
C 4.87353 28.49849 0.03267
C 6.11068 27.74926 0.02374
C 6.06754 26.37252 0.00402
C 4.84273 25.67681 0.0073
C 4.83942 24.23468 0.0174
C 6.0653 23.53997 0.03828
C 6.14312 22.04979 0.01226
C 4.94435 21.27902 -0.00279
C 4.91594 19.87591 0.01996
C 6.17172 19.21693 -0.03996
C 6.12854 17.80827 0.01465
C 4.79784 17.11331 -0.00074
C 4.90338 15.58844 -0.00518
C 2.40522 4.30849 -0.04307
C 3.63706 4.98742 0.03284
C 3.5605 6.38034 0.04505
C 2.4469 7.17922 -0.04999
C 3.57526 30.52999 0.00088
C 2.3356 29.85339 0.00828
C 2.32566 28.44562 -0.02375
C 3.55708 27.71319 0.00558
C 3.65667 26.32876 -0.0059
C 2.42376 25.52469 -0.01386
C 2.40847 24.08966 -0.02805
C 3.64724 23.46296 0.00081
C 3.59295 21.99711 0.00245
C 2.34987 21.34451 0.02728
C 6.20846 15.02152 0.0086
C 2.37453 19.88707 -0.00039
C 3.57822 17.83077 0.00211
C 2.4023 17.052 -0.00449
C 2.46845 15.59528 -0.01979
C 3.72166 14.85154 0.02784
C 3.64508 13.45202 -0.01977
C 2.40458 12.7969 -0.00561
C 2.42696 11.36207 0.00208
C 3.73401 10.78021 0.01707
C 3.74434 9.28127 0.02769
C 2.50601 8.56649 -0.03291
C 3.64857 19.23691 0.0064
C 6.15821 13.59113 -0.00643
C 4.95016 12.80436 0.017
C 4.99855 11.41846 -0.03113
C 7.39966 17.09163 -0.00562
C 7.51389 15.64332 -0.00494
C 8.72171 14.94049 0.00054
C 8.60426 13.60588 0.03007
C 7.38125 12.86218 -0.00095
C 7.36049 11.37781 0.01572
C 8.56527 10.69516 -0.04848
C 8.69607 9.3184 -0.00892
C 7.45301 8.56969 -0.01362
C 7.36309 7.17969 -0.0008
C 8.66914 17.72127 -0.01142
C 8.55384 6.50837 0.0288
C 7.2768 4.37353 0.00895
C 7.35269 2.92593 0.00685
C 8.5648 2.23973 0.02888
C 8.50979 0.8086 -0.00482
C 7.28137 0.11057 -0.01384
C 9.71539 32.75778 0.03693
C 10.91394 32.08628 0.01745
C 10.94334 30.722 0.00488
C 9.74804 29.94486 -0.01004
C 9.78441 28.47058 -0.02896
C 8.52971 5.08599 0.00393
C 11.03186 26.32178 -0.01118
C 8.68026 19.11498 0.01849
C 7.3863 21.31957 0.0127
C 6.17325 10.64522 -0.02566
C 6.1817 9.21773 -0.00094
C 4.97353 8.62908 0.02322
C 4.82012 7.19676 -0.00725
C 6.11974 6.49532 -0.05697
C 6.08083 5.02957 0.01087
C 4.85211 4.39329 -0.01343
C 4.84428 3.03344 0.00988
C 6.08645 2.24108 0.0276
C 6.04236 0.84823 0.01305
C 7.4643 19.9217 0.01396
C 4.79788 0.13051 -0.00077
C 8.46827 32.0183 -0.02929
C 8.49261 30.66259 -0.00966
C 7.2639 29.94962 -0.03337
C 7.36306 28.50812 0.01227
C 8.55327 27.74843 0.00873
C 8.56702 26.34316 -0.00049
C 7.33412 25.65151 0.00848
C 7.29061 24.13675 -0.01303
C 8.59644 23.45893 -0.01378
C 8.57964 21.99907 0.02635
C 7.26697 32.7392 0.03368
C 3.6394 32.02722 0.04421
C 20.85127 27.69432 0.01452
C 19.6474 25.49779 -0.00111
C 30.72375 9.19642 -0.03735
C 29.53338 8.48254 -0.00971
C 29.51581 7.07015 0.01518
C 30.73789 6.36485 0.01908
C 30.75049 4.96674 0.07705
C 29.52281 4.2955 0.0103
C 29.43025 2.86952 0.02108
C 30.64864 2.14813 0.00716
C 30.69015 0.75025 0.00307
C 29.4503 0.03486 0.00346
C 31.87843 32.64834 0.01713
C 33.10896 31.95396 -0.01694
C 33.15267 30.57065 0.01428
C 31.91972 29.78349 -0.02142
C 31.87588 28.39235 0.0544
C 33.17508 27.66387 0.00026
C 33.1866 26.20041 0.00682
C 31.9364 25.54197 -0.01779
C 31.91356 24.07093 0.03794
C 33.11412 23.39924 0.01927
C 33.04357 22.00495 0.01574
C 30.73658 10.63632 -0.00944
C 29.54069 11.2605 -0.02155
C 29.46943 12.69631 -0.01461
C 30.74708 13.45388 -0.01303
C 26.97579 8.48322 0.01259
C 27.09268 7.10449 0.01799
C 28.32657 6.35213 0.01699
C 28.2808 4.92999 -0.00416
C 27.03457 4.22983 0.01177
C 27.00885 2.85374 0.04266
C 28.15545 2.02089 0.01324
C 28.24017 0.67551 0.0014
C 26.93252 0.01201 0.00924
C 29.50843 32.67292 0.02326
C 31.78192 21.3153 -0.02383
C 30.6969 31.94752 0.00261
C 29.38391 29.75367 -0.02049
C 29.41689 28.31398 -0.01854
C 30.70387 27.66868 -0.01415
C 30.69803 26.19355 -0.03039
C 29.56733 25.44225 0.01836
C 30.29264 19.15778 0.03531
C 30.62726 17.7998 -0.00669
C 29.44009 16.92834 0.0101
C 29.52333 15.50812 0.01705
C 30.64705 14.8258 -0.0405
C 30.67413 30.55256 0.03265
C 31.57121 19.96633 -0.01429
C 32.90878 19.1433 -0.0136
C 33.1262 17.77031 0.00594
C 1.22578 23.39324 0.00723
C 1.10831 21.91619 0.02712
C 34.30969 21.3044 -0.02213
C 34.17689 19.89882 0.01951
C 1.08004 19.1671 -0.01678
C 1.14003 17.74491 0.01223
C 34.32844 17.11183 0.00648
C 34.33664 15.63604 0.02114
C 1.19813 14.9748 -0.02957
C 1.24032 13.48709 0.00343
C 34.40384 24.11054 0.03076
C 34.42342 12.76042 -0.02656
C 1.24431 10.54068 -0.00027
C 1.21458 9.19204 -0.00583
C 34.39558 8.46595 -0.02302
C 34.34151 7.05856 -0.02849
C 1.1362 6.44085 0.02931
C 1.22935 5.00216 0.00628
C 34.42373 4.27177 -0.0345
C 34.33519 2.8134 -0.00931
C 1.09974 2.16481 -0.00939
C 1.14004 0.73894 -0.00468
C 0.00436 11.32295 -0.02442
C 28.24519 9.14622 0.01495
C 0.02453 25.55848 -0.05239
C 1.11595 27.68274 -0.00439
C 31.89045 16.98413 -0.02474
C 31.95026 15.62893 0.00369
C 33.1438 14.87798 0.00455
C 33.14709 13.46685 -0.00644
C 31.96572 12.77102 -0.01839
C 31.99028 11.34318 0.00137
C 33.19317 10.62364 0.00199
C 33.1742 9.22598 0.04381
C 31.97111 8.51239 0.02806
C 31.99528 7.13129 0.01504
C 1.19353 26.29018 -0.00598
C 33.1762 6.41355 -0.00069
C 31.94666 4.28251 -0.03838
C 31.92981 2.8977 0.00349
C 33.08863 2.18801 -0.00323
C 33.09403 0.77842 -0.00841
C 31.94891 34.07647 0.0001
C 34.41501 32.63625 -0.02927
C 1.1229 31.91554 -0.01404
C 1.17015 30.53292 0.01027
C 34.39214 29.87499 0.01831
C 34.31874 28.43495 -0.01037
C 33.19598 4.97917 0.04926
C 20.90664 26.24441 0.04892
C 28.27257 10.53646 0.00235
C 27.05459 12.66619 0.02198
C 23.38825 26.24826 0.01277
C 22.14872 25.55262 0.00096
C 22.14401 24.13779 -0.01527
C 23.39498 23.44978 0.01087
C 23.38792 22.03852 0.00199
C 22.17688 21.28853 0.01511
C 22.20397 19.81367 -0.00478
C 23.43905 19.16465 -0.01662
C 23.37439 17.6818 -0.01185
C 22.09844 16.7972 0.01126
C 22.13504 15.35645 0.01852
C 23.4473 14.86939 -0.00381
C 23.38037 13.54267 0.03046
C 21.93556 13.12446 0.0296
C 22.00922 11.59453 0.03374
C 23.26286 10.74815 -0.02845
C 23.29046 9.30352 -0.03213
C 22.05565 8.47237 0.02239
C 22.05233 7.11607 0.01153
C 23.33328 6.35893 0.02734
C 23.33245 5.01654 -0.0055
C 23.37596 27.67813 -0.02422
C 22.15629 28.47646 -0.01721
C 22.13626 29.84924 -0.01154
C 23.31908 30.55712 0.0106
C 19.73167 24.07318 -0.03557
C 20.92632 23.35169 0.03754
C 20.90142 21.98018 0.01739
C 19.7096 21.18538 0.00755
C 19.70975 19.74238 -0.0054
C 20.97604 19.11889 0.00667
C 20.92034 17.58948 0.00143
C 19.65952 16.9914 -0.017
C 21.27401 14.13641 0.00364
C 20.94541 10.69737 -0.00831
C 22.118 4.21607 0.01515
C 20.69536 9.31729 -0.02957
C 19.67528 7.05678 0.00654
C 20.97002 6.34624 -0.00703
C 20.89983 4.95187 -0.04076
C 19.63756 4.2147 -0.00652
C 19.68864 2.84573 0.0058
C 20.87121 2.19334 -0.00865
C 20.8443 0.75211 0.00675
C 19.53565 0.04243 -0.00311
C 22.00881 32.63788 0.00742
C 23.27197 31.95201 -0.01594
C 19.69701 8.43021 -0.04422
C 22.12714 2.81838 -0.00225
C 23.34143 2.12616 0.00071
C 23.29103 0.72564 -0.01107
C 25.9081 6.36218 0.00367
C 25.81212 4.99464 0.04306
C 24.54449 4.25095 0.00996
C 24.55243 2.86977 0.00195
C 25.7559 2.16212 -0.00802
C 25.73637 0.76887 -0.00218
C 24.5261 0.10702 -0.01654
C 26.96413 32.64174 -0.00037
C 28.26669 31.95965 -0.0032
C 28.31332 30.59622 0.00622
C 24.59463 7.10537 -0.01679
C 27.06341 29.81781 -0.02815
C 28.26418 27.53814 0.00487
C 28.22889 25.93276 0.00826
C 26.86019 25.32912 -0.00294
C 27.28866 19.89612 0.00152
C 28.57869 19.14506 0.01257
C 28.23292 17.66999 0.02316
C 27.04625 16.93505 0.04185
C 27.06983 15.53877 0.00194
C 28.31105 14.79811 -0.00621
C 28.29506 13.38255 0.02611
C 27.02013 28.39104 -0.00942
C 27.09032 11.25042 0.01094
C 24.52039 8.56541 -0.01052
C 25.74898 10.64925 -0.01154
C 22.06421 34.04981 -0.01586
C 24.45068 32.68939 -0.01971
C 25.79238 31.91338 -0.02118
C 25.78835 30.49404 0.00733
C 24.53932 29.87128 -0.00178
C 24.59332 28.41698 0.00768
C 25.82048 27.63719 -0.0276
C 25.80731 26.18006 0.03005
C 24.55124 25.52659 -0.04078
C 24.69227 24.10164 0.02117
C 25.76183 9.21275 0.00684
C 25.96969 23.41027 0.02737
C 24.69972 21.29282 0.00135
C 24.6548 19.88771 0.03102
C 25.96487 19.16312 0.02555
C 25.80134 17.73489 0.01423
C 24.64838 17.03269 -0.00285
C 24.6384 15.5698 -0.009
C 25.83262 14.85705 -0.01199
C 25.87609 13.39263 -0.00229
C 24.48027 12.70992 -0.00938
C 24.58054 11.35781 -0.0264
C 26.0616 21.96758 -0.00498
C 2.33353 32.66602 -0.00177
