388
Graphene
C 34.27662 34.00966 0.01295
C 12.20761 0.12956 -0.02162
C 14.74812 32.65937 0.00415
C 16.00646 31.9513 -0.0014
C 15.95842 30.5365 0.02162
C 14.68091 29.77031 0.0076
C 14.69485 28.39335 0.01241
C 15.98762 27.649 -0.01454
C 16.01041 26.23814 0.01945
C 14.72836 25.71513 0.01416
C 13.44788 0.88377 0.01363
C 14.70065 24.24015 0.03542
C 15.98717 22.06491 0.00244
C 14.73851 21.30149 -0.01717
C 14.87321 19.89189 0.05265
C 15.90478 19.29387 -0.01952
C 16.06362 5.09513 -0.02813
C 14.76054 4.55343 0.00374
C 14.71977 2.90421 0.00052
C 15.95318 2.08968 -0.03682
C 15.93486 0.68403 0.01965
C 15.94438 23.44349 0.02299
C 14.71709 0.04787 0.02058
C 13.46598 2.21815 0.01877
C 12.25896 4.40445 0.00444
C 10.96536 5.10482 0.00572
C 9.74933 4.45187 0.03592
C 9.80472 2.98248 0.00406
C 11.03135 2.26322 0.00943
C 11.02585 0.86853 0.02841
C 9.75729 0.13888 -0.01111
C 12.23235 32.83652 -0.01275
C 13.52777 31.94727 0.00985
C 13.48951 30.55559 -0.02245
C 12.21689 2.98989 -0.00925
C 12.25438 29.88807 -0.00428
C 13.51032 27.63998 -0.01536
C 13.47872 26.27214 -0.02689
C 12.2195 25.62415 -0.01046
C 12.20908 24.22191 -0.00891
C 13.51848 23.56511 0.02819
C 13.48653 22.11101 0.00165
C 12.29677 21.32144 -0.02971
C 12.05714 19.82209 0.02894
C 13.40906 5.03577 -0.01789
C 12.34852 28.41489 0.03101
C 17.16181 32.61189 -0.01957
C 18.44266 31.89455 -0.0108
C 18.44312 30.50132 -0.00368
C 20.88626 26.25374 -0.00109
C 19.70215 25.5584 -0.00491
C 19.72598 24.04128 0.03338
C 20.98376 23.38707 -0.0258
C 20.94354 21.97921 -0.0331
C 19.7158 21.28818 -0.00316
C 19.71924 19.86588 0.02188
C 20.96033 19.06741 -0.01979
C 20.89311 17.70093 0.02691
C 20.91908 27.63938 0.03698
C 19.56011 16.96828 -0.01581
C 20.84356 14.81855 0.04892
C 20.91533 13.37223 -0.00111
C 20.76954 10.73174 -0.03557
C 20.62168 9.35331 0.03754
C 19.5101 8.50022 0.01739
C 19.37177 7.1155 0.00755
C 20.6712 6.42137 -0.0054
C 20.73974 4.95501 0.00667
C 19.61385 4.15779 0.00143
C 19.82581 15.65115 0.01452
C 19.72367 28.35023 -0.02213
C 19.64552 29.80025 0.00028
C 20.80558 30.46215 -0.00289
C 17.23371 29.81944 -0.02696
C 17.21185 28.38771 -0.00114
C 18.47594 27.68996 0.00228
C 18.43562 26.25223 0.00798
C 17.15608 25.54936 0.00422
C 17.20311 24.1387 0.0351
C 18.41876 23.42108 -0.03113
C 18.42668 21.98895 0.02098
C 17.20981 21.33416 0.01848
C 17.22072 19.81572 -0.00619
C 18.41296 19.2018 -0.02162
C 18.39345 17.82056 0.00889
C 18.21893 6.16459 -0.00481
C 18.35016 4.80209 0.00979
C 17.18972 4.16962 0.01443
C 17.16443 2.74358 0.03505
C 18.4395 2.02387 -0.02815
C 18.43437 0.63462 -0.04147
C 17.13048 34.05332 -0.05302
C 19.66132 32.63489 0.00213
C 20.85591 31.88947 -0.00066
C 10.99048 19.24572 0.0402
C 19.66233 2.79647 -0.017
C 9.70992 19.64505 -0.02759
C 10.91575 21.91239 -0.00033
C 3.54901 5.02467 0.0086
C 2.29277 4.34893 -0.00643
C 2.26836 3.00436 0.017
C 3.55167 2.18162 -0.03113
C 3.5967 0.74089 -0.02566
C 2.36891 0.0557 -0.00094
C 4.88142 32.80727 0.02322
C 6.1766 32.01927 -0.00725
C 6.10221 30.67622 -0.05697
C 3.55471 6.45375 -0.00518
C 4.86738 29.89033 0.01087
C 6.17587 27.76836 0.00988
C 6.17247 26.30735 0.0276
C 4.91149 25.62057 0.01305
C 4.91702 24.22259 -0.00077
C 6.23482 23.55007 0.03368
C 6.22993 22.02988 -0.02929
C 4.96859 21.3915 -0.00966
C 4.85011 19.91472 -0.03337
C 6.12245 19.20606 0.01227
C 4.94743 28.51957 -0.01343
C 6.41172 17.9017 0.00873
C 2.28555 7.15997 -0.00074
C 3.5458 9.3456 -0.03996
C 3.62135 30.59798 0.04505
C 2.36691 29.87709 0.03284
C 2.42954 28.43209 -0.04307
C 3.70727 27.82907 0.03189
C 3.68033 26.38087 0.00031
C 2.40793 25.59371 -0.003
C 2.48168 24.15444 0.01402
C 3.76407 23.48482 0.02379
C 3.78163 22.07682 0.00907
C 2.28845 8.61061 0.01465
C 2.48679 21.2612 0.00643
C 3.77838 19.14558 0.03267
C 3.90513 17.71783 0.02374
C 2.63108 17.11353 0.00402
C 2.50566 15.68823 0.0073
C 3.72828 14.88044 0.0174
C 3.79672 13.41483 0.03828
C 2.43928 12.82762 0.01226
C 2.30522 11.4758 -0.00279
C 3.61355 10.79581 0.01996
C 2.4601 19.82302 -0.01509
C 5.30451 17.02573 -0.00049
C 5.19502 15.51508 0.00848
C 5.95016 14.45207 -0.01303
C 8.46633 19.12776 0.00488
C 7.9039 17.85433 -0.01004
C 7.27547 7.14143 -0.02896
C 8.28214 6.50094 -0.00131
C 8.57226 5.07664 -0.01118
C 7.25858 4.42923 -0.014
C 7.27423 2.91497 0.02147
C 8.58052 2.22781 0.00373
C 8.5177 0.82008 -0.00191
C 7.24785 20.00222 0.01745
C 7.34342 0.05487 0.00438
C 11.08959 32.04241 0.00093
C 11.07268 30.6099 0.00057
C 9.85834 29.92889 -0.01634
C 9.84907 28.49054 -0.00334
C 11.05621 27.71051 0.02339
C 11.06625 26.32472 0.01641
C 9.86481 25.54593 -0.00719
C 9.77667 24.08912 0.01364
C 10.98503 23.3367 -0.01062
C 9.81802 32.8061 0.01291
C 7.36888 21.29194 0.03693
C 8.65799 21.82307 -0.01384
C 8.65329 23.35433 -0.00482
C 5.03039 12.53759 -0.01378
C 4.96378 11.18348 0.02635
C 5.59737 9.90695 0.0127
C 4.86081 8.73287 0.01396
C 4.83625 7.20094 0.01849
C 6.05672 6.48755 -0.01142
C 6.03244 5.0492 -0.00562
C 4.76945 4.33011 -0.00494
C 4.82037 2.87009 0.00054
C 6.08556 2.10853 0.03007
C 6.09471 0.76672 -0.00095
C 4.84031 0.17505 0.01572
C 7.38694 32.74224 -0.04848
C 8.64456 32.04244 -0.00892
C 8.57992 30.58302 -0.01362
C 7.37004 29.94339 -0.0008
C 7.37529 28.47171 0.0288
C 8.60309 27.81798 0.00393
C 8.58324 26.38388 0.00895
C 7.38834 25.62233 0.00685
C 7.47495 24.14807 0.02888
C 9.82025 21.11016 0.03589
C 20.84992 2.13524 0.00364
C 20.86805 0.65687 -0.00831
C 19.68518 34.03671 -0.02957
C 30.66046 5.00656 0.07705
C 29.3611 4.31372 0.0103
C 29.44412 2.86749 0.02108
C 30.60814 2.05763 0.00716
C 30.61687 0.69058 0.00307
C 29.44919 34.03343 0.00346
C 31.90813 32.613 0.01713
C 33.1866 31.93064 -0.01694
C 33.20383 30.53257 0.01428
C 30.63092 6.3994 0.01908
C 31.92566 29.81757 -0.02142
C 33.15331 27.68123 0.00026
C 33.12039 26.29509 0.00682
C 31.93721 25.50465 -0.01779
C 32.00811 24.09091 0.03794
C 33.26558 23.36241 0.01927
C 33.25273 21.96352 0.01574
C 32.04928 21.28536 -0.02383
C 32.05985 19.85175 -0.01429
C 33.25581 19.18446 -0.0136
C 31.97365 28.40516 0.0544
C 33.23758 17.8246 0.00594
C 29.34582 7.13404 0.01518
C 30.65268 9.25983 -0.03735
C 30.69178 30.51995 0.01324
C 29.51765 29.75179 0.0014
C 29.49821 28.36866 0.00924
C 30.76674 27.64271 0.02326
C 30.6723 26.17248 0.00261
C 29.45299 25.45531 0.03265
C 29.50574 24.00321 -0.02049
C 30.76473 23.37631 -0.01854
C 30.71813 22.01196 -0.01415
C 29.36413 8.5522 -0.00971
C 29.55252 21.26347 -0.03039
C 30.7998 19.21125 0.03531
C 30.84962 17.81144 -0.00669
C 29.56586 17.08375 0.0101
C 29.53083 15.68835 0.01705
C 30.74226 14.9878 -0.0405
C 30.7718 13.53969 -0.01303
C 29.47908 12.85329 -0.01461
C 29.43213 11.42863 -0.02155
C 30.59999 10.62684 -0.00944
C 29.5921 19.84247 0.01836
C 32.05384 17.08917 -0.02474
C 31.9965 15.59926 0.00369
C 33.21429 14.96726 0.00455
C 0.04026 21.26404 -0.02213
C 0.03059 19.82462 0.01951
C 1.27176 19.08662 -0.01678
C 1.32091 17.75101 0.01223
C 0.12462 17.06771 0.00648
C 0.07674 15.62942 0.02114
C 1.31801 14.93172 -0.02957
C 1.21934 13.60684 0.00343
C 34.3295 12.79971 -0.02656
C 1.22421 22.05991 0.02712
C 34.25419 11.41506 -0.02442
C 1.10599 9.42448 -0.00583
C 34.33333 8.63447 -0.02302
C 34.29183 7.23299 -0.02849
C 1.05422 6.44265 0.02931
C 1.01529 5.0337 0.00628
C 34.24579 4.28863 -0.0345
C 34.32251 2.87716 -0.00931
C 1.11399 2.15588 -0.00939
C 1.12218 0.70926 -0.00468
C 1.15432 10.79679 -0.00027
C 1.26855 23.46546 0.00723
C 0.01494 24.13242 0.03076
C 34.40154 25.60441 -0.05239
C 33.16921 13.52861 -0.00644
C 31.97702 12.79646 -0.01839
C 31.83929 11.38505 0.00137
C 33.03705 10.66021 0.00199
C 33.06208 9.28155 0.04381
C 31.89399 8.51308 0.02806
C 31.85255 7.09486 0.01504
C 33.08378 6.50651 -0.00069
C 33.02085 5.07046 0.04926
C 31.86926 4.27209 -0.03838
C 31.89318 2.84953 0.00349
C 33.11842 2.13168 -0.00323
C 33.09453 0.64645 -0.00841
C 31.87595 34.06768 0.0001
C 34.3643 32.64246 -0.02927
C 1.21241 31.95396 -0.01404
C 1.17984 30.50791 0.01027
C 34.36167 29.8186 0.01831
C 34.36028 28.43487 -0.01037
C 1.20748 27.64042 -0.00439
C 1.15664 26.22581 -0.00598
C 30.7695 31.92172 0.04266
C 29.53565 32.61692 0.01177
C 26.96311 34.04741 -0.00416
C 28.18018 0.66475 0.01699
C 23.1796 6.47737 0.01852
C 23.22509 5.02418 -0.00381
C 21.96954 4.24794 0.03046
C 22.09304 2.78403 0.0296
C 23.30286 2.04293 0.03374
C 23.30329 0.68972 -0.02845
C 22.0437 34.01389 -0.03213
C 24.60258 32.62274 0.02239
C 25.88217 31.85473 0.01153
C 21.93341 7.16588 0.01126
C 25.74775 30.47663 0.02734
C 24.53263 28.33727 0.01515
C 25.73266 27.65754 -0.00225
C 25.80268 26.18935 0.00071
C 24.65925 25.47174 -0.01107
C 24.60874 24.02433 -0.01586
C 25.86276 23.38459 -0.01971
C 25.85794 21.92889 -0.02118
C 24.54677 21.28484 0.00733
C 24.62769 19.80872 -0.00178
C 24.54837 29.75159 -0.0055
C 21.9306 8.54069 -0.01185
C 23.18129 9.22228 -0.01662
C 23.35153 10.65092 -0.00478
C 22.14498 32.55517 -0.04422
C 23.3533 31.946 0.00654
C 23.31004 30.4976 -0.00703
C 22.16323 29.75355 -0.04076
C 22.11498 28.31429 -0.00652
C 23.27762 27.62837 0.0058
C 23.33903 26.24482 -0.00865
C 22.12931 25.57373 0.00675
C 22.12168 24.10833 -0.00311
C 23.3237 23.32712 0.00742
C 23.30997 21.92005 -0.01594
C 22.07719 21.2844 0.0106
C 22.17807 19.85163 -0.01154
C 23.41395 19.0818 -0.01721
C 23.35659 17.76828 -0.02422
C 22.18973 16.98776 0.01277
C 22.05948 15.57199 0.00096
C 23.30907 14.8707 -0.01527
C 23.36489 13.50464 0.01087
C 22.12538 12.82757 0.00199
C 22.03703 11.36813 0.01511
C 25.85615 19.18048 0.00768
C 3.63678 32.02574 -0.04999
C 25.89422 17.7609 -0.0276
C 24.49521 15.61552 -0.04078
C 28.26543 21.90528 -0.0032
C 27.0189 21.24119 0.00622
C 27.12426 19.88385 -0.02815
C 28.38652 19.1711 -0.00942
C 28.35708 17.70582 0.00487
C 27.05042 17.06326 0.00826
C 26.95618 15.60048 -0.00294
C 28.28997 14.90964 0.00152
C 28.29473 13.50514 0.01257
C 28.29776 23.32805 -0.00037
C 26.9763 12.81087 0.02316
C 28.18273 10.71605 0.00194
C 28.21913 9.27955 -0.00621
C 26.86267 8.54167 0.02611
C 26.84093 7.13994 0.02198
C 28.13744 6.46713 0.01094
C 28.17243 5.00498 0.00235
C 26.94099 4.23453 0.01495
C 27.04432 2.82172 0.01259
C 28.26013 2.0663 0.01799
C 26.97517 11.38841 0.04185
C 27.11182 24.07014 -0.01654
C 27.11155 25.47032 -0.00218
C 28.27674 26.23239 -0.00802
C 25.70918 14.91597 0.02117
C 25.76268 13.48646 0.02737
C 24.54051 12.81162 -0.00498
C 24.50305 11.27295 0.00135
C 25.75541 10.62428 0.03102
C 25.63347 9.25772 0.02555
C 24.4314 8.49122 0.01423
C 24.49684 7.02422 -0.00285
C 25.7133 6.3854 -0.009
C 25.72201 4.97605 -0.01199
C 24.38639 4.23267 -0.00229
C 24.46706 2.73713 -0.00938
C 25.73806 2.09279 -0.0264
C 25.78705 0.72969 -0.01154
C 24.48205 34.0075 0.00684
C 27.01538 32.57052 -0.01052
C 28.35006 31.84627 -0.01679
C 28.22569 30.44076 0.00367
C 27.03878 29.7659 0.04306
C 27.05173 28.31603 0.00996
C 28.28623 27.61268 0.00195
C 24.58703 17.04086 0.03005
C 2.41572 32.65025 -0.03291
