413
Graphene
C 34.42408 0.02196 0.01295
C 14.81288 25.5608 -0.02245
C 14.72471 24.21802 -0.00428
C 15.96173 23.46698 0.03101
C 16.05219 21.99641 -0.01536
C 14.76572 21.34014 -0.02689
C 14.84929 19.9248 -0.01046
C 15.89218 19.11115 -0.00891
C 15.91757 17.69724 0.02819
C 14.73018 16.81588 0.00165
C 14.77569 15.61631 -0.02971
C 16.03834 14.94484 0.02894
C 16.0143 13.46882 -0.01789
C 14.80355 12.7845 0.00444
C 14.79088 11.35816 -0.00925
C 15.97737 10.70979 0.01877
C 15.98436 9.19147 0.01363
C 14.76631 8.43804 -0.02162
C 14.74966 7.03749 0.00415
C 16.04006 6.31141 -0.0014
C 15.91146 4.94494 0.02162
C 14.71202 4.28524 0.0076
C 15.9925 26.25793 0.00985
C 15.91645 27.74811 -0.01275
C 14.67326 28.51737 -0.01111
C 14.74141 29.89566 0.02841
C 13.58862 26.308 0.02147
C 12.33932 25.57426 0.00373
C 12.32354 24.19603 -0.00191
C 13.4543 23.43494 0.00438
C 13.55422 22.01965 0.01291
C 13.53049 13.4892 0.00093
C 12.38869 12.94721 0.00057
C 12.27616 11.43043 -0.01634
C 13.50448 10.7319 -0.00334
C 13.57697 9.17861 0.02339
C 14.75814 2.80274 0.01241
C 12.33493 8.57932 0.01641
C 13.57744 6.35797 0.01364
C 13.4888 4.90164 -0.01062
C 12.28323 4.30051 -0.00033
C 12.29068 2.79936 0.03589
C 13.45517 2.11691 -0.02759
C 13.54386 0.7127 0.0402
C 12.3934 0.02364 0.00572
C 14.74197 32.71942 0.03592
C 15.97231 31.99733 0.00406
C 15.94445 30.64759 0.00943
C 12.28288 7.15537 -0.00719
C 15.9605 2.06424 -0.01454
C 16.00938 0.64143 0.01945
C 14.76327 0.05896 0.01416
C 18.42032 4.93759 0.00889
C 17.16083 4.26458 -0.00481
C 17.19507 2.86412 0.00979
C 18.45763 2.12383 0.01443
C 18.49963 0.7819 0.03505
C 17.22368 34.03123 -0.02815
C 19.69911 32.66718 -0.04147
C 20.93064 31.92533 -0.05302
C 20.90262 30.49177 0.00213
C 19.6398 29.79375 -0.00066
C 18.43877 6.36746 -0.02162
C 19.68281 28.3303 -0.00289
C 20.90932 26.25059 -0.02213
C 19.65622 25.59274 0.03698
C 19.64123 24.16336 -0.00109
C 20.84536 23.44251 -0.00491
C 20.86011 22.05899 0.03338
C 19.64357 21.32131 -0.0258
C 19.65442 19.89828 -0.0331
C 20.94148 19.14128 -0.00316
C 20.95141 17.75335 0.02188
C 19.68812 17.08985 -0.01979
C 20.914 27.71389 0.00028
C 13.55763 27.71223 -0.014
C 17.21191 7.08352 -0.00619
C 18.45665 9.16794 0.02098
C 17.21217 32.62065 0.03542
C 18.4456 31.95513 0.02299
C 18.47696 30.56939 0.00244
C 17.17671 29.8454 -0.01717
C 17.15599 28.444 0.05265
C 18.40164 27.69162 -0.01952
C 18.42041 26.25515 -0.02813
C 17.1471 25.54891 0.00374
C 17.22124 24.15447 0.00052
C 18.44805 23.36774 -0.03682
C 17.19403 8.51535 0.01848
C 18.43311 21.93387 0.01965
C 17.18226 19.81513 -0.01957
C 18.43975 19.12895 -0.0108
C 18.41191 17.72263 -0.00368
C 17.23503 17.02132 -0.02696
C 17.26286 15.63834 -0.00114
C 18.45132 14.95208 0.00228
C 18.47614 13.45166 0.00798
C 17.21179 12.77641 0.00422
C 17.18379 11.38999 0.0351
C 18.45997 10.68656 -0.03113
C 17.22069 21.22135 0.02058
C 12.26717 28.44182 -0.01118
C 12.24959 29.84767 -0.00131
C 13.48091 30.55975 -0.02896
C 2.45909 2.87177 0.03284
C 3.67581 2.17424 -0.04307
C 3.70804 0.6749 0.03189
C 2.47731 34.05747 0.00031
C 4.96054 32.69676 -0.003
C 6.1682 32.01745 0.01402
C 6.06906 30.63243 0.02379
C 4.90584 29.8484 0.00907
C 4.90843 28.38439 0.00643
C 6.12582 27.66729 -0.01509
C 2.38567 4.27702 0.04505
C 6.12609 26.23384 0.03267
C 4.98282 24.13861 0.00402
C 6.26036 23.47722 0.0073
C 6.25073 13.42281 0.0174
C 4.96325 12.76389 0.03828
C 4.7968 11.3631 0.01226
C 6.12815 10.75418 -0.00279
C 6.1375 9.27142 0.01996
C 4.96023 8.51491 -0.03996
C 4.93339 7.10834 0.01465
C 6.23203 6.38126 -0.00074
C 4.90527 25.51824 0.02374
C 6.20603 4.95877 -0.00518
C 3.60279 4.92358 -0.04999
C 2.45148 7.12837 0.02769
C 3.66576 30.58308 -0.00177
C 2.44481 29.82987 0.04421
C 2.49921 28.43714 0.00088
C 3.6879 27.63725 0.00828
C 3.75114 26.26098 -0.02375
C 2.49963 25.63045 0.00558
C 2.48542 24.19158 -0.0059
C 3.69072 23.39743 -0.01386
C 3.61374 21.95491 -0.02805
C 2.42543 21.26979 0.00081
C 3.71949 6.40267 -0.03291
C 2.48098 19.83537 0.00245
C 3.6307 17.9071 -0.00039
C 2.47608 17.09585 0.0064
C 2.45673 15.61504 0.00211
C 3.75892 14.88297 -0.00449
C 3.75742 13.50098 -0.01979
C 2.4763 12.8216 0.02784
C 2.40905 11.2571 -0.01977
C 3.62608 10.60761 -0.00561
C 3.63656 9.22593 0.00208
C 2.3818 8.50793 0.01707
C 3.6737 19.05817 0.02728
C 19.66748 15.64636 0.02691
C 4.88943 4.29456 0.0086
C 6.17727 2.08352 0.017
C 11.0273 30.59145 -0.01142
C 9.84834 29.83583 -0.00562
C 9.87024 28.43055 -0.00494
C 11.06593 27.6553 0.00054
C 11.0955 26.28881 0.03007
C 9.85119 25.56701 -0.00095
C 9.8042 24.17919 0.01572
C 9.7463 12.81349 -0.04848
C 9.86633 11.42211 -0.00892
C 11.11816 10.71099 -0.01362
C 11.049 31.9935 0.01849
C 11.1126 9.30851 -0.0008
C 9.81103 7.20576 0.00393
C 11.05173 6.47346 0.00895
C 11.06711 5.01176 0.00685
C 9.77699 4.28536 0.02888
C 9.84544 2.87005 -0.00482
C 11.08359 2.109 -0.01384
C 11.08899 0.6722 0.03693
C 9.82643 0.01749 0.01745
C 12.26813 32.73194 0.00488
C 13.52384 32.00203 -0.01004
C 9.78253 8.57295 0.0288
C 4.87266 2.8966 -0.00643
C 9.80826 32.6214 0.01396
C 8.61224 0.71144 0.02635
C 6.08622 0.76521 -0.03113
C 4.8867 0.03319 -0.02566
C 7.43628 32.70056 -0.00094
C 8.63317 31.89219 0.02322
C 8.56585 30.52432 -0.00725
C 7.29526 29.82963 -0.05697
C 7.35186 28.41676 0.01087
C 8.57474 27.73237 -0.01343
C 8.49693 26.30142 0.00988
C 7.35754 25.54122 0.0276
C 7.35366 34.04401 0.0127
C 7.29141 24.18464 0.01305
C 7.3292 11.40521 0.03368
C 8.59539 10.69617 -0.02929
C 8.5873 9.21182 -0.00966
C 7.36756 8.53808 -0.03337
C 7.39136 7.12962 0.01227
C 8.64834 6.41283 0.00873
C 8.62756 5.04348 -0.00049
C 7.39594 4.25206 0.00848
C 7.35548 2.84622 -0.01303
C 8.60814 2.12124 -0.01378
C 7.27305 12.86196 -0.00077
C 3.73756 31.9456 0.03278
C 20.87947 14.8721 -0.01581
C 19.73216 12.74317 0.04892
C 30.72828 9.23326 -0.03735
C 29.51591 8.55603 -0.00971
C 29.53191 7.12145 0.01518
C 30.7261 6.36608 0.01908
C 30.72373 4.95904 0.07705
C 29.51272 4.30457 0.0103
C 29.57125 2.85821 0.02108
C 30.76957 2.05378 0.00716
C 30.75233 0.6556 0.00307
C 29.52459 0.00703 0.00346
C 31.9862 32.69287 0.01713
C 33.18435 31.89967 -0.01694
C 33.15337 30.52704 0.01428
C 32.01007 29.75478 -0.02142
C 31.92305 28.34617 0.0544
C 33.14874 27.69715 0.00026
C 33.15952 26.26609 0.00682
C 31.92085 25.59254 -0.01779
C 31.96299 24.13239 0.03794
C 33.21557 23.38134 0.01927
C 33.24312 21.97879 0.01574
C 30.76759 10.69865 -0.00944
C 29.56338 11.33505 -0.02155
C 29.52134 12.70016 -0.01461
C 30.72774 13.48584 -0.01303
C 27.09039 2.80745 0.01259
C 28.27419 2.1163 0.01799
C 28.3133 0.68156 0.01699
C 27.05811 0.01469 -0.00416
C 29.51354 32.67027 0.01177
C 30.73979 32.02616 0.04266
C 30.76781 30.53538 0.01324
C 29.5407 29.88623 0.0014
C 29.47831 28.43703 0.00924
C 30.71982 27.70222 0.02326
C 31.96038 21.27858 -0.02383
C 30.76218 26.30765 0.00261
C 29.51995 24.13024 -0.02049
C 30.73032 23.40015 -0.01854
C 30.77578 22.03397 -0.01415
C 29.53152 21.32143 -0.03039
C 29.55862 19.9535 0.01836
C 30.69515 19.06801 0.03531
C 30.6708 17.69191 -0.00669
C 29.50307 17.0094 0.0101
C 29.56638 15.60979 0.01705
C 30.68788 14.85815 -0.0405
C 29.4666 25.54986 0.03265
C 31.93402 19.82273 -0.01429
C 33.1615 19.15004 -0.0136
C 33.17477 17.6652 0.00594
C 1.22425 23.5344 0.00723
C 1.23535 22.08883 0.02712
C 0.02932 21.2953 -0.02213
C 34.42812 19.86608 0.01951
C 1.16886 19.12321 -0.01678
C 1.15268 17.77887 0.01223
C 34.40294 17.03821 0.00648
C 0.04749 15.56172 0.02114
C 1.24265 14.90391 -0.02957
C 1.19433 13.52657 0.00343
C 34.42893 24.19721 0.03076
C 34.42105 12.83785 -0.02656
C 1.15871 10.63533 -0.00027
C 1.17283 9.24425 -0.00583
C 34.42837 8.56337 -0.02302
C 0.00776 7.09902 -0.02849
C 1.25307 6.40299 0.02931
C 1.18862 4.92985 0.00628
C 34.38137 4.24609 -0.0345
C 34.41083 2.84279 -0.00931
C 1.19992 2.19522 -0.00939
C 1.2346 0.67309 -0.00468
C 34.41356 11.34207 -0.02442
C 27.02022 4.24009 0.01495
C 34.40563 25.59389 -0.05239
C 1.27502 27.71746 -0.00439
C 31.88865 16.93752 -0.02474
C 31.94555 15.59128 0.00369
C 33.22836 14.88633 0.00455
C 33.1683 13.42782 -0.00644
C 31.94882 12.77382 -0.01839
C 32.00275 11.33406 0.00137
C 33.21759 10.64351 0.00199
C 33.22846 9.23707 0.04381
C 31.93577 8.52052 0.02806
C 31.99047 7.03779 0.01504
C 1.23083 26.25463 -0.00598
C 33.16521 6.35654 -0.00069
C 31.9508 4.25216 -0.03838
C 32.01062 2.78932 0.00349
C 33.19456 2.15475 -0.00323
C 33.11189 0.7149 -0.00841
C 31.9055 34.03796 0.0001
C 34.42264 32.59904 -0.02927
C 1.20438 31.93153 -0.01404
C 1.25148 30.52528 0.01027
C 0.03385 29.82994 0.01831
C 34.33399 28.40792 -0.01037
C 33.13893 4.90815 0.04926
C 28.26777 4.9535 0.00235
C 28.30227 6.36086 0.01094
C 27.09821 7.04659 0.02198
C 23.39896 17.71388 -0.02422
C 22.16292 17.00653 0.01277
C 22.1355 15.61116 0.00096
C 23.36718 14.81435 -0.01527
C 23.329 13.45571 0.01087
C 22.10031 12.78369 0.00199
C 22.21369 11.29614 0.01511
C 23.44322 10.59 -0.00478
C 23.3242 9.17427 -0.01662
C 22.1108 8.50118 -0.01185
C 23.36575 19.16883 -0.01721
C 22.12023 7.08567 0.01126
C 23.37651 4.99488 -0.00381
C 22.12175 4.25094 0.03046
C 22.14981 2.84404 0.0296
C 23.42639 2.12228 0.03374
C 23.4295 0.72953 -0.02845
C 22.17504 0.06521 -0.03213
C 24.61844 32.67218 0.02239
C 25.84861 31.86937 0.01153
C 25.82739 30.51044 0.02734
C 24.56651 29.83475 -0.0055
C 23.37283 6.43588 0.01852
C 24.54779 28.39546 0.01515
C 22.15396 19.91553 -0.01154
C 23.3627 22.08825 -0.01594
C 19.67561 11.32109 -0.00111
C 20.96075 10.68126 -0.03557
C 20.87982 9.2778 0.03754
C 19.68098 8.49906 0.01739
C 19.72846 7.12779 0.00755
C 20.94905 6.37824 -0.0054
C 20.94544 4.93062 0.00667
C 19.5951 4.23442 0.00143
C 19.70698 2.86738 -0.017
C 20.90124 2.10773 0.00364
C 22.25772 21.34673 0.0106
C 20.8711 0.7534 -0.00831
C 22.14878 32.66036 -0.04422
C 23.37933 31.9377 0.00654
C 23.26924 30.5661 -0.00703
C 22.04075 29.81942 -0.04076
C 22.09669 28.39482 -0.00652
C 23.32839 27.67265 0.0058
C 23.38867 26.21595 -0.00865
C 22.04798 25.48878 0.00675
C 22.10751 24.12116 -0.00311
C 23.30325 23.45442 0.00742
C 19.65293 34.0744 -0.02957
C 20.87614 13.50376 0.01452
C 25.80007 27.70801 -0.00225
C 24.59923 25.53335 -0.01107
C 28.27693 30.53893 0.00367
C 27.05489 29.72463 0.04306
C 27.08306 28.37572 0.00996
C 28.27782 27.67879 0.00195
C 28.31362 26.28422 -0.00802
C 27.12533 25.65356 -0.00218
C 27.06882 24.17538 -0.01654
C 28.23157 23.36271 -0.00037
C 28.26201 21.94791 -0.0032
C 27.05051 21.31509 0.00622
C 28.20639 31.98579 -0.01679
C 27.04173 19.85986 -0.02815
C 28.34396 17.78807 0.00487
C 27.11451 17.07369 0.00826
C 27.03576 15.63544 -0.00294
C 28.26002 14.88091 0.00152
C 28.26432 13.48669 0.01257
C 27.08052 12.77441 0.02316
C 27.03164 11.33363 0.04185
C 28.26964 10.62203 0.00194
C 28.26687 9.20414 -0.00621
C 27.01506 8.4742 0.02611
C 28.31044 19.18306 -0.00942
C 25.85883 26.24874 0.00071
C 27.04787 32.71261 -0.01052
C 25.87395 0.76931 -0.01154
C 24.53704 24.12227 -0.01586
C 25.83541 23.41389 -0.01971
C 25.83221 22.04179 -0.02118
C 24.61998 21.33617 0.00733
C 24.58844 19.86627 -0.00178
C 25.83048 19.12082 0.00768
C 25.90287 17.73568 -0.0276
C 24.57837 17.08856 0.03005
C 24.59305 15.65161 -0.04078
C 25.82734 14.95696 0.02117
C 24.64761 0.02456 0.00684
C 25.86004 13.44976 0.02737
C 24.58765 11.33558 0.00135
C 25.85866 10.61719 0.03102
C 25.80421 9.20149 0.02555
C 24.51418 8.51511 0.01423
C 24.56562 7.10564 -0.00285
C 25.79142 6.37579 -0.009
C 25.80033 4.95951 -0.01199
C 24.5514 4.17425 -0.00229
C 24.5424 2.81934 -0.00938
C 25.84968 2.18397 -0.0264
C 24.60283 12.82113 -0.00498
C 2.45217 32.54955 0.01138
