271
Graphene
C 34.34198 0.11831 0.01295
C 14.65406 25.53928 0.01511
C 15.82889 26.02878 0.00199
C 15.97661 27.57925 0.01087
C 14.74211 28.32037 -0.01527
C 14.79382 29.78778 0.00096
C 16.02399 30.45037 0.01277
C 16.00431 31.8438 -0.02422
C 14.76754 32.63083 -0.01721
C 12.31083 34.03478 -0.01154
C 13.53322 0.73287 0.0106
C 13.54525 2.16771 -0.01594
C 12.22921 2.85452 0.00742
C 12.2356 4.27053 -0.00311
C 13.52722 4.99873 0.00675
C 14.1339 10.67235 -0.00478
C 13.55001 6.37813 -0.00865
C 12.33658 8.73473 -0.00652
C 13.59153 9.49068 -0.04076
C 11.93074 25.83823 -0.00703
C 13.33398 26.08232 0.00654
C 13.43227 27.67492 -0.04422
C 12.27641 28.38216 -0.02957
C 12.30253 29.83692 -0.00831
C 13.51185 30.42937 0.00364
C 13.62109 31.82973 -0.017
C 12.36015 32.61818 0.00143
C 9.88962 34.06818 0.00667
C 11.06424 0.78755 -0.0054
C 10.99735 2.19533 0.00755
C 9.80333 2.93415 0.01739
C 12.3455 7.13874 0.0058
C 9.80315 4.44983 0.03754
C 15.58661 10.69119 -0.01662
C 14.75405 8.57232 0.01126
C 20.98932 31.8809 0.02555
C 19.70167 32.59681 0.03102
C 17.29662 34.00146 0.00135
C 18.60454 0.74372 -0.00498
C 18.56163 2.07887 0.02737
C 17.37981 2.926 0.02117
C 17.18939 4.22263 -0.04078
C 17.21956 7.22915 0.03005
C 17.15227 8.44391 -0.0276
C 18.25122 10.93583 0.00768
C 16.78294 11.57394 -0.00178
C 16.97573 13.06191 0.00733
C 18.27409 13.48511 -0.02118
C 18.45967 14.90489 -0.01971
C 15.93867 9.16555 -0.01185
C 17.20773 25.53701 -0.01586
C 18.48023 27.64747 0.00071
C 17.24375 28.26143 -0.00225
C 17.24313 29.80547 0.01515
C 18.46977 30.50668 -0.0055
C 18.44122 31.86701 0.02734
C 17.28252 32.62578 0.01153
C 14.74841 0.01172 0.02239
C 16.06396 0.68083 -0.03213
C 16.09146 2.14152 -0.02845
C 14.83084 2.88156 0.03374
C 14.74492 4.38255 0.0296
C 16.07025 5.03614 0.03046
C 16.07016 6.38344 -0.00381
C 14.79649 7.10327 0.01852
C 18.3875 26.14005 -0.01107
C 20.98876 30.44469 0.01423
C 10.98951 5.11983 -0.03557
C 9.80064 7.19763 0.04892
C 4.78317 8.53903 -0.00114
C 5.95109 9.3207 -0.02696
C 4.98908 25.7802 -0.00368
C 6.13369 26.23188 -0.0108
C 6.16573 27.71592 -0.01957
C 4.97184 28.44819 0.02058
C 4.93366 29.87019 0.01965
C 6.09911 30.64774 -0.03682
C 6.1179 32.05274 0.00052
C 4.8311 32.70601 0.00374
C 2.36427 34.0689 -0.02813
C 3.65866 0.73306 -0.01952
C 3.59876 2.0973 0.05265
C 2.35241 2.8241 -0.01717
C 4.79971 7.04643 0.00228
C 2.33948 4.23565 0.00244
C 3.54358 6.38623 0.03542
C 2.35999 7.11072 0.01416
C 2.40284 8.499 0.01945
C 3.52869 9.24333 -0.01454
C 3.68893 10.5784 0.01241
C 2.6293 11.51718 0.0076
C 2.47052 12.8491 0.02162
C 2.42791 24.12701 -0.0014
C 2.4439 25.51691 0.00415
C 3.6978 26.29737 -0.02162
C 3.71515 27.78557 0.01363
C 2.44611 28.38547 0.01877
C 2.42978 29.84788 -0.00925
C 3.67493 30.56391 0.00444
C 3.64276 4.94949 0.02299
C 11.06242 6.4886 -0.00111
C 6.05084 6.4582 0.00798
C 4.85995 4.2956 0.0351
C 9.80694 8.65586 0.01452
C 11.05912 9.22089 -0.01581
C 10.78706 26.24936 0.02691
C 10.96299 27.71992 -0.01979
C 9.75855 28.51901 0.02188
C 9.80843 29.84496 -0.00316
C 11.11527 30.49028 -0.0331
C 11.04657 31.91593 -0.0258
C 9.92302 32.64337 0.03338
C 7.40692 0.01817 -0.00491
C 8.60294 0.72525 -0.00109
C 8.53616 2.22459 0.03698
C 7.36873 2.94009 -0.02213
C 7.31565 4.39598 0.00028
C 6.05108 5.02809 0.00422
C 8.53085 5.10975 -0.00289
C 7.26309 7.25423 0.00213
C 7.26404 8.78211 -0.05302
C 8.59637 9.39911 -0.04147
C 8.81796 26.29648 -0.02815
C 8.60389 27.68206 0.03505
C 7.35362 28.41205 0.01443
C 7.41942 29.8233 0.00979
C 8.5804 30.60882 -0.00481
C 8.662 32.02844 0.00889
C 7.31994 32.73354 -0.02162
C 4.89475 0.11148 -0.00619
C 6.14203 0.84501 0.01848
C 6.09205 2.22896 0.02098
C 4.87349 2.88575 -0.03113
C 8.46961 6.53042 -0.00066
C 3.68615 31.96522 -0.01789
C 19.78472 29.80187 -0.00285
C 20.86732 27.58485 -0.01199
C 31.8353 2.96 0.00349
C 31.77961 4.36758 -0.03838
C 33.07714 5.03091 0.04926
C 33.12255 6.4778 -0.00069
C 31.87509 7.20343 0.01504
C 31.86082 8.6865 0.02806
C 33.15247 9.30138 0.04381
C 33.24034 10.66276 0.00199
C 32.06954 11.34697 0.00137
C 32.08573 12.73256 -0.01839
C 33.27982 13.52875 -0.00644
C 33.1653 14.89758 0.00455
C 31.98814 15.51402 0.00369
C 31.71879 16.98361 -0.02474
C 33.05251 2.21427 -0.00323
C 32.72332 17.8738 0.00594
C 31.65337 20.32137 -0.01429
C 31.66077 21.68347 -0.02383
C 33.07757 22.04237 0.01574
C 33.18632 23.53989 0.01927
C 31.90759 24.11497 0.03794
C 31.86227 25.50617 -0.01779
C 33.10965 26.24822 0.00682
C 33.19967 27.7251 0.00026
C 32.02321 28.41637 0.0544
C 31.93379 29.83093 -0.02142
C 33.16196 30.606 0.01428
C 33.16206 32.03734 -0.01694
C 31.90452 32.80485 0.01713
C 29.47069 0.09672 0.00346
C 32.70678 19.34027 -0.0136
C 30.68737 0.85595 0.00307
C 33.10628 0.81579 -0.00841
C 34.35327 32.77586 -0.02927
C 1.10338 0.76775 -0.00468
C 1.11384 2.23773 -0.00939
C 34.35867 2.9682 -0.00931
C 34.30273 4.37104 -0.0345
C 1.09381 5.02091 0.00628
C 1.14473 6.46638 0.02931
C 34.40266 7.15766 -0.02849
C 34.35191 8.59287 -0.02302
C 1.16468 9.30578 -0.00583
C 1.27342 10.63668 -0.00027
C 0.09695 11.36219 -0.02442
C 0.02162 12.78788 -0.02656
C 1.29271 13.61943 0.00343
C 1.18022 15.09069 -0.02957
C 31.92752 0.0533 0.0001
C 34.36375 15.7539 0.02114
C 0.78169 17.90295 0.01223
C 0.7688 19.21414 -0.01678
C 34.0952 19.98942 0.01951
C 34.22393 21.33822 -0.02213
C 0.99908 22.05167 0.02712
C 1.27013 23.39049 0.00723
C 0.02097 24.16889 0.03076
C 34.41002 25.55298 -0.05239
C 1.27747 26.26731 -0.00598
C 1.20388 27.65988 -0.00439
C 34.37253 28.41854 -0.01037
C 34.41824 29.82722 0.01831
C 1.20298 30.47652 0.01027
C 1.16826 31.96107 -0.01404
C 34.08895 17.17445 0.00648
C 19.70227 28.2983 -0.009
C 30.63756 2.24059 0.00716
C 29.36432 4.29365 0.0103
C 28.28527 32.03639 0.02198
C 27.04946 32.69304 0.02611
C 24.45811 0.05291 -0.00621
C 25.63392 0.5397 0.00194
C 24.72877 13.50832 0.04185
C 26.00202 13.59807 0.02316
C 25.85432 27.65377 0.01257
C 24.58616 28.12291 0.00152
C 24.62225 29.65202 -0.00294
C 25.89871 30.45754 0.00826
C 25.79921 31.93068 0.00487
C 24.57854 32.63634 -0.00942
C 22.11064 33.87806 -0.02815
C 22.07697 13.1496 0.00622
C 28.29484 30.53783 0.01094
C 23.34051 13.40766 -0.0032
C 22.13516 28.31958 -0.01654
C 22.21072 29.78101 -0.00218
C 23.4969 30.45792 -0.00802
C 23.43814 31.8625 0.00195
C 22.23696 32.54726 0.00996
C 19.80141 34.07006 0.04306
C 21.12875 0.55443 0.00367
C 19.38013 11.60255 -0.01679
C 19.72974 12.94494 -0.01052
C 21.02964 13.86798 0.00684
C 20.72174 15.22722 -0.01154
C 19.43373 15.64926 -0.0264
C 19.68591 25.6866 -0.00938
C 20.91831 26.26809 -0.00229
C 23.31136 27.69171 -0.00037
C 29.31388 2.9319 0.02108
C 27.10995 29.73216 0.00235
C 28.27971 27.72547 0.01259
C 30.52491 5.08267 0.07705
C 30.65006 6.55985 0.01908
C 29.37079 7.38858 0.01518
C 29.43534 8.64048 -0.00971
C 30.68057 9.36703 -0.03735
C 30.84895 10.77484 -0.00944
C 29.65402 11.46383 -0.02155
C 29.57244 12.83893 -0.01461
C 30.79113 13.47239 -0.01303
C 30.78404 14.86033 -0.0405
C 29.59742 15.65937 0.01705
C 30.27108 17.17065 0.0101
C 30.8885 23.03391 -0.00669
C 29.48671 25.7546 0.03531
C 27.06347 28.3088 0.01495
C 30.71216 26.30351 0.01836
C 29.48068 28.43127 -0.01415
C 29.48963 29.83968 -0.01854
C 30.73031 30.62463 -0.02049
C 30.68664 32.01701 0.03265
C 29.47805 32.77241 0.00261
C 26.93896 0.00066 0.02326
C 28.12665 0.77306 0.00924
C 28.0928 2.15717 0.0014
C 28.33607 10.70441 0.01324
C 27.3433 11.45621 0.04266
C 27.09165 12.83337 0.01177
C 28.34401 13.59071 -0.00416
C 28.31166 15.03857 0.01699
C 28.4267 26.3203 0.01799
C 30.77026 27.73951 -0.03039
C 2.38719 32.69933 0.02894
