360
Graphene
C 34.4211 34.07413 0.01295
C 13.52934 27.71503 0.02058
C 13.52036 26.28066 -0.01957
C 12.23719 25.59998 -0.0108
C 12.32586 24.18014 -0.00368
C 13.64158 23.48356 -0.02696
C 13.55294 22.08224 -0.00114
C 12.26701 11.26843 0.00228
C 13.43592 10.66274 0.00798
C 12.27811 28.29208 0.01965
C 13.54522 9.16871 0.00422
C 12.38008 7.05983 -0.03113
C 13.60072 6.36114 0.02098
C 13.56889 4.98364 0.01848
C 12.34551 4.29887 -0.00619
C 12.33915 2.84234 -0.02162
C 13.51081 2.08108 0.00889
C 13.46021 0.63119 -0.00481
C 12.24822 33.95364 0.00979
C 12.35055 8.48331 0.0351
C 12.22629 29.68089 -0.03682
C 13.50407 30.51326 0.00052
C 13.49867 31.92868 0.00374
C 11.01536 27.70756 -0.00925
C 10.99623 26.36153 0.01877
C 9.80923 25.5669 0.01363
C 9.82761 24.18773 -0.02162
C 11.13025 23.4011 0.00415
C 11.14038 22.0715 -0.0014
C 9.80899 11.36222 0.02162
C 11.02714 10.73895 0.0076
C 11.15383 9.19825 0.01241
C 9.85548 8.67975 -0.01454
C 9.84146 7.19194 0.01945
C 11.07781 6.42129 0.01416
C 11.14132 4.98388 0.03542
C 9.84695 4.26429 0.02299
C 9.88915 2.82554 0.00244
C 11.13257 2.10004 -0.01717
C 11.03064 0.68071 0.05265
C 9.80039 0.03838 -0.01952
C 12.26734 32.56322 -0.02813
C 14.71921 32.60918 0.01443
C 9.77458 28.40107 0.00444
C 15.99991 31.93746 0.03505
C 14.71092 29.87636 -0.04147
C 17.2613 29.89361 0.00755
C 17.14492 28.48749 -0.0054
C 18.32439 27.79328 0.00667
C 18.37074 13.34682 0.00143
C 17.24797 12.78269 -0.017
C 17.18693 11.28651 0.00364
C 18.38824 10.65405 -0.00831
C 18.4055 9.22808 -0.02957
C 18.40276 30.63056 0.01739
C 17.21216 8.46033 -0.04422
C 18.43563 6.40558 -0.00703
C 18.45475 4.96448 -0.04076
C 17.20335 4.23105 -0.00652
C 17.23284 2.82153 0.0058
C 18.48857 2.07961 -0.00865
C 18.34244 0.62492 0.00675
C 17.14308 34.06405 -0.00311
C 19.66212 32.59082 0.00742
C 17.23116 7.04112 0.00654
C 18.39986 31.98225 0.03754
C 17.22308 32.69853 -0.03557
C 14.68147 34.04279 -0.00111
C 14.70663 28.46416 -0.05302
C 15.92473 27.78881 0.00213
C 15.93187 26.40784 -0.00066
C 14.8748 25.487 -0.00289
C 14.81035 24.10558 0.00028
C 16.0754 14.92133 -0.02213
C 15.91426 13.59883 0.03698
C 14.84676 12.7579 -0.00109
C 14.7297 11.38616 -0.00491
C 16.03198 10.60637 0.03338
C 15.95877 9.18079 -0.0258
C 14.73327 8.54315 -0.0331
C 14.79607 7.08596 -0.00316
C 15.99407 6.3978 0.02188
C 15.94932 4.99311 -0.01979
C 14.77256 4.21664 0.02691
C 14.70144 2.82967 -0.01581
C 15.9584 2.1387 0.01452
C 15.93349 0.74221 0.04892
C 16.03457 30.5468 -0.02815
C 20.88422 31.91483 -0.01594
C 9.78903 29.74773 -0.01789
C 11.01518 31.8553 -0.02971
C 3.68617 6.45553 0.01396
C 3.63309 4.99454 0.01849
C 2.42043 4.24333 -0.01142
C 2.49766 2.87403 -0.00562
C 3.72222 2.17743 -0.00494
C 3.67156 0.70127 0.00054
C 2.46367 0.01233 0.03007
C 4.89561 32.6848 -0.00095
C 2.47093 7.18987 0.0127
C 6.16711 31.9226 0.01572
C 4.83562 29.8694 -0.00892
C 4.92118 28.45944 -0.01362
C 6.12533 27.7321 -0.0008
C 6.11475 26.34753 0.0288
C 4.91043 25.56658 0.00393
C 4.89737 24.14298 0.00895
C 6.17016 23.44649 0.00685
C 6.16795 22.0677 0.02888
C 6.12302 30.54276 -0.04848
C 2.45976 8.64033 0.02635
C 3.70962 9.24693 -0.01378
C 3.68482 10.70828 -0.01303
C 3.61225 30.54889 -0.02566
C 2.41428 29.80236 -0.00094
C 2.47338 28.36122 0.02322
C 3.6823 27.71801 -0.00725
C 3.72451 26.2723 -0.05697
C 2.48453 25.52932 0.01087
C 2.43619 24.17795 -0.01343
C 3.67026 23.48729 0.00988
C 3.68081 22.04239 0.0276
C 2.44127 21.31905 0.01305
C 2.47212 19.8731 -0.00077
C 3.70701 19.14134 0.03368
C 3.73298 17.77684 -0.02929
C 2.49419 16.98331 -0.00966
C 2.47455 15.60769 -0.03337
C 3.69545 14.93561 0.01227
C 3.60297 13.49732 0.00873
C 2.45168 12.81271 -0.00049
C 2.47718 11.40284 0.00848
C 4.92565 21.40911 -0.00482
C 11.00964 30.43086 0.02894
C 5.05064 19.93117 -0.01384
C 5.0087 16.99514 0.01745
C 7.36807 24.17052 0.0402
C 8.61639 23.41669 0.00572
C 8.4741 21.90747 0.03592
C 7.38341 21.25948 0.00406
C 7.2797 12.84443 0.00943
C 7.39621 11.3772 0.02841
C 8.64392 10.7745 -0.01111
C 8.64628 9.29461 -0.01275
C 7.36145 25.61018 -0.02759
C 7.42578 8.59405 0.00985
C 8.63748 6.39689 -0.00428
C 8.63939 4.95634 0.03101
C 7.37659 4.23344 -0.01536
C 7.37029 2.773 -0.02689
C 8.59087 2.08234 -0.01046
C 8.51696 0.71253 -0.00891
C 7.30383 34.05707 0.02819
C 9.83427 32.67237 0.00165
C 7.40823 7.15538 -0.02245
C 8.58975 26.25328 0.03589
C 8.56634 27.69348 -0.00033
C 7.3135 28.44727 -0.01062
C 4.93524 15.75233 0.00488
C 6.26276 13.4045 -0.01004
C 4.9273 12.84946 -0.02896
C 4.94221 11.41679 -0.00131
C 6.12854 10.73026 -0.01118
C 6.18263 9.26299 -0.014
C 4.94813 8.56511 0.02147
C 4.92221 7.12554 0.00373
C 6.173 6.45323 -0.00191
C 6.13653 5.04083 0.00438
C 4.93012 4.37266 0.01291
C 4.87797 2.94663 0.00093
C 6.08765 2.14932 0.00057
C 6.13315 0.72684 -0.01634
C 4.89416 34.06511 -0.00334
C 7.37398 32.60611 0.02339
C 8.61873 31.966 0.01641
C 8.5599 30.55714 -0.00719
C 7.36045 29.90186 0.01364
C 6.17348 19.2285 0.03693
C 20.85101 30.48859 0.0106
C 19.60262 29.8408 -0.01154
C 19.63244 28.3017 -0.01721
C 31.94446 32.68835 0.01713
C 33.1594 31.98231 -0.01694
C 33.20543 30.59699 0.01428
C 31.99718 29.84825 -0.02142
C 31.97748 28.42615 0.0544
C 33.2023 27.66689 0.00026
C 33.17461 26.28153 0.00682
C 31.90553 25.57395 -0.01779
C 29.52157 0.01222 0.00346
C 31.92172 24.13557 0.03794
C 33.15757 22.00895 0.01574
C 31.88266 21.31966 -0.02383
C 31.95166 19.89069 -0.01429
C 33.15631 19.18697 -0.0136
C 33.22589 17.75411 0.00594
C 31.99049 16.99987 -0.02474
C 31.9656 15.62115 0.00369
C 33.20145 14.89279 0.00455
C 33.18012 23.43555 0.01927
C 30.7213 0.73454 0.00307
C 30.70271 2.14549 0.00716
C 29.55151 2.8138 0.02108
C 30.64354 23.48149 -0.01854
C 30.69896 22.05581 -0.01415
C 29.63101 21.23067 -0.03039
C 29.48863 19.89127 0.01836
C 30.83129 19.14863 0.03531
C 30.74155 17.74928 -0.00669
C 29.54006 17.0551 0.0101
C 29.53126 15.65646 0.01705
C 30.71618 14.88176 -0.0405
C 30.7123 13.48989 -0.01303
C 29.50746 12.81747 -0.01461
C 29.54662 11.37759 -0.02155
C 30.74366 10.62273 -0.00944
C 30.78107 9.12951 -0.03735
C 29.55433 8.53607 -0.00971
C 29.52827 7.14768 0.01518
C 30.67875 6.34169 0.01908
C 30.73111 4.93239 0.07705
C 29.54277 4.24141 0.0103
C 33.13222 13.43651 -0.00644
C 29.46454 24.20145 -0.02049
C 31.93029 12.71222 -0.01839
C 33.21498 10.69415 0.00199
C 1.19375 19.1286 -0.01678
C 1.26501 17.72123 0.01223
C 0.00439 17.07414 0.00648
C 0.04665 15.60276 0.02114
C 1.26555 14.86373 -0.02957
C 1.20393 13.44691 0.00343
C 34.40573 12.75921 -0.02656
C 0.0174 11.32234 -0.02442
C 34.39763 19.84803 0.01951
C 1.26428 10.65241 -0.00027
C 0.01084 8.56632 -0.02302
C 34.38927 7.13883 -0.02849
C 1.25799 6.50031 0.02931
C 1.28277 5.02926 0.00628
C 0.01789 4.33203 -0.0345
C 34.37686 2.86682 -0.00931
C 1.20007 2.14132 -0.00939
C 1.20784 0.74249 -0.00468
C 1.21085 9.30135 -0.00583
C 34.39958 21.27389 -0.02213
C 1.23081 21.99117 0.02712
C 1.24206 23.41697 0.00723
C 33.2421 9.27591 0.04381
C 32.00214 8.52745 0.02806
C 31.95472 7.02851 0.01504
C 33.14839 6.36502 -0.00069
C 33.23021 4.96849 0.04926
C 31.97958 4.25174 -0.03838
C 31.90336 2.79786 0.00349
C 33.1235 2.12077 -0.00323
C 33.17724 0.70031 -0.00841
C 31.93321 34.05086 0.0001
C 34.39402 32.68409 -0.02927
C 1.18431 31.97908 -0.01404
C 1.19434 30.61156 0.01027
C 0.01663 29.86905 0.01831
C 34.42717 28.3877 -0.01037
C 1.20254 27.68796 -0.00439
C 1.17698 26.24088 -0.00598
C 34.37516 25.53862 -0.05239
C 0.02813 24.14361 0.03076
C 31.93299 11.34735 0.00137
C 29.33395 25.54301 0.03265
C 30.73119 26.329 0.00261
C 30.70981 27.76846 0.02326
C 22.08291 11.40683 -0.00225
C 23.28745 10.65057 0.00071
C 23.36866 9.2922 -0.01107
C 22.18565 8.50948 -0.01586
C 22.09915 7.04504 -0.01971
C 23.37788 6.38018 -0.02118
C 23.34232 4.9293 0.00733
C 22.10837 4.24033 -0.00178
C 22.15718 12.98717 0.01515
C 22.14813 2.79731 0.00768
C 23.29019 0.66759 0.03005
C 22.05201 34.06039 -0.04078
C 24.63413 32.65328 0.02117
C 25.81189 31.94549 0.02737
C 25.72636 30.47938 -0.00498
C 24.57916 29.7418 0.00135
C 24.60026 28.28022 0.03102
C 25.86594 27.63785 0.02555
C 23.35847 2.07222 -0.0276
C 23.4877 13.36967 -0.0055
C 23.42514 27.72728 0.02734
C 22.12478 28.30838 0.01153
C 20.9049 27.73477 -0.02422
C 20.83524 13.31763 0.01277
C 19.67589 12.81283 0.00096
C 19.66005 11.26648 -0.01527
C 20.88426 10.66237 0.01087
C 20.93599 9.20751 0.00199
C 19.66795 8.5784 0.01511
C 19.63271 7.16783 -0.00478
C 20.83454 6.35016 -0.01662
C 20.87114 4.9206 -0.01185
C 19.63029 4.20037 0.01126
C 19.72807 2.80669 0.01852
C 20.8946 2.08235 -0.00381
C 20.74678 0.66736 0.03046
C 19.54043 33.98894 0.0296
C 22.13541 32.61547 0.03374
C 23.38649 31.93239 -0.02845
C 23.37844 30.50483 -0.03213
C 22.15451 29.73981 0.02239
C 25.88584 14.78324 0.01423
C 25.83644 13.46155 -0.00285
C 24.60567 12.70074 -0.009
C 24.51108 11.32462 -0.01199
C 28.24195 13.52653 0.01257
C 27.14149 12.74331 0.02316
C 27.11084 11.32283 0.04185
C 28.35631 10.60873 0.00194
C 28.31308 9.1939 -0.00621
C 27.05708 8.47926 0.02611
C 27.11952 7.07672 0.02198
C 28.31547 6.40567 0.01094
C 28.28634 4.96635 0.00235
C 27.05898 4.28222 0.01495
C 27.21202 2.87705 0.01259
C 28.36612 2.16363 0.01799
C 28.32284 0.76461 0.01699
C 27.0399 0.08978 -0.00416
C 29.51321 32.60924 0.01177
C 30.72386 31.94084 0.04266
C 30.76799 30.53033 0.01324
C 29.4451 29.90182 0.0014
C 29.47933 28.44857 0.00924
C 28.29067 14.97187 0.00152
C 3.62653 31.9869 -0.03113
C 26.98305 15.66524 -0.00294
C 28.21571 17.80974 0.00487
C 25.86393 10.65234 -0.00229
C 25.84066 9.25678 -0.00938
C 24.63787 8.56937 -0.0264
C 24.6143 7.10208 -0.01154
C 25.88141 6.34015 0.00684
C 25.81985 4.97496 -0.01052
C 24.49059 4.23063 -0.01679
C 24.64928 2.81847 0.00367
C 25.91848 2.1681 0.04306
C 25.85303 0.78587 0.00996
C 24.55921 0.0334 0.00195
C 27.01778 32.72548 -0.00802
C 28.21258 31.91677 -0.00218
C 28.15765 30.55435 -0.01654
C 26.94203 29.80192 -0.00037
C 26.97926 28.31195 -0.0032
C 28.26721 27.59886 0.00622
C 28.09944 26.2471 -0.02815
C 28.34723 19.15475 -0.00942
C 27.03365 17.06763 0.00826
C 2.42831 32.66345 0.017
