377
Graphene
C 34.35254 34.05573 0.01295
C 15.91086 15.00373 0.03542
C 15.93776 13.5297 0.02299
C 14.70494 12.79756 0.00244
C 14.78852 11.42427 -0.01717
C 16.0139 10.7263 0.05265
C 16.0418 9.35246 -0.01952
C 15.96466 6.2869 -0.02813
C 15.94815 4.8882 0.00374
C 14.78325 4.104 0.00052
C 14.7559 2.63582 -0.03682
C 15.99273 2.04652 0.01965
C 16.04835 0.72363 0.02058
C 14.79489 0.03293 -0.01957
C 17.07884 32.70849 -0.0108
C 18.28639 31.83241 -0.00368
C 18.49865 30.6008 -0.02696
C 18.44288 19.03616 -0.00114
C 18.4443 17.665 0.00228
C 17.14518 16.98236 0.00798
C 14.78626 15.74477 0.01416
C 14.74248 17.08097 0.01945
C 15.99114 17.46434 -0.01454
C 14.66007 32.70909 0.01241
C 9.79236 2.80271 -0.00428
C 11.0048 2.17921 0.03101
C 11.05588 0.77996 -0.01536
C 9.89234 34.04808 -0.02689
C 12.42557 32.62538 -0.01046
C 12.21811 16.98052 -0.00891
C 12.32872 15.7007 0.02819
C 13.51736 14.99924 0.00165
C 13.51676 13.54069 -0.02971
C 17.26618 15.55682 0.00422
C 12.35413 12.81701 0.02894
C 13.65144 10.6105 0.00444
C 13.61666 9.12872 -0.00925
C 12.36618 8.54158 0.01877
C 13.55278 4.82876 0.01363
C 12.37913 4.33712 -0.02162
C 12.32359 2.81732 0.00415
C 13.46962 2.0358 -0.0014
C 13.56433 0.62823 0.02162
C 12.26493 34.04926 0.0076
C 12.39597 11.37688 -0.01789
C 9.8436 4.29605 -0.02245
C 18.47744 14.88814 0.0351
C 17.23923 12.84201 0.02098
C 19.6607 16.95627 -0.01979
C 19.72919 15.63641 0.02691
C 20.97397 14.90864 -0.01581
C 20.91673 13.43449 0.01452
C 19.68281 12.82542 0.04892
C 19.71344 11.38017 -0.00111
C 20.9346 10.66055 -0.03557
C 20.92903 9.29067 0.03754
C 19.66755 8.49034 0.01739
C 19.70543 7.13027 0.00755
C 20.91291 6.36146 -0.0054
C 20.89886 4.93749 0.00667
C 19.6565 4.22983 0.00143
C 19.68056 2.76337 -0.017
C 20.8763 2.06356 0.00364
C 20.86931 0.67855 -0.00831
C 19.64265 34.05807 -0.02957
C 22.04632 32.60735 -0.04422
C 23.31513 32.00352 0.00654
C 20.83821 17.75018 0.02188
C 20.85842 19.15553 -0.00316
C 19.35081 19.9445 -0.0331
C 19.62022 21.30249 -0.0258
C 17.24883 11.51114 0.01848
C 18.45121 10.67339 -0.00619
C 18.46149 9.22431 -0.02162
C 17.17097 8.52087 0.00889
C 17.10899 7.04328 -0.00481
C 18.45915 6.3359 0.00979
C 18.43621 4.93659 0.01443
C 17.20826 4.25431 0.03505
C 17.22587 2.83196 -0.02815
C 18.44927 13.53729 -0.03113
C 18.43453 2.06063 -0.04147
C 17.27407 34.05693 0.00213
C 19.62762 32.61438 -0.00066
C 20.79889 31.92564 -0.00289
C 20.86769 30.50638 0.00028
C 19.64512 29.89782 -0.02213
C 21.02755 27.58843 0.03698
C 20.91934 26.21408 -0.00109
C 20.99932 23.3501 -0.00491
C 20.83953 21.97612 0.03338
C 18.44697 0.65645 -0.05302
C 11.15431 5.03205 0.00985
C 11.0938 6.41615 -0.01275
C 9.92688 7.14037 -0.01111
C 3.71125 4.96671 0.00988
C 2.43328 4.25927 0.0276
C 2.42216 2.78412 0.01305
C 3.6739 2.16004 -0.00077
C 3.67023 0.73399 0.03368
C 2.44418 0.0702 -0.02929
C 4.8321 32.72958 -0.00966
C 6.04081 31.99446 -0.03337
C 6.09709 30.67002 0.01227
C 5.09269 29.78225 0.00873
C 4.78303 28.43657 -0.00049
C 4.84792 25.49968 0.00848
C 4.86891 24.10898 -0.01303
C 6.15039 22.07274 -0.01378
C 4.91536 21.44233 0.02635
C 4.95668 19.98705 0.0127
C 6.08904 19.20628 0.01396
C 6.02076 17.77462 0.01849
C 4.81851 17.04073 -0.01142
C 3.69325 6.41389 -0.01343
C 2.34666 7.09693 0.01087
C 2.37758 8.45521 -0.05697
C 3.64009 9.29983 -0.00725
C 3.68126 30.51025 0.03267
C 2.47126 29.84359 0.02374
C 2.39418 28.46436 0.00402
C 3.66552 27.72072 0.0073
C 3.80455 26.34268 0.0174
C 2.50613 25.60895 0.03828
C 2.49545 24.09516 0.01226
C 3.73339 23.32716 -0.00279
C 3.59229 22.00128 0.01996
C 4.88903 15.61349 -0.00562
C 2.37771 21.31553 -0.03996
C 3.65674 19.24196 -0.00074
C 3.64858 17.82415 -0.00518
C 2.46391 17.11487 0.0086
C 2.49094 15.62244 -0.00643
C 3.75627 14.93735 0.017
C 3.73828 13.45246 -0.03113
C 2.49231 12.78571 -0.02566
C 2.44757 11.39259 -0.00094
C 3.65118 10.72729 0.02322
C 2.3791 19.93734 0.01465
C 6.18419 14.93746 -0.00494
C 6.17283 13.50059 0.00054
C 4.96752 12.80846 0.03007
C 7.27863 8.60194 0.00438
C 7.31417 7.15522 0.01291
C 8.6417 6.52392 0.00093
C 8.61048 5.1006 0.00057
C 7.40232 4.33277 -0.01634
C 7.35831 2.85153 -0.00334
C 8.55336 2.12647 0.02339
C 8.58351 0.59394 0.01641
C 7.29715 34.05661 -0.00719
C 8.629 9.27276 -0.00191
C 9.73075 32.69604 0.01364
C 9.81626 17.30968 -0.00033
C 9.89497 15.7531 0.03589
C 11.06694 15.05349 -0.02759
C 11.0963 13.52084 0.0402
C 9.85617 12.78917 0.00572
C 9.88426 11.34839 0.03592
C 11.22151 10.69554 0.00406
C 11.16342 9.26552 0.00943
C 9.87469 8.53815 0.02841
C 11.04525 17.68711 -0.01062
C 23.3223 30.55416 -0.00703
C 8.62296 10.66586 0.00373
C 7.43906 12.822 -0.014
C 4.9128 11.37586 -0.00095
C 6.1383 10.77075 0.01572
C 6.12629 9.34362 -0.04848
C 4.89577 8.63458 -0.00892
C 4.86444 7.20455 -0.01362
C 6.17958 6.45065 -0.0008
C 6.17333 4.98616 0.0288
C 4.90466 4.32776 0.00393
C 4.86593 2.92268 0.00895
C 7.47622 11.41875 0.02147
C 6.14429 2.20166 0.00685
C 4.87575 0.0832 -0.00482
C 7.27478 32.68726 -0.01384
C 8.49985 32.22779 0.03693
C 7.44272 19.73067 0.01745
C 8.48734 17.85802 0.00488
C 7.35873 17.0404 -0.01004
C 7.40521 15.65294 -0.02896
C 8.5921 14.97304 -0.00131
C 8.63752 13.64471 -0.01118
C 6.11745 0.81765 0.02888
C 3.70902 31.9296 -0.01509
C 22.01968 29.86899 -0.04076
C 23.25281 27.64514 0.0058
C 30.73899 2.13809 0.00716
C 30.63597 0.72687 0.00307
C 29.4713 0.01558 0.00346
C 31.90051 32.69444 0.01713
C 33.17999 31.99925 -0.01694
C 33.18015 30.53032 0.01428
C 31.95761 29.85791 -0.02142
C 31.90214 28.43243 0.0544
C 33.1477 27.73405 0.00026
C 33.20446 26.35937 0.00682
C 32.01597 25.6102 -0.01779
C 31.99431 24.22473 0.03794
C 33.20744 23.51216 0.01927
C 33.12977 22.07702 0.01574
C 31.9736 21.2792 -0.02383
C 31.97632 19.88203 -0.01429
C 33.21426 19.15125 -0.0136
C 33.19348 17.72729 0.00594
C 31.99262 16.98799 -0.02474
C 29.52354 2.92308 0.02108
C 29.49351 4.30523 0.0103
C 30.74876 4.97609 0.07705
C 30.72199 6.35783 0.01908
C 30.68763 27.70777 0.02326
C 30.74007 26.2747 0.00261
C 29.54207 25.59089 0.03265
C 29.47282 24.11747 -0.02049
C 30.74415 23.43579 -0.01854
C 30.67886 21.98365 -0.01415
C 29.46669 21.27354 -0.03039
C 29.5699 19.81875 0.01836
C 30.75797 19.21071 0.03531
C 31.91224 15.63465 0.00369
C 30.79427 17.71748 -0.00669
C 29.44526 15.63957 0.01705
C 30.65886 14.87286 -0.0405
C 30.72468 13.49055 -0.01303
C 29.50237 12.82864 -0.01461
C 29.5481 11.39403 -0.02155
C 30.79966 10.65827 -0.00944
C 30.68486 9.24948 -0.03735
C 29.4955 8.57587 -0.00971
C 29.49401 7.0588 0.01518
C 29.48525 17.05813 0.0101
C 29.44034 28.39214 0.00924
C 33.16204 14.97426 0.00455
C 31.99596 12.85775 -0.01839
C 34.38642 19.8497 0.01951
C 1.1541 19.14356 -0.01678
C 1.24315 17.81372 0.01223
C 0.04308 17.04859 0.00648
C 0.04157 15.66471 0.02114
C 1.27063 14.98575 -0.02957
C 1.30582 13.5827 0.00343
C 0.02617 12.79449 -0.02656
C 0.00366 11.38493 -0.02442
C 1.28075 10.70175 -0.00027
C 1.26662 9.21032 -0.00583
C 0.02199 8.55724 -0.02302
C 34.41065 7.09346 -0.02849
C 1.19629 6.39114 0.02931
C 1.24392 4.92645 0.00628
C 34.42273 4.21775 -0.0345
C 34.33862 2.82247 -0.00931
C 1.21226 2.09527 -0.00939
C 1.22517 0.651 -0.00468
C 34.32121 21.31549 -0.02213
C 1.11532 21.96691 0.02712
C 1.18233 23.47507 0.00723
C 34.42303 24.1766 0.03076
C 32.00887 11.41557 0.00137
C 33.22425 10.68119 0.00199
C 33.19378 9.24995 0.04381
C 32.00513 8.48812 0.02806
C 31.99077 7.03877 0.01504
C 33.21039 6.39323 -0.00069
C 33.1678 5.01714 0.04926
C 31.94252 4.27032 -0.03838
C 31.928 2.81229 0.00349
C 33.23354 13.51688 -0.00644
C 33.14876 2.13282 -0.00323
C 31.89593 0.079 0.0001
C 34.38531 32.68477 -0.02927
C 1.19847 31.96478 -0.01404
C 1.26412 30.57978 0.01027
C 0.02415 29.86174 0.01831
C 34.40477 28.45988 -0.01037
C 1.15481 27.71075 -0.00439
C 1.281 26.29982 -0.00598
C 0.04601 25.58636 -0.05239
C 33.13675 0.82425 -0.00841
C 29.5215 29.81278 0.0014
C 30.77689 30.52306 0.01324
C 30.75291 31.91561 0.04266
C 23.37164 0.69889 -0.02845
C 22.17981 0.02808 -0.03213
C 24.58113 32.64782 0.02239
C 25.75771 31.90766 0.01153
C 25.82541 30.5313 0.02734
C 24.56113 29.81493 -0.0055
C 24.49176 28.41385 0.01515
C 25.77973 27.66213 -0.00225
C 25.74094 26.21242 0.00071
C 24.55425 25.5162 -0.01107
C 24.57738 24.09827 -0.01586
C 25.84029 23.37109 -0.01971
C 25.85789 21.92832 -0.02118
C 24.6064 21.22469 0.00733
C 24.54223 19.81664 -0.00178
C 25.76975 19.081 0.00768
C 25.71891 17.71773 -0.0276
C 24.51767 16.94179 0.03005
C 24.59933 15.58898 -0.04078
C 23.3673 2.10193 0.03374
C 22.05803 2.78545 0.0296
C 22.08856 4.20848 0.03046
C 23.39712 4.97728 -0.00381
C 23.29206 26.26185 -0.00865
C 21.96165 25.42158 0.00675
C 22.14376 23.98827 -0.00311
C 23.385 23.35297 0.00742
C 23.36904 21.9356 -0.01594
C 22.1072 21.25215 0.0106
C 22.1065 19.81423 -0.01154
C 23.32102 19.12697 -0.01721
C 23.29937 17.68101 -0.02422
C 25.86407 14.93201 0.02117
C 22.04025 17.02838 0.01277
C 23.39609 14.81713 -0.01527
C 23.39512 13.39619 0.01087
C 22.13472 12.75663 0.00199
C 22.16518 11.35776 0.01511
C 23.41703 10.64829 -0.00478
C 23.31319 9.21543 -0.01662
C 22.16501 8.54461 -0.01185
C 22.12439 7.10473 0.01126
C 23.292 6.4137 0.01852
C 22.18617 15.52482 0.00096
C 25.79346 13.49873 0.02737
C 24.62924 12.67335 -0.00498
C 24.64023 11.33929 0.00135
C 28.2894 19.16323 -0.00942
C 28.25476 17.75792 0.00487
C 26.98073 17.09396 0.00826
C 27.04217 15.74248 -0.00294
C 28.18581 14.94231 0.00152
C 28.30194 13.50063 0.01257
C 27.03692 12.83817 0.02316
C 27.04542 11.38298 0.04185
C 28.31612 10.65635 0.00194
C 27.01798 19.84888 -0.02815
C 28.23431 9.23478 -0.00621
C 27.03497 7.08302 0.02198
C 28.24022 6.37911 0.01094
C 28.30147 4.98145 0.00235
C 26.95454 4.2301 0.01495
C 27.10038 2.86063 0.01259
C 28.22476 2.1327 0.01799
C 28.30187 0.71512 0.01699
C 27.0822 0.02091 -0.00416
C 29.48349 32.66151 0.01177
C 27.06491 8.49669 0.02611
C 22.04264 28.43703 -0.00652
C 27.02548 21.21159 0.00622
C 28.27835 23.32392 -0.00037
C 25.86678 10.61199 0.03102
C 25.80513 9.1948 0.02555
C 24.52059 8.47876 0.01423
C 24.59816 7.07225 -0.00285
C 25.83432 6.44887 -0.009
C 25.76436 4.96314 -0.01199
C 24.50906 4.24523 -0.00229
C 24.58305 2.83482 -0.00938
C 25.85741 2.12532 -0.0264
C 28.20687 21.92793 -0.0032
C 25.86113 0.73428 -0.01154
C 27.02562 32.69334 -0.01052
C 28.29729 31.95705 -0.01679
C 28.24145 30.47485 0.00367
C 27.0808 29.78538 0.04306
C 27.06791 28.4192 0.00996
C 28.25164 27.64422 0.00195
C 28.27163 26.15917 -0.00802
C 27.06006 25.4782 -0.00218
C 27.04156 24.09239 -0.01654
C 24.59692 34.04918 0.00684
C 2.41596 32.65661 0.00643
