378
Graphene
C 34.41709 0.00995 0.01295
C 11.08037 6.42951 0.01416
C 11.05585 5.01938 0.03542
C 9.77027 4.29567 0.02299
C 9.89923 2.88791 0.00244
C 11.09961 2.13072 -0.01717
C 11.01377 0.74832 0.05265
C 9.81927 0.04874 -0.01952
C 12.23198 32.63885 -0.02813
C 13.43805 31.87983 0.00374
C 13.62967 30.43281 0.00052
C 12.29332 29.78197 -0.03682
C 12.35332 28.38213 0.01965
C 13.57056 27.66185 0.02058
C 13.54492 26.21533 -0.01957
C 12.30872 25.63302 -0.0108
C 12.42824 24.13319 -0.00368
C 13.45862 23.2589 -0.02696
C 12.12347 21.10886 -0.00114
C 12.38775 19.92369 0.00228
C 9.84553 7.0993 0.01945
C 9.8176 8.51739 -0.01454
C 11.07272 9.22772 0.01241
C 11.05894 10.64888 0.0076
C 10.98562 31.99387 -0.02245
C 11.10831 30.57989 -0.00428
C 9.86412 29.88983 0.03101
C 9.91019 28.50047 -0.01536
C 11.12032 27.75299 -0.02689
C 11.03758 26.31176 -0.01046
C 9.79742 25.63486 -0.00891
C 9.85106 24.23439 0.02819
C 11.09892 23.5289 0.00165
C 12.22915 17.04838 0.00798
C 11.12367 22.11094 -0.02971
C 9.98633 19.86224 -0.01789
C 11.18856 19.16914 0.00444
C 11.14346 17.77028 -0.00925
C 9.89747 17.01171 0.01877
C 9.81382 15.59514 0.01363
C 11.06796 14.89094 -0.02162
C 11.10381 13.4305 0.00415
C 9.79563 12.75521 -0.0014
C 9.78379 11.34803 0.02162
C 9.92927 21.34206 0.02894
C 9.71103 32.70026 0.00985
C 12.44602 15.69549 0.00422
C 13.56929 13.65057 -0.03113
C 15.90068 9.27266 0.02188
C 14.70003 8.49533 -0.01979
C 14.7165 7.00825 0.02691
C 15.97335 6.36213 -0.01581
C 15.99129 4.95508 0.01452
C 14.72951 4.28487 0.04892
C 14.7386 2.84003 -0.00111
C 16.03349 2.18459 -0.03557
C 16.03184 0.67862 0.03754
C 14.75394 0.00186 0.01739
C 17.23468 32.64153 0.00755
C 18.44308 31.91132 -0.0054
C 18.4154 30.46542 0.00667
C 17.18239 29.79813 0.00143
C 17.21271 28.30398 -0.017
C 18.44747 27.65087 0.00364
C 17.08099 11.28514 -0.00831
C 18.38064 10.74346 -0.02957
C 18.39351 9.20373 -0.04422
C 15.93035 10.7106 -0.00316
C 14.70011 11.51816 -0.0331
C 14.6707 12.85573 -0.0258
C 14.75691 25.5634 0.03338
C 12.30645 12.75495 0.02098
C 12.28113 11.35274 0.01848
C 13.49552 10.67271 -0.00619
C 13.57088 9.24657 -0.02162
C 12.34279 8.5434 0.00889
C 12.37073 7.11556 -0.00481
C 13.51761 6.34652 0.00979
C 13.44799 4.91181 0.01443
C 12.23449 4.29019 0.03505
C 13.54065 15.01289 0.0351
C 12.34106 2.87521 -0.02815
C 13.52364 0.66465 -0.05302
C 12.27402 0.00512 0.00213
C 14.68041 32.61204 -0.00066
C 15.96033 31.9627 -0.00289
C 15.94636 30.54143 0.00028
C 14.81062 29.76576 -0.02213
C 14.81447 28.31498 0.03698
C 16.00418 27.56973 -0.00109
C 15.81672 26.17572 -0.00491
C 13.5166 2.11817 -0.04147
C 7.29993 34.07129 -0.01275
C 8.56981 0.72004 -0.01111
C 8.68233 2.12175 0.02841
C 3.65226 5.02912 -0.01343
C 2.46833 4.27008 0.00988
C 2.41841 2.81517 0.0276
C 3.65256 2.17949 0.01305
C 3.68926 0.72679 -0.00077
C 2.48117 34.07821 0.03368
C 4.80449 32.67858 -0.02929
C 6.07632 31.96294 -0.00966
C 6.16071 30.5974 -0.03337
C 4.96193 29.85329 0.01227
C 4.91916 28.4183 0.00873
C 6.18251 27.72028 -0.00049
C 6.21913 26.26918 0.00848
C 4.90861 25.62832 -0.01303
C 4.87127 24.18603 -0.01378
C 6.08684 23.47491 0.02635
C 6.0904 22.05023 0.0127
C 4.8875 21.31027 0.01396
C 4.95965 19.85261 0.01849
C 3.70249 6.4093 0.01087
C 2.40298 7.07075 -0.05697
C 2.43203 8.51252 -0.00725
C 3.69461 9.27601 0.02322
C 3.70435 30.52622 -0.01509
C 2.45373 29.82892 0.03267
C 2.41093 28.423 0.02374
C 3.65029 27.7907 0.00402
C 3.72891 26.35892 0.0073
C 2.52351 25.57138 0.0174
C 2.51477 24.15119 0.03828
C 3.67245 23.42527 0.01226
C 3.65082 21.90954 -0.00279
C 6.20421 19.12945 -0.01142
C 2.29859 21.22743 0.01996
C 3.65692 19.22907 0.01465
C 3.69465 17.82932 -0.00074
C 2.45375 17.1043 -0.00518
C 2.46846 15.64502 0.0086
C 3.71123 14.93302 -0.00643
C 3.69806 13.49127 0.017
C 2.49084 12.84678 -0.03113
C 2.4113 11.42861 -0.02566
C 3.64333 10.68342 -0.00094
C 2.38707 19.86388 -0.03996
C 6.1943 17.71347 -0.00562
C 4.88346 17.06126 -0.00494
C 4.901 15.59097 0.00054
C 8.6152 23.46249 -0.00191
C 8.61726 22.07854 0.00438
C 7.42157 21.34463 0.01291
C 7.45132 19.88765 0.00093
C 8.70015 19.17425 0.00057
C 8.67712 17.68455 -0.01634
C 7.35775 16.98055 -0.00334
C 7.35292 15.5599 0.02339
C 8.56797 14.87458 0.01641
C 7.34915 24.13033 0.00373
C 8.54993 13.51187 -0.00719
C 7.34667 11.3675 -0.01062
C 8.59574 10.64647 -0.00033
C 8.57369 9.25449 0.03589
C 7.31836 8.57763 -0.02759
C 7.36429 7.15249 0.0402
C 8.57885 6.41497 0.00572
C 8.60797 4.96392 0.03592
C 7.35536 4.2838 0.00406
C 7.41394 2.87601 0.00943
C 7.37721 12.81771 0.01364
C 17.13798 8.54775 0.00654
C 7.41189 25.53499 0.02147
C 8.63741 27.76902 -0.01118
C 6.14729 14.93519 0.03007
C 6.14924 13.56735 -0.00095
C 4.98084 12.8412 0.01572
C 4.90724 11.45653 -0.04848
C 6.08154 10.7411 -0.00892
C 6.12582 9.31039 -0.01362
C 4.88642 8.50409 -0.0008
C 4.91375 7.14526 0.0288
C 6.14478 6.42565 0.00393
C 8.65537 26.30074 -0.014
C 6.11351 5.00006 0.00895
C 4.86532 2.93687 0.02888
C 6.11654 2.16652 -0.00482
C 6.08919 0.74576 -0.01384
C 4.85166 0.02681 0.03693
C 7.29407 32.72088 0.01745
C 8.57286 31.99789 0.00488
C 8.64747 30.61591 -0.01004
C 7.36851 29.83888 -0.02896
C 7.40472 28.40765 -0.00131
C 4.88005 4.32922 0.00685
C 17.21528 7.17885 -0.00703
C 18.41696 6.43868 -0.04076
C 18.43848 4.96333 -0.00652
C 29.4284 2.83633 0.02108
C 30.64869 2.1531 0.00716
C 30.70853 0.74196 0.00307
C 29.47731 0.00172 0.00346
C 31.94839 32.67377 0.01713
C 33.16877 31.9772 -0.01694
C 33.17737 30.56185 0.01428
C 31.94807 29.86133 -0.02142
C 31.98525 28.42722 0.0544
C 33.21559 27.72598 0.00026
C 33.21705 26.34575 0.00682
C 32.00519 25.57618 -0.01779
C 31.95926 24.14041 0.03794
C 33.16538 23.52465 0.01927
C 33.16336 22.09796 0.01574
C 31.94911 21.25648 -0.02383
C 32.0281 19.82936 -0.01429
C 33.25428 19.17835 -0.0136
C 33.19246 17.72364 0.00594
C 29.55124 4.28588 0.0103
C 30.7307 4.97619 0.07705
C 30.74653 6.3723 0.01908
C 29.49868 7.12758 0.01518
C 29.55928 28.381 0.00924
C 30.75882 27.70324 0.02326
C 30.78611 26.22555 0.00261
C 29.51155 25.53348 0.03265
C 29.52243 24.16394 -0.02049
C 30.75179 23.39396 -0.01854
C 30.7732 21.97394 -0.01415
C 29.4132 21.28806 -0.03039
C 29.47209 19.91568 0.01836
C 31.94898 16.96686 -0.02474
C 30.78343 19.12372 0.03531
C 29.40105 17.05656 0.0101
C 29.41551 15.63298 0.01705
C 30.66486 14.86901 -0.0405
C 30.77929 13.47359 -0.01303
C 29.57482 12.76467 -0.01461
C 29.57658 11.35648 -0.02155
C 30.74922 10.63144 -0.00944
C 30.7353 9.12602 -0.03735
C 29.4764 8.51405 -0.00971
C 30.67607 17.71788 -0.00669
C 31.93853 15.57578 0.00369
C 33.20615 14.89666 0.00455
C 33.21844 13.46702 -0.00644
C 34.35611 21.38728 -0.02213
C 0.01253 19.93588 0.01951
C 1.17174 19.17693 -0.01678
C 1.19714 17.79192 0.01223
C 34.40887 17.10129 0.00648
C 0.01435 15.63957 0.02114
C 1.28164 14.98651 -0.02957
C 1.29631 13.53021 0.00343
C 0.06316 12.84821 -0.02656
C 1.15012 22.04181 0.02712
C 34.40138 11.34731 -0.02442
C 1.25051 9.2745 -0.00583
C 34.42489 8.55131 -0.02302
C 34.41754 7.08757 -0.02849
C 1.19389 6.3612 0.02931
C 1.24734 4.93249 0.00628
C 34.40361 4.24912 -0.0345
C 34.34791 2.80506 -0.00931
C 1.12607 2.08615 -0.00939
C 1.21926 0.70164 -0.00468
C 1.20636 10.67159 -0.00027
C 29.51934 29.81209 0.0014
C 1.1795 23.49471 0.00723
C 34.4308 25.63395 -0.05239
C 32.02809 12.73886 -0.01839
C 31.97689 11.37926 0.00137
C 33.17925 10.66306 0.00199
C 33.19687 9.23427 0.04381
C 31.94241 8.46623 0.02806
C 31.98876 7.06322 0.01504
C 33.18305 6.3551 -0.00069
C 33.22224 4.95865 0.04926
C 31.96377 4.2945 -0.03838
C 34.40797 24.24239 0.03076
C 31.89265 2.81244 0.00349
C 33.18184 0.71634 -0.00841
C 31.91831 34.05431 0.0001
C 0.02546 32.69456 -0.02927
C 1.21766 31.91583 -0.01404
C 1.22847 30.52567 0.01027
C 34.42329 29.83729 0.01831
C 34.43027 28.41121 -0.01037
C 1.18605 27.73247 -0.00439
C 1.26025 26.28735 -0.00598
C 33.10339 2.10582 -0.00323
C 3.65505 31.92227 0.00643
C 30.72094 30.49362 0.01324
C 29.49293 32.6874 0.01177
C 23.35823 31.88733 0.03374
C 23.36094 30.45569 -0.02845
C 22.10994 29.80068 -0.03213
C 22.14953 28.31929 0.02239
C 23.2962 27.63017 0.01153
C 23.44035 26.28609 0.02734
C 22.15506 11.2897 -0.0055
C 23.38206 10.74489 0.01515
C 23.36673 9.20214 -0.00225
C 22.15 8.43238 0.00071
C 22.10143 7.05022 -0.01107
C 23.32442 6.35633 -0.01586
C 23.38752 4.92599 -0.01971
C 22.16927 4.27696 -0.02118
C 22.08258 2.79847 0.00733
C 23.29299 2.17302 -0.00178
C 23.2789 0.68059 0.00768
C 22.04887 33.9743 -0.0276
C 24.52681 32.58011 0.03005
C 22.0989 32.55985 0.0296
C 19.67002 33.98409 0.03046
C 20.85244 0.64832 -0.00381
C 20.8864 2.09696 0.01852
C 17.23572 4.23957 0.0058
C 17.30017 2.79726 -0.00865
C 18.50174 2.06293 0.00675
C 18.53526 0.63906 -0.00311
C 17.28396 34.06364 0.00742
C 19.69488 32.61331 -0.01594
C 20.90571 31.89277 0.0106
C 20.90356 30.44156 -0.01154
C 19.67606 29.76927 -0.01721
C 25.82049 31.98774 -0.04078
C 19.76422 28.24787 -0.02422
C 19.67764 11.2242 0.00096
C 20.90403 10.70898 -0.01527
C 20.88848 9.2136 0.01087
C 19.65374 8.56141 0.00199
C 19.69141 7.11152 0.01511
C 20.88858 6.37184 -0.00478
C 20.9567 4.95884 -0.01662
C 19.73594 4.27643 -0.01185
C 19.66422 2.84703 0.01126
C 20.978 27.77599 0.01277
C 25.87789 30.49203 0.02117
C 24.6046 29.7913 0.02737
C 24.50509 28.31316 -0.00498
C 27.11028 24.30036 -0.02815
C 28.16582 23.41517 -0.00942
C 28.26643 22.02331 0.00487
C 28.3703 19.12458 0.00826
C 28.28908 17.90914 -0.00294
C 28.31178 14.88108 0.00152
C 28.27918 13.53002 0.01257
C 26.99709 12.85619 0.02316
C 27.06485 11.34809 0.04185
C 27.05524 25.59318 0.00622
C 28.29398 10.67979 0.00194
C 27.01783 8.44537 0.02611
C 27.05845 7.06033 0.02198
C 28.2463 6.40713 0.01094
C 28.3987 5.05285 0.00235
C 27.12029 4.27986 0.01495
C 27.07384 2.85664 0.01259
C 28.20041 2.10221 0.01799
C 28.22949 0.69722 0.01699
C 26.96865 0.01425 -0.00416
C 28.28576 9.22646 -0.00621
C 30.66474 31.94476 0.04266
C 28.30836 26.24696 -0.0032
C 27.06861 28.36766 -0.01654
C 25.76855 27.60468 0.00135
C 25.75598 26.2182 0.03102
C 24.54558 25.66237 0.02555
C 25.70398 13.33865 0.01423
C 24.66969 11.45942 -0.00285
C 25.7836 10.62419 -0.009
C 25.79727 9.2127 -0.01199
C 24.59665 8.4552 -0.00229
C 24.51633 7.02219 -0.00938
C 28.30909 27.68287 -0.00037
C 25.81865 6.32518 -0.0264
C 24.68052 4.3005 0.00684
C 24.63815 2.90695 -0.01052
C 25.79764 2.1575 -0.01679
C 25.72874 0.68705 0.00367
C 24.44495 34.02165 0.04306
C 27.00718 32.68063 0.00996
C 28.2583 31.99382 0.00195
C 28.31113 30.54418 -0.00802
C 27.08335 29.78649 -0.00218
C 25.88494 4.93745 -0.01154
C 2.43624 32.60906 0.00907
