376
Graphene
C 34.35333 0.03117 0.01295
C 9.74528 7.25414 0.03542
C 10.96458 6.41184 0.02299
C 10.96627 4.93116 0.00244
C 9.73055 4.29528 -0.01717
C 9.73312 2.81527 0.05265
C 10.97993 2.17801 -0.01952
C 10.99926 0.79546 -0.02813
C 9.80359 0.08789 0.00374
C 12.33855 32.7211 0.00052
C 13.52826 31.92573 -0.03682
C 13.4879 30.50251 0.01965
C 12.35976 29.83292 0.02058
C 12.28203 28.42351 -0.01957
C 13.54682 27.75118 -0.0108
C 13.53245 26.30308 -0.00368
C 12.29725 25.60406 -0.02696
C 12.28284 24.23007 -0.00114
C 13.56759 23.42987 0.00228
C 13.51051 22.0811 0.00798
C 9.8737 8.59523 0.01416
C 11.03746 9.2269 0.01945
C 11.11702 10.73102 -0.01454
C 9.96504 11.41031 0.01241
C 9.87021 32.68722 -0.00428
C 11.05159 32.01824 0.03101
C 11.08941 30.59549 -0.01536
C 9.77895 29.89189 -0.02689
C 9.75101 28.49673 -0.01046
C 11.01568 27.6964 -0.00891
C 11.04859 26.31328 0.02819
C 9.79513 25.61404 0.00165
C 9.83737 24.17128 -0.02971
C 12.39875 21.26949 0.00422
C 11.04341 23.4114 0.02894
C 9.89595 21.26566 0.00444
C 9.95344 19.82277 -0.00925
C 11.16486 19.05292 0.01877
C 11.07813 17.44523 0.01363
C 9.78455 17.08995 -0.02162
C 9.78666 15.55028 0.00415
C 11.04996 15.02443 -0.0014
C 11.18958 13.60718 0.02162
C 9.85833 12.86044 0.0076
C 11.02267 21.9908 -0.01789
C 7.3955 0.09343 -0.02245
C 12.31522 19.87862 0.0351
C 12.44807 11.36872 0.02098
C 14.63832 8.45766 -0.01979
C 14.6985 7.13501 0.02691
C 15.86756 6.37608 -0.01581
C 15.95184 4.96581 0.01452
C 14.81448 4.27146 0.04892
C 14.7102 2.83565 -0.00111
C 15.92563 2.03975 -0.03557
C 15.96672 0.65056 0.03754
C 14.64792 33.98092 0.01739
C 17.22148 32.56743 0.00755
C 18.42952 31.8569 -0.0054
C 18.45725 30.46044 0.00667
C 17.27423 29.71237 0.00143
C 17.26491 28.23946 -0.017
C 18.46807 27.55633 0.00364
C 18.47487 26.15926 -0.00831
C 17.25892 25.51528 -0.02957
C 17.24244 24.00825 -0.04422
C 18.40302 23.23948 0.00654
C 15.77296 9.27269 0.02188
C 14.69887 21.28679 -0.00316
C 15.86885 21.95397 -0.0331
C 16.05627 23.33645 -0.0258
C 13.60062 10.59035 0.01848
C 13.39782 9.17855 -0.00619
C 12.1601 8.50845 -0.02162
C 12.16243 7.07198 0.00889
C 13.42321 6.31945 -0.00481
C 13.53582 4.88205 0.00979
C 12.25415 4.22166 0.01443
C 12.27013 2.80306 0.03505
C 13.48811 2.08407 -0.02815
C 12.2604 12.83812 -0.03113
C 13.48462 0.68753 -0.04147
C 14.72994 32.54327 0.00213
C 16.03889 31.8075 -0.00066
C 16.02437 30.37717 -0.00289
C 14.79543 29.78903 0.00028
C 14.81171 28.38276 -0.02213
C 15.9817 27.63696 0.03698
C 16.08671 26.25353 -0.00109
C 14.74204 25.69417 -0.00491
C 14.81357 24.15203 0.03338
C 12.25063 0.01104 -0.05302
C 18.22509 9.22994 -0.00703
C 8.57134 0.76475 0.00985
C 7.32421 2.86428 -0.01111
C 3.71231 5.03379 0.0276
C 2.43771 4.35334 0.01305
C 2.3968 2.93222 -0.00077
C 3.60822 2.21986 0.03368
C 3.58079 0.77276 -0.02929
C 2.35837 0.19117 -0.00966
C 4.85357 32.70543 -0.03337
C 6.12514 31.95424 0.01227
C 6.09334 30.59948 0.00873
C 4.86508 29.92025 -0.00049
C 4.81212 28.50307 0.00848
C 6.06914 27.80062 -0.01303
C 6.08061 26.28562 -0.01378
C 4.94622 25.53229 0.02635
C 4.90918 24.22362 0.0127
C 6.19531 23.45818 0.01396
C 6.18311 22.03527 0.01849
C 4.95379 21.39287 -0.01142
C 4.94616 19.95736 -0.00562
C 3.62582 6.47151 0.00988
C 2.36366 7.30789 -0.01343
C 2.34102 8.62567 0.01087
C 3.63951 9.23439 -0.05697
C 3.61423 30.69595 0.02374
C 2.42937 29.89164 0.00402
C 2.43249 28.47494 0.0073
C 3.62807 27.63994 0.0174
C 3.6917 26.28112 0.03828
C 2.37252 25.61481 0.01226
C 2.38467 24.1479 -0.00279
C 3.65905 23.55469 0.01996
C 3.70432 22.13086 -0.03996
C 6.19464 19.31434 -0.00494
C 2.52705 21.35401 0.01465
C 3.67352 19.23068 -0.00518
C 3.7433 17.86131 0.0086
C 2.44974 17.16148 -0.00643
C 2.46256 15.67147 0.017
C 3.71418 15.01658 -0.03113
C 3.64241 13.58217 -0.02566
C 2.47191 12.84443 -0.00094
C 2.41948 11.47854 0.02322
C 3.58694 10.6892 -0.00725
C 2.4639 19.94162 -0.00074
C 8.59811 2.16197 -0.01275
C 6.218 17.88309 0.00054
C 4.9584 15.69531 -0.00095
C 8.61682 23.45029 0.01291
C 8.61965 21.95015 0.00093
C 7.40151 21.28738 0.00057
C 7.42625 19.90499 -0.01634
C 8.60717 19.21728 -0.00334
C 8.57121 17.82418 0.02339
C 7.41531 17.2085 0.01641
C 7.30995 15.7251 -0.00719
C 8.49149 14.88851 0.01364
C 8.60628 13.56128 -0.01062
C 7.28202 12.85104 -0.00033
C 7.39321 11.42763 0.03589
C 8.6933 10.69789 -0.02759
C 8.59421 9.33923 0.0402
C 7.36622 8.57875 0.00572
C 7.37648 7.12974 0.03592
C 8.60794 6.49012 0.00406
C 8.63282 5.07877 0.00943
C 7.35955 4.36884 0.02841
C 7.33211 24.21481 0.00438
C 7.32865 25.62809 -0.00191
C 8.61458 26.27689 0.00373
C 8.57398 27.70932 0.02147
C 6.12048 14.9206 0.01572
C 6.12236 13.56713 -0.04848
C 4.85322 12.84921 -0.00892
C 4.8447 11.35656 -0.01362
C 6.1336 10.66017 -0.0008
C 6.06612 9.24525 0.0288
C 4.90453 8.53945 0.00393
C 4.77053 7.09764 0.00895
C 6.04271 6.49033 0.00685
C 5.00668 17.1324 0.03007
C 6.10423 5.03792 0.02888
C 4.82297 2.85104 -0.01384
C 6.05285 2.22497 0.03693
C 6.15683 0.75177 0.01745
C 4.8547 0.07446 0.00488
C 7.40806 32.74317 -0.01004
C 8.62475 32.04588 -0.02896
C 8.53815 30.61957 -0.00131
C 7.30607 29.90106 -0.01118
C 7.36527 28.48212 -0.014
C 4.87826 4.36007 -0.00482
C 16.97132 8.60153 -0.04076
C 17.05038 7.10634 -0.00652
C 18.32961 6.39362 0.0058
C 30.64085 2.07896 0.00716
C 30.69618 0.69814 0.00307
C 29.35667 0.08867 0.00346
C 31.85913 32.67085 0.01713
C 33.10945 31.94059 -0.01694
C 33.07384 30.61374 0.01428
C 31.82364 29.87463 -0.02142
C 31.92827 28.52571 0.0544
C 33.18 27.71165 0.00026
C 33.19921 26.30327 0.00682
C 31.93659 25.55598 -0.01779
C 31.90324 24.06875 0.03794
C 33.15647 23.42492 0.01927
C 33.21242 22.00029 0.01574
C 31.97519 21.31815 -0.02383
C 31.97606 19.81619 -0.01429
C 33.19947 19.15255 -0.0136
C 33.18226 17.7636 0.00594
C 31.90176 17.03812 -0.02474
C 29.3859 2.78225 0.02108
C 29.42864 4.22416 0.0103
C 30.65463 5.0202 0.07705
C 30.6107 6.42147 0.01908
C 28.10853 0.76976 0.02326
C 27.00461 34.05258 0.00261
C 29.39159 32.72466 0.03265
C 30.61406 32.00127 -0.02049
C 30.62319 30.6242 -0.01854
C 29.47996 29.85462 -0.01415
C 29.54029 28.47152 -0.03039
C 30.70886 27.79309 0.01836
C 30.75825 26.28884 0.03531
C 32.04886 15.66043 0.00369
C 29.50946 25.58923 -0.00669
C 30.71331 23.41117 0.01705
C 30.70846 22.01522 -0.0405
C 29.51551 21.18461 -0.01303
C 29.45631 19.83222 -0.01461
C 30.63778 19.19696 -0.02155
C 30.64984 17.69812 -0.00944
C 29.5303 16.82385 -0.03735
C 29.61826 15.39572 -0.00971
C 30.85622 14.92716 0.01518
C 29.45061 24.17277 0.0101
C 28.07301 2.1471 0.00924
C 33.31768 14.95031 0.00455
C 32.05498 12.96361 -0.01839
C 0.05262 19.88975 0.01951
C 1.26066 19.23442 -0.01678
C 1.17647 17.84522 0.01223
C 0.01895 17.13341 0.00648
C 0.03582 15.71383 0.02114
C 1.27547 14.9313 -0.02957
C 1.25163 13.57556 0.00343
C 34.40126 12.87192 -0.02656
C 34.35665 11.42102 -0.02442
C 1.1945 10.71415 -0.00027
C 1.18048 9.32483 -0.00583
C 34.35191 8.58489 -0.02302
C 34.29704 7.18186 -0.02849
C 1.13685 6.46811 0.02931
C 1.14517 5.0761 0.00628
C 34.28314 4.34599 -0.0345
C 34.30031 2.96406 -0.00931
C 1.06741 2.2362 -0.00939
C 1.18073 0.83542 -0.00468
C 0.0413 21.28999 -0.02213
C 1.181 22.01817 0.02712
C 1.17751 23.40589 0.00723
C 34.33678 24.23006 0.03076
C 32.01949 11.62956 0.00137
C 33.06641 10.77298 0.00199
C 33.08504 9.30972 0.04381
C 31.88506 8.61219 0.02806
C 31.79757 7.19209 0.01504
C 33.06085 6.5094 -0.00069
C 33.0667 5.08355 0.04926
C 31.87766 4.32902 -0.03838
C 31.84874 2.87323 0.00349
C 33.20748 13.56671 -0.00644
C 33.12743 2.21966 -0.00323
C 31.93802 34.04231 0.0001
C 34.34053 32.67632 -0.02927
C 1.17846 32.0065 -0.01404
C 1.12993 30.50461 0.01027
C 34.27347 29.82069 0.01831
C 34.39838 28.35254 -0.01037
C 1.23271 27.74247 -0.00439
C 1.19207 26.3496 -0.00598
C 34.42007 25.60001 -0.05239
C 33.16077 0.78344 -0.00841
C 26.94122 2.92742 0.0014
C 26.9438 4.56802 0.01324
C 28.32011 5.0561 0.04266
C 19.61035 2.81636 -0.02845
C 20.73641 2.05255 -0.03213
C 20.83942 0.64682 0.02239
C 19.63164 34.00355 0.01153
C 22.08774 32.59408 0.02734
C 23.37402 31.91529 -0.0055
C 23.3574 30.42744 0.01515
C 22.15558 29.68251 -0.00225
C 22.13862 28.25811 0.00071
C 23.31845 27.53712 -0.01107
C 23.37136 26.12798 -0.01586
C 22.09174 25.3935 -0.01971
C 22.13854 24.00538 -0.02118
C 23.36675 23.35272 0.00733
C 23.44798 21.93796 -0.00178
C 22.399 20.93373 0.00768
C 23.15469 19.52784 -0.0276
C 21.61114 11.91059 0.03005
C 21.88336 8.40639 -0.04078
C 19.63242 4.34259 0.03374
C 20.8996 4.99279 0.0296
C 20.89212 6.42919 0.03046
C 19.59879 7.13349 -0.00381
C 18.41758 4.94123 -0.00865
C 17.16639 4.24963 0.00675
C 17.15596 2.77998 -0.00311
C 18.40685 2.08104 0.00742
C 18.37622 0.70356 -0.01594
C 17.17831 34.02281 0.0106
C 19.59342 32.61027 -0.01154
C 20.91943 31.81293 -0.01721
C 20.91306 30.41761 -0.02422
C 22.21925 7.03278 0.02117
C 19.69341 29.66301 0.01277
C 20.92263 27.53325 -0.01527
C 20.82012 26.04918 0.01087
C 19.68027 25.3756 0.00199
C 19.67462 23.85016 0.01511
C 21.00974 23.17356 -0.00478
C 21.16049 21.73688 -0.01662
C 21.2605 10.60157 -0.01185
C 20.78857 9.32874 0.01126
C 19.44201 8.54912 0.01852
C 19.6641 28.23941 0.00096
C 23.42865 6.25383 0.02737
C 23.30424 4.88415 -0.00498
C 22.06814 4.24647 0.00135
C 25.68336 2.20502 -0.00942
C 25.82837 0.71387 0.00487
C 24.5655 34.04154 0.00826
C 26.99329 32.62385 -0.00294
C 28.23149 31.95395 0.00152
C 28.28086 30.53591 0.01257
C 27.06006 29.77029 0.02316
C 27.01995 28.35973 0.04185
C 28.25012 27.67289 0.00194
C 24.47597 2.73056 -0.02815
C 28.21248 26.25157 -0.00621
C 27.02122 24.07442 0.02198
C 28.21707 23.44542 0.01094
C 28.23028 22.00489 0.00235
C 27.16783 21.19269 0.01495
C 27.08006 19.80394 0.01259
C 28.26704 19.15889 0.01799
C 28.2528 17.67719 0.01699
C 27.02061 16.91181 -0.00416
C 27.2717 15.57884 0.01177
C 27.02755 25.51572 0.02611
C 3.61526 32.07493 0.03267
C 24.51813 4.2033 0.00622
C 23.93389 15.95724 -0.00037
C 22.009 2.86176 0.03102
C 23.19717 2.10289 0.02555
C 23.35761 0.67176 0.01423
C 22.04521 33.98672 -0.00285
C 24.54513 32.61079 -0.009
C 25.7737 31.91088 -0.01199
C 25.7659 30.47746 -0.00229
C 24.61431 29.71753 -0.00938
C 24.52746 28.33278 -0.0264
C 25.67004 4.96113 -0.0032
C 25.7972 27.69988 -0.01154
C 24.62619 25.48198 -0.01052
C 24.63697 24.04835 -0.01679
C 25.85113 23.33549 0.00367
C 25.89149 21.84275 0.04306
C 24.61849 21.24916 0.00996
C 24.57177 19.7957 0.00195
C 25.85205 19.16645 -0.00802
C 25.68779 17.74797 -0.00218
C 24.54159 17.20832 -0.01654
C 25.85693 26.23071 0.00684
C 2.28929 32.7517 -0.01509
