409
Graphene
C 34.40608 34.06442 0.01295
C 12.30174 29.88602 -0.01536
C 12.24539 28.39428 -0.02689
C 13.42505 27.70103 -0.01046
C 13.53734 26.35548 -0.00891
C 12.31097 25.63931 0.02819
C 12.31497 24.20924 0.00165
C 13.47802 23.35843 -0.02971
C 13.42783 21.90825 0.02894
C 12.26 21.22318 -0.01789
C 12.33761 19.76498 0.00444
C 13.5944 19.0959 -0.00925
C 13.60902 17.7366 0.01877
C 12.36239 17.0678 0.01363
C 12.25778 15.688 -0.02162
C 13.54536 14.84353 0.00415
C 13.5192 13.47401 -0.0014
C 12.3248 12.69593 0.02162
C 12.37864 11.25517 0.0076
C 13.55035 10.63332 0.01241
C 13.48666 9.20941 -0.01454
C 12.23701 8.43002 0.01945
C 13.52504 30.59005 0.03101
C 13.40051 31.96164 -0.00428
C 12.20777 32.76458 -0.02245
C 9.75531 0.0922 0.00985
C 11.12732 23.43915 0.00438
C 11.10897 21.98156 0.01291
C 9.80726 21.32959 0.00093
C 9.77124 19.88726 0.00057
C 11.04922 19.15445 -0.01634
C 11.1425 17.75262 -0.00334
C 9.90375 17.08164 0.02339
C 9.83429 15.71576 0.01641
C 11.04773 14.91295 -0.00719
C 11.11815 13.49622 0.01364
C 12.27178 7.03217 0.01416
C 9.83685 12.78761 -0.01062
C 11.01192 10.59822 0.03589
C 11.02912 9.23741 -0.02759
C 9.80895 8.49209 0.0402
C 9.80192 7.15914 0.00572
C 11.10681 6.36163 0.03592
C 11.14182 4.98154 0.00406
C 9.84135 4.34237 0.00943
C 9.8518 2.93703 0.02841
C 11.0483 2.24733 -0.01111
C 11.05436 0.77499 -0.01275
C 9.88157 11.39455 -0.00033
C 9.90406 24.08145 -0.00191
C 13.55455 6.37827 0.03542
C 12.37242 4.24367 0.00244
C 15.9356 9.26225 0.01443
C 14.73327 8.53011 0.03505
C 14.76123 7.10447 -0.02815
C 16.02583 6.46452 -0.04147
C 16.08855 4.94221 -0.05302
C 14.8884 4.24727 0.00213
C 14.80371 2.78642 -0.00066
C 16.0458 2.04607 -0.00289
C 15.95324 0.64103 0.00028
C 14.73681 34.06798 -0.02213
C 17.22256 32.58157 0.03698
C 18.4135 31.91328 -0.00109
C 18.38905 30.50992 -0.00491
C 17.14307 29.84433 0.03338
C 17.11333 28.47126 -0.0258
C 18.35496 27.73267 -0.0331
C 18.43034 26.25871 -0.00316
C 17.1558 25.56101 0.02188
C 17.169 24.12744 -0.01979
C 18.44223 23.3929 0.02691
C 18.51193 21.95505 -0.01581
C 16.01971 10.67471 0.00979
C 14.81438 11.35053 -0.00481
C 14.7627 12.80289 0.00889
C 16.0228 13.51554 -0.02162
C 12.32424 2.89876 -0.01717
C 13.5422 2.13373 0.05265
C 13.53731 0.74443 -0.01952
C 12.21914 0.12196 -0.02813
C 14.63034 32.6988 0.00374
C 15.90874 31.97936 0.00052
C 15.91207 30.55317 -0.03682
C 14.71094 29.8345 0.01965
C 14.70084 28.43749 0.02058
C 15.88656 27.70264 -0.01957
C 13.57068 4.94327 0.02299
C 15.94984 26.3035 -0.0108
C 14.69613 24.11204 -0.02696
C 15.97367 23.38897 -0.00114
C 15.94322 21.96219 0.00228
C 14.72249 21.28507 0.00798
C 14.79964 19.87865 0.00422
C 15.99181 19.24516 0.0351
C 16.01137 17.81221 -0.03113
C 14.80524 17.06725 0.02098
C 14.75407 15.61881 0.01848
C 15.94653 14.9216 -0.00619
C 14.73712 25.48932 -0.00368
C 9.85886 25.5065 0.00373
C 11.08312 26.29075 0.02147
C 11.00137 27.74165 -0.014
C 2.38876 2.85091 -0.003
C 3.61153 2.18253 0.01402
C 3.61861 0.71625 0.02379
C 2.43147 34.0206 0.00907
C 4.85989 32.69886 0.00643
C 6.12043 32.00971 -0.01509
C 6.05622 30.61606 0.03267
C 4.84478 29.86348 0.02374
C 4.85135 28.48686 0.00402
C 6.13221 27.73435 0.0073
C 6.12866 26.28764 0.0174
C 4.92528 25.56528 0.03828
C 4.98321 24.19688 0.01226
C 6.27236 23.43199 -0.00279
C 6.16675 22.0655 0.01996
C 4.87348 21.31603 -0.03996
C 4.817 19.90435 0.01465
C 6.0583 19.2226 -0.00074
C 6.13876 17.72893 -0.00518
C 4.94303 17.04208 0.0086
C 4.94584 15.63401 -0.00643
C 2.43097 4.28199 0.00031
C 3.68285 4.96368 0.03189
C 3.71577 6.38198 -0.04307
C 2.40063 7.05737 0.03284
C 3.59418 30.56863 -0.02375
C 2.24743 29.85801 0.00558
C 2.38656 28.4671 -0.0059
C 3.63092 27.81746 -0.01386
C 3.65234 26.32572 -0.02805
C 2.48652 25.58201 0.00081
C 2.46912 24.0928 0.00245
C 3.74701 23.40485 0.02728
C 3.73633 21.99493 -0.00039
C 2.45682 21.35042 0.0064
C 6.15118 14.79073 0.017
C 2.41448 19.93456 0.00211
C 3.6829 17.76169 -0.01979
C 2.49422 17.08181 0.02784
C 2.42655 15.62937 -0.01977
C 3.68308 14.97601 -0.00561
C 3.70999 13.5777 0.00208
C 2.47928 12.80281 0.01707
C 2.47358 11.3708 0.02769
C 3.66789 10.60121 -0.03291
C 3.60853 9.23437 -0.04999
C 2.37038 8.46543 0.04505
C 3.65473 19.17816 -0.00449
C 6.12975 13.41431 -0.03113
C 4.82833 12.74958 -0.02566
C 4.9372 11.31884 -0.00094
C 7.35074 17.03403 0.00054
C 7.29166 15.62631 0.03007
C 8.61237 14.97002 -0.00095
C 8.64935 13.52857 0.01572
C 7.38215 12.76496 -0.04848
C 7.37392 11.37673 -0.00892
C 8.64306 10.71897 -0.01362
C 8.61384 9.2671 -0.0008
C 7.39228 8.61407 0.0288
C 7.38345 7.17791 0.00393
C 8.57747 17.82801 -0.00494
C 8.5594 6.4541 0.00895
C 7.40301 4.37367 0.02888
C 7.32463 2.95696 -0.00482
C 8.62308 2.25508 -0.01384
C 8.57589 0.85042 0.03693
C 7.34617 0.08628 0.01745
C 9.77376 32.72585 0.00488
C 10.96247 31.98781 -0.01004
C 11.11205 30.55365 -0.02896
C 9.83966 29.87426 -0.00131
C 9.77358 28.43957 -0.01118
C 8.65326 5.05536 0.00685
C 17.23613 21.33319 0.01452
C 8.51599 19.23165 -0.00562
C 7.33201 21.28808 0.01849
C 6.15017 10.66097 0.02322
C 6.09702 9.25625 -0.00725
C 4.88901 8.47023 -0.05697
C 4.89931 7.08939 0.01087
C 6.09128 6.43828 -0.01343
C 6.15152 5.05818 0.00988
C 4.96467 4.23079 0.0276
C 4.90447 2.8608 0.01305
C 6.11922 2.19547 -0.00077
C 6.12177 0.75538 0.03368
C 7.25399 19.92632 -0.01142
C 4.86944 0.10037 -0.02929
C 8.54788 32.00784 -0.03337
C 8.5828 30.49163 0.01227
C 7.32725 29.83959 0.00873
C 7.3578 28.38479 -0.00049
C 8.59953 27.72351 0.00848
C 8.61043 26.23616 -0.01303
C 7.35208 25.57038 -0.01378
C 7.44751 24.21253 0.02635
C 8.62317 23.3941 0.0127
C 8.58306 22.0474 0.01396
C 7.35418 32.71285 -0.00966
C 3.65659 31.93134 0.00828
C 17.25723 19.92243 0.04892
C 18.46376 17.73381 -0.03557
C 29.56638 11.31745 -0.00971
C 30.62954 10.55615 0.01518
C 30.75968 9.17195 0.01908
C 30.76646 6.26411 0.07705
C 30.88811 5.05365 0.0103
C 29.41739 2.70809 0.02108
C 30.69585 2.20879 0.00716
C 30.772 0.73698 0.00307
C 29.4898 0.02655 0.00346
C 32.05757 32.64677 0.01713
C 33.25581 31.94067 -0.01694
C 33.15653 30.48542 0.01428
C 31.93217 29.83497 -0.02142
C 31.97332 28.45304 0.0544
C 33.19175 27.5529 0.00026
C 33.17288 26.21529 0.00682
C 31.99691 25.52599 -0.01779
C 31.90715 24.0715 0.03794
C 33.13923 23.47988 0.01927
C 33.13775 22.02935 0.01574
C 31.88125 21.30528 -0.02383
C 29.55058 12.66369 -0.03735
C 30.73604 13.46207 -0.00944
C 30.72425 14.84673 -0.02155
C 29.46372 15.58591 -0.01461
C 28.2769 14.89949 0.01799
C 28.35501 13.38823 0.01699
C 27.176 12.72344 -0.00416
C 28.36379 2.12756 0.01177
C 28.26857 0.79213 0.04266
C 27.08942 0.05077 0.01324
C 29.50365 32.6704 0.0014
C 30.72485 31.96427 0.00924
C 30.73502 30.61668 0.02326
C 29.5132 29.80852 0.00261
C 31.86168 19.86059 -0.01429
C 29.54507 28.44062 0.03265
C 30.80638 26.284 -0.01854
C 29.52963 25.53439 -0.01415
C 29.47742 24.15606 -0.03039
C 30.7112 23.45465 0.01836
C 30.70692 22.01889 0.03531
C 29.51128 21.31418 -0.00669
C 29.46252 19.83923 0.0101
C 30.67995 19.15378 0.01705
C 30.66268 17.65497 -0.0405
C 29.41088 16.9826 -0.01303
C 30.72725 27.72632 -0.02049
C 27.03372 15.53325 0.01259
C 33.14426 19.20536 -0.0136
C 31.95618 17.01863 -0.02474
C 1.19291 22.02835 0.02712
C 34.36661 21.38414 -0.02213
C 34.36371 19.85701 0.01951
C 1.15973 19.15371 -0.01678
C 1.23872 17.77098 0.01223
C 34.42672 17.07724 0.00648
C 34.36864 15.63508 0.02114
C 1.19336 14.90896 -0.02957
C 1.27257 13.47575 0.00343
C 0.03447 12.80297 -0.02656
C 0.01885 11.33022 -0.02442
C 1.31445 10.64956 -0.00027
C 1.21413 9.29196 -0.00583
C 34.43161 8.56853 -0.02302
C 34.41753 7.16874 -0.02849
C 1.19299 6.46361 0.02931
C 1.1925 5.01143 0.00628
C 34.42638 4.26458 -0.0345
C 34.40065 2.81757 -0.00931
C 1.18558 2.08958 -0.00939
C 1.229 0.6546 -0.00468
C 1.2072 23.43318 0.00723
C 34.40292 24.07609 0.03076
C 0.0176 25.56442 -0.05239
C 1.24181 26.22743 -0.00598
C 31.95743 15.61454 0.00369
C 33.114 14.84877 0.00455
C 33.19407 13.43374 -0.00644
C 32.0192 12.7552 -0.01839
C 31.98329 11.30816 0.00137
C 33.18702 10.61385 0.00199
C 33.1771 9.25549 0.04381
C 31.91693 8.47065 0.02806
C 31.92859 7.06953 0.01504
C 33.18456 6.36383 -0.00069
C 33.18584 17.75813 0.00594
C 33.21183 4.93425 0.04926
C 31.95019 2.77516 0.00349
C 33.22417 2.08317 -0.00323
C 33.19738 0.68065 -0.00841
C 31.96455 34.01256 0.0001
C 34.41823 32.71207 -0.02927
C 1.15566 31.89445 -0.01404
C 1.05807 30.54513 0.01027
C 34.36444 29.73172 0.01831
C 34.34917 28.32322 -0.01037
C 1.22856 27.6622 -0.00439
C 31.92973 4.18476 -0.03838
C 26.94008 16.98889 0.01495
C 28.2152 17.70696 0.00235
C 28.21661 19.20003 0.01094
C 20.89673 23.43069 0.00096
C 20.92123 21.99427 -0.01527
C 19.70128 21.22774 0.01087
C 19.69449 19.80497 0.00199
C 20.9708 19.15816 0.01511
C 20.92472 17.69881 -0.00478
C 19.70314 17.00305 -0.01662
C 19.66882 15.56713 -0.01185
C 20.88909 14.92797 0.01126
C 20.8922 13.53139 0.01852
C 19.71747 12.717 -0.00381
C 19.68008 11.38368 0.03046
C 19.86163 2.83882 0.0296
C 20.89908 2.07965 0.03374
C 20.98264 0.76545 -0.02845
C 19.6776 0.03351 -0.03213
C 22.08382 32.5794 0.02239
C 23.3449 31.98252 0.01153
C 23.4111 30.59439 0.02734
C 22.1292 29.89988 -0.0055
C 22.20611 28.42027 0.01515
C 19.68176 24.10322 0.01277
C 19.62737 25.62951 -0.02422
C 20.86449 26.29804 -0.01721
C 20.91638 27.70302 -0.01154
C 17.18595 17.08772 0.03754
C 17.14258 15.70973 0.01739
C 18.35958 14.9038 0.00755
C 18.45444 13.48057 -0.0054
C 17.23996 12.82502 0.00667
C 17.19612 11.40443 0.00143
C 18.50382 10.60606 -0.017
C 18.47059 9.25556 0.00364
C 17.22255 8.56163 -0.00831
C 17.29597 7.1707 -0.02957
C 23.37624 27.64579 -0.00225
C 18.23433 6.19577 -0.04422
C 17.32915 4.25566 -0.00703
C 17.3038 2.85697 -0.04076
C 18.46699 2.19162 -0.00652
C 18.53784 0.76986 0.0058
C 17.26798 34.03981 -0.00865
C 19.57152 32.67796 0.00675
C 20.86261 31.91623 -0.00311
C 20.84698 30.51263 0.00742
C 19.62372 29.77896 -0.01594
C 19.63722 28.37925 0.0106
C 18.50633 4.95258 0.00654
C 23.34208 26.22879 0.00071
C 22.01536 25.54114 -0.01107
C 22.11045 24.12628 -0.01586
C 25.78106 19.17143 0.04306
C 25.79946 17.72836 0.00996
C 24.56364 17.0205 0.00195
C 24.56265 15.57114 -0.00802
C 25.7771 14.78914 -0.00218
C 25.91181 13.22319 -0.01654
C 24.61435 12.81845 -0.00037
C 25.86834 0.61794 -0.0032
C 24.63713 0.13813 0.00622
C 27.05961 32.64726 -0.02815
C 24.562 19.84273 0.00367
C 28.28901 31.94705 -0.00942
C 27.0208 29.797 0.00826
C 27.04396 28.34167 -0.00294
C 28.30625 27.72632 0.00152
C 28.32124 26.32924 0.01257
C 27.04044 25.59008 0.02316
C 27.05234 24.18777 0.04185
C 28.30379 23.43248 0.00194
C 28.31315 22.03309 -0.00621
C 27.08992 21.25875 0.02611
C 26.97863 19.87868 0.02198
C 28.27852 30.47901 0.00487
C 18.43402 19.15645 -0.00111
C 24.6188 21.31763 -0.01679
C 25.84577 23.47945 0.00684
C 23.3234 23.41686 -0.01971
C 23.42414 22.03462 -0.02118
C 22.19554 21.32722 0.00733
C 22.14877 19.95842 -0.00178
C 23.39851 19.17832 0.00768
C 23.3432 17.75351 -0.0276
C 22.13228 17.05007 0.03005
C 22.15344 15.6309 -0.04078
C 23.35039 14.88281 0.02117
C 23.41074 13.31152 0.02737
C 25.83222 22.06276 -0.01052
C 22.15488 12.84232 -0.00498
C 22.18638 0.0216 0.03102
C 24.64373 32.68401 0.02555
C 25.85974 31.93544 0.01423
C 25.77118 30.50564 -0.00285
C 24.61014 29.77284 -0.009
C 24.5785 28.34535 -0.01199
C 25.8533 27.65542 -0.00229
C 25.78689 26.23967 -0.00938
C 24.50642 25.55238 -0.0264
C 24.54221 24.12843 -0.01154
C 23.35513 0.65801 0.00135
C 2.45076 32.63128 0.00088
