356
Graphene
C 34.41324 0.00979 0.01295
C 9.84306 0.06058 -0.0108
C 12.26907 32.69744 -0.00368
C 13.52689 31.96651 -0.02696
C 13.48698 30.48766 -0.00114
C 12.30715 29.76852 0.00228
C 12.30302 28.37013 0.00798
C 13.48243 27.61014 0.00422
C 13.34185 26.14164 0.0351
C 11.04226 0.68033 -0.01957
C 12.17436 25.43911 -0.03113
C 12.37942 8.45629 0.01848
C 12.33118 6.98535 -0.00619
C 13.56274 6.35544 -0.02162
C 13.52158 4.9319 0.00889
C 12.2945 4.22314 -0.00481
C 12.23809 2.75155 0.00979
C 13.53596 2.09055 0.01443
C 13.50338 0.7384 0.03505
C 13.50649 9.23969 0.02098
C 12.23409 0.03963 -0.02815
C 10.91184 2.16913 0.02058
C 9.80058 4.2525 -0.03682
C 8.51855 0.76238 -0.02162
C 7.32062 0.04031 0.00415
C 9.75809 32.76435 -0.0014
C 10.99027 31.98735 0.02162
C 11.06568 30.54344 0.0076
C 9.79744 29.83488 0.01241
C 9.81368 28.45202 -0.01454
C 11.07953 27.66632 0.01945
C 9.74547 2.90531 0.01965
C 11.00878 26.33698 0.01416
C 9.88952 24.30902 0.02299
C 9.93254 11.28406 0.00244
C 10.89556 10.60201 -0.01717
C 11.09046 9.07563 0.05265
C 9.87079 8.54048 -0.01952
C 9.9611 7.0681 -0.02813
C 11.0892 6.26596 0.00374
C 11.09829 4.90782 0.00052
C 9.76982 25.68347 0.03542
C 14.71682 32.65647 -0.04147
C 16.02273 31.92939 -0.05302
C 15.9082 30.58534 0.00213
C 17.2614 7.12264 0.00667
C 18.4059 6.34112 0.00143
C 18.3839 4.98152 -0.017
C 17.15161 4.21649 0.00364
C 17.17237 2.75222 -0.00831
C 18.39424 2.11104 -0.02957
C 18.37897 0.74089 -0.04422
C 17.15415 34.03272 0.00654
C 17.26888 8.64602 -0.0054
C 19.69713 32.61483 -0.00703
C 20.8819 30.3477 -0.00652
C 19.68409 29.71182 0.0058
C 19.66005 28.23544 -0.00865
C 20.95628 27.65779 0.00675
C 20.8945 10.61542 -0.00311
C 20.94683 9.14643 0.00742
C 19.64843 8.4804 -0.01594
C 19.56829 7.00921 0.0106
C 20.88936 31.79068 -0.04076
C 18.65558 9.35858 0.00755
C 18.33297 27.739 0.01739
C 17.21458 28.54005 0.03754
C 14.6459 29.78203 -0.00066
C 14.69147 28.43251 -0.00289
C 16.01121 27.73454 0.00028
C 15.79844 26.36786 -0.02213
C 14.70823 25.56358 0.03698
C 16.04341 9.3517 -0.00109
C 14.75411 8.60328 -0.00491
C 14.7784 7.11252 0.03338
C 16.02006 6.39722 -0.0258
C 15.9778 4.97929 -0.0331
C 14.75784 4.21799 -0.00316
C 14.76138 2.85512 0.02188
C 15.95025 2.10118 -0.01979
C 15.96899 0.65168 0.02691
C 14.68168 0.03105 -0.01581
C 17.20999 32.62627 0.01452
C 18.44024 31.92087 0.04892
C 18.44393 30.46505 -0.00111
C 17.13674 29.96681 -0.03557
C 8.50151 2.11868 0.01363
C 20.8664 6.31343 -0.01154
C 7.31242 2.89386 0.01877
C 8.61195 5.04049 0.00444
C 2.44287 7.21847 -0.00562
C 3.63007 6.53722 -0.00494
C 3.61024 5.08491 0.00054
C 2.44606 4.36336 0.03007
C 2.41093 2.92937 -0.00095
C 3.62658 2.19369 0.01572
C 3.68604 0.71091 -0.04848
C 2.40083 0.08037 -0.00892
C 2.45004 8.64687 -0.01142
C 4.86424 32.67975 -0.01362
C 6.18452 30.51538 0.0288
C 4.9318 29.87912 0.00393
C 4.92212 28.43445 0.00895
C 6.19479 27.69219 0.00685
C 6.21546 26.29345 0.02888
C 4.95225 25.66014 -0.00482
C 4.98155 24.15136 -0.01384
C 6.25132 23.42123 0.03693
C 6.11699 31.97568 -0.0008
C 6.23295 21.97985 0.01745
C 3.67773 9.32971 0.01849
C 2.46978 11.36829 0.0127
C 3.69191 30.56985 -0.05697
C 2.46013 29.84416 0.01087
C 2.38616 28.40604 -0.01343
C 3.73485 27.694 0.00988
C 3.7278 26.31559 0.0276
C 2.45291 25.54863 0.01305
C 2.43478 24.14165 -0.00077
C 3.68291 23.41602 0.03368
C 3.69661 10.69426 0.01396
C 3.72932 22.09707 -0.02929
C 2.40292 19.88679 -0.03337
C 3.62428 19.15492 0.01227
C 3.70303 17.76243 0.00873
C 2.47775 17.13522 -0.00049
C 2.45621 15.67736 0.00848
C 3.67828 14.94429 -0.01303
C 3.6599 13.53045 -0.01378
C 2.42966 12.89026 0.02635
C 2.45 21.30462 -0.00966
C 4.99245 21.27987 0.00488
C 4.85456 19.89087 -0.01004
C 6.08665 19.20125 -0.02896
C 8.63007 27.78558 0.00406
C 8.53311 26.41642 0.00943
C 7.43194 25.56204 0.02841
C 7.51292 24.16945 -0.01111
C 8.71105 23.39355 -0.01275
C 8.58299 22.04996 0.00985
C 7.42775 21.2499 -0.02245
C 7.43585 19.68882 -0.00428
C 7.4096 28.46492 0.03592
C 7.33836 16.94478 0.03101
C 8.59948 13.69698 -0.02689
C 7.50992 12.89123 -0.01046
C 7.41208 11.44479 -0.00891
C 8.62454 10.77472 0.02819
C 8.64158 9.22167 0.00165
C 7.43582 8.59416 -0.02971
C 7.33104 7.21061 0.02894
C 8.54313 6.4367 -0.01789
C 7.4631 15.70155 -0.01536
C 7.3927 29.87866 0.00572
C 8.55928 30.57921 0.0402
C 8.55655 31.98914 -0.02759
C 6.05697 17.7813 -0.00131
C 4.89472 17.05006 -0.01118
C 4.98194 15.61643 -0.014
C 6.12036 14.90036 0.02147
C 6.18327 13.53686 0.00373
C 5.00392 12.82423 -0.00191
C 4.96237 11.40081 0.00438
C 6.1974 10.66716 0.01291
C 6.18498 9.20867 0.00093
C 4.92314 8.61425 0.00057
C 4.90122 7.15927 -0.01634
C 6.12987 6.42632 -0.00334
C 6.06653 5.0206 0.02339
C 4.8264 4.3057 0.01641
C 4.82997 2.86959 -0.00719
C 6.11406 2.13995 0.01364
C 6.12592 0.72689 -0.01062
C 4.93817 34.07675 -0.00033
C 7.29515 32.66403 0.03589
C 7.35014 4.34789 -0.00925
C 20.87427 4.90454 -0.01721
C 19.65641 4.19167 -0.02422
C 19.59836 2.79945 0.01277
C 31.97444 32.77242 0.01713
C 33.22995 32.01805 -0.01694
C 33.20554 30.57303 0.01428
C 31.94482 29.89591 -0.02142
C 31.99359 28.43884 0.0544
C 33.22461 27.67689 0.00026
C 33.22618 26.1886 0.00682
C 31.96594 25.57445 -0.01779
C 29.46754 0.06666 0.00346
C 32.01328 24.11178 0.03794
C 33.12878 22.03117 0.01574
C 31.84139 21.28567 -0.02383
C 31.82595 19.88294 -0.01429
C 33.15512 19.16701 -0.0136
C 33.15512 17.81062 0.00594
C 31.84535 17.04512 -0.02474
C 31.85777 15.64435 0.00369
C 33.16817 14.93185 0.00455
C 33.24508 23.40359 0.01927
C 33.15807 13.54165 -0.00644
C 30.78773 0.7385 0.00307
C 29.51829 2.75374 0.02108
C 30.68274 21.99862 -0.01415
C 29.4167 21.28275 -0.03039
C 29.36147 19.91245 0.01836
C 30.60389 19.21606 0.03531
C 30.61625 17.78178 -0.00669
C 29.37489 17.06656 0.0101
C 29.41611 15.6409 0.01705
C 30.61193 14.92199 -0.0405
C 30.82813 2.15914 0.00716
C 30.67797 13.48867 -0.01303
C 29.4339 11.36993 -0.02155
C 30.70051 10.62546 -0.00944
C 30.72702 9.14993 -0.03735
C 29.52326 8.54387 -0.00971
C 29.47737 7.02487 0.01518
C 30.72867 6.34399 0.01908
C 30.73833 4.95095 0.07705
C 29.51163 4.2341 0.0103
C 29.43798 12.77466 -0.01461
C 31.94655 12.79238 -0.01839
C 31.93473 11.31909 0.00137
C 33.12917 10.66381 0.00199
C 1.09712 19.24429 -0.01678
C 1.18746 17.79457 0.01223
C 34.35472 17.12156 0.00648
C 34.38383 15.64564 0.02114
C 1.1944 14.94658 -0.02957
C 1.23415 13.52098 0.00343
C 0.00565 12.83834 -0.02656
C 34.37625 11.3705 -0.02442
C 34.38711 19.90821 0.01951
C 1.17849 10.63873 -0.00027
C 34.40929 8.53281 -0.02302
C 34.39279 7.11428 -0.02849
C 1.20471 6.45898 0.02931
C 1.20146 5.00663 0.00628
C 34.42162 4.2699 -0.0345
C 0.01535 2.82443 -0.00931
C 1.19859 2.08617 -0.00939
C 1.17501 0.74272 -0.00468
C 1.18703 9.2418 -0.00583
C 34.36418 21.31768 -0.02213
C 1.20191 21.96033 0.02712
C 1.1974 23.43767 0.00723
C 33.20617 9.27182 0.04381
C 31.98292 8.50792 0.02806
C 32.01349 7.06544 0.01504
C 33.24249 6.37663 -0.00069
C 33.25958 4.96462 0.04926
C 31.96236 4.29172 -0.03838
C 31.96653 2.86239 0.00349
C 33.20629 2.17206 -0.00323
C 33.24717 0.75682 -0.00841
C 31.93374 0.03531 0.0001
C 0.00929 32.68903 -0.02927
C 1.28628 31.98535 -0.01404
C 1.23288 30.57404 0.01027
C 34.42748 29.8266 0.01831
C 34.3867 28.38366 -0.01037
C 1.19854 27.73698 -0.00439
C 1.25016 26.26579 -0.00598
C 0.01822 25.55544 -0.05239
C 34.42108 24.18102 0.03076
C 30.66191 23.40786 -0.01854
C 29.44584 24.16454 -0.02049
C 29.54201 25.5659 0.03265
C 30.7728 26.32906 0.00261
C 25.79024 31.95238 -0.01107
C 25.86824 30.54732 -0.01586
C 24.66833 29.8048 -0.01971
C 24.69536 28.40799 -0.02118
C 25.98067 27.72779 0.00733
C 25.84803 26.36395 -0.00178
C 24.39767 26.05964 0.00768
C 25.87584 23.28537 -0.0276
C 24.58146 32.63159 0.00071
C 25.62612 17.71622 0.03005
C 25.71095 14.84945 0.02117
C 25.74462 13.45885 0.02737
C 24.49685 12.82932 -0.00498
C 24.58569 11.36256 0.00135
C 25.71501 10.58105 0.03102
C 25.8038 9.17793 0.02555
C 24.55305 8.4752 0.01423
C 24.48811 7.04831 -0.00285
C 24.47021 15.41569 -0.04078
C 22.05306 0.01961 -0.00225
C 23.29398 0.64438 0.01515
C 23.26602 2.09213 -0.0055
C 20.81545 2.09956 0.00096
C 20.83703 0.69533 -0.01527
C 19.61183 34.06585 0.01087
C 22.06207 32.64611 0.00199
C 23.36893 31.91762 0.01511
C 23.38594 30.48544 -0.00478
C 22.15009 29.72697 -0.01662
C 22.26169 28.1627 -0.01185
C 23.71849 27.42152 0.01126
C 23.45877 13.86991 0.01852
C 22.04984 11.20576 -0.00381
C 23.33016 10.65959 0.03046
C 23.31767 9.18742 0.0296
C 22.11922 8.43617 0.03374
C 22.12666 6.97566 -0.02845
C 23.38045 6.37566 -0.03213
C 23.35664 4.91995 0.02239
C 22.12272 4.23299 0.01153
C 22.08999 2.79874 0.02734
C 25.73711 6.29649 -0.009
C 3.61542 31.99761 -0.00725
C 25.7803 4.89117 -0.01199
C 24.49432 2.75289 -0.00938
C 26.94581 11.31994 0.04185
C 28.25635 10.63893 0.00194
C 28.25715 9.22319 -0.00621
C 27.01351 8.47307 0.02611
C 27.04548 7.03812 0.02198
C 28.26723 6.32037 0.01094
C 28.24852 4.92892 0.00235
C 27.03519 4.25988 0.01495
C 26.96405 12.74866 0.02316
C 26.94269 2.82962 0.01259
C 28.27332 0.75598 0.01699
C 27.0439 0.0029 -0.00416
C 29.50384 32.72387 0.01177
C 30.75505 32.00506 0.04266
C 30.74781 30.51931 0.01324
C 29.43129 29.85748 0.0014
C 29.49982 28.45721 0.00924
C 30.76765 27.76662 0.02326
C 28.19891 2.16191 0.01799
C 28.1658 13.48547 0.01257
C 28.15676 14.9786 0.00152
C 26.91449 15.59651 -0.00294
C 25.7984 2.10941 -0.0264
C 25.76396 0.70115 -0.01154
C 24.58226 0.0189 0.00684
C 27.0798 32.70838 -0.01052
C 28.23263 32.04941 -0.01679
C 28.29042 30.59191 0.00367
C 27.10788 29.91622 0.04306
C 27.13783 28.53439 0.00996
C 28.27751 27.76992 0.00195
C 28.26888 26.33256 -0.00802
C 27.08227 25.69081 -0.00218
C 26.89419 24.18148 -0.01654
C 28.24128 23.4993 -0.00037
C 28.17123 22.05924 -0.0032
C 26.83687 21.29946 0.00622
C 26.88544 20.02089 -0.02815
C 28.0534 19.23503 -0.00942
C 28.07476 17.84275 0.00487
C 26.8384 17.09619 0.00826
C 24.60243 4.15977 -0.00229
C 2.50132 32.75302 0.02322
