282
Graphene
C 0.021 0.07885 0.01295
C 15.99583 30.50635 -0.01721
C 15.98773 32.00474 -0.01154
C 14.80151 32.72778 0.0106
C 12.42853 0.18727 -0.01594
C 13.69914 0.88456 0.00742
C 13.85968 17.60746 -0.00311
C 13.22244 18.73378 0.00675
C 12.08761 19.94879 -0.00865
C 12.20085 21.30267 0.0058
C 13.50967 21.85994 -0.00652
C 13.66587 23.31486 -0.04076
C 12.38858 24.06252 -0.00703
C 12.34371 25.51263 0.00654
C 13.55557 26.2322 -0.04422
C 13.48216 27.7118 -0.02957
C 12.29331 28.39487 -0.00831
C 12.25271 29.80863 0.00364
C 11.05257 26.17522 -0.01979
C 9.85575 25.52723 0.02691
C 9.83886 24.1573 -0.01581
C 11.12325 23.45563 0.01452
C 11.00978 21.99451 0.04892
C 9.74538 21.31329 -0.00111
C 14.68022 29.76954 -0.02422
C 9.76677 19.96029 -0.03557
C 11.10799 17.87112 0.01739
C 11.21567 0.61959 0.00755
C 9.94099 0.07758 -0.0054
C 12.33051 32.83447 0.00667
C 13.59689 31.99439 0.00143
C 13.5208 30.55261 -0.017
C 10.91196 19.29773 0.03754
C 11.1229 27.60351 0.02188
C 14.68261 28.36832 0.01277
C 16.08314 26.35215 -0.01527
C 20.95559 0.68586 -0.04078
C 20.91286 2.18866 0.03005
C 19.80544 2.93539 -0.0276
C 19.64796 4.31288 0.00768
C 20.91269 5.0536 -0.00178
C 20.87617 6.38461 0.00733
C 19.43189 6.78125 -0.02118
C 19.92581 8.23737 -0.01971
C 20.77138 9.17013 -0.01586
C 20.79025 27.78734 -0.01107
C 19.57032 28.28102 0.00071
C 19.60573 29.76422 -0.00225
C 20.86308 30.47675 0.01515
C 20.90357 31.90651 -0.0055
C 19.67762 32.64937 0.02734
C 17.27019 0.13115 0.01153
C 18.51073 0.70175 0.02239
C 14.86094 25.52743 0.01087
C 14.64697 24.19529 0.00199
C 16.23886 2.30551 0.01511
C 16.0682 0.85926 -0.00478
C 14.79993 0.02685 -0.01662
C 17.20217 32.74326 -0.01185
C 15.96199 27.78252 0.00096
C 18.4582 32.0028 0.01126
C 17.21212 29.92247 -0.00381
C 17.12619 28.49354 0.03046
C 18.2605 27.65674 0.0296
C 18.42412 4.81634 0.03374
C 17.31401 2.94036 -0.02845
C 18.52688 2.14589 -0.03213
C 18.49233 30.58469 0.01852
C 9.85358 28.34478 -0.00316
C 9.79983 29.80068 -0.0331
C 10.99395 30.59697 -0.0258
C 4.91517 28.42971 -0.02813
C 4.93982 29.85968 -0.01952
C 6.19671 30.53018 0.05265
C 6.19258 31.9625 -0.01717
C 4.93411 32.62916 0.00244
C 2.5349 0.0724 0.02299
C 3.7177 0.76822 0.03542
C 3.60916 2.20118 0.01416
C 2.441 2.87914 0.01945
C 2.41351 4.24956 -0.01454
C 2.31422 7.18582 0.01241
C 2.45828 8.45029 0.0076
C 2.41401 11.35255 0.02162
C 2.33334 12.80601 -0.0014
C 3.42749 13.5798 0.00415
C 3.69851 14.9188 -0.02162
C 2.3881 15.60848 0.01363
C 3.72376 30.61269 -0.00428
C 2.51786 29.85568 0.03101
C 2.48445 28.47095 -0.01536
C 3.67854 27.73659 -0.02689
C 3.64581 26.28471 -0.01046
C 2.43484 25.5669 -0.00891
C 6.1331 27.74167 0.00374
C 2.41241 24.17973 0.02819
C 3.66072 22.01332 -0.02971
C 2.41348 21.33845 0.02894
C 2.42897 19.89254 -0.01789
C 3.65459 19.17264 0.00444
C 3.644 17.6696 -0.00925
C 2.39694 17.01769 0.01877
C 3.62809 23.46432 0.00165
C 6.08838 26.29279 0.00052
C 4.9072 25.55401 -0.03682
C 4.87307 24.17105 0.01965
C 8.59408 26.31333 0.01443
C 7.34344 25.60833 0.03505
C 7.34813 24.1423 -0.02815
C 8.60481 23.40162 -0.04147
C 8.48531 22.01164 -0.05302
C 7.26005 21.34466 0.00213
C 8.60447 27.72199 0.00979
C 7.28715 19.89496 -0.00066
C 8.38078 17.82141 0.00028
C 7.47726 17.10729 -0.02213
C 8.73258 0.80266 0.03698
C 7.49695 34.05127 -0.00109
C 9.90278 32.74698 -0.00491
C 11.04481 32.07467 0.03338
C 8.4895 19.21436 -0.00289
C 19.70063 0.08551 0.02117
C 7.36579 28.39395 -0.00481
C 8.65397 30.54842 -0.02162
C 6.06631 23.44525 0.02058
C 6.09092 22.04195 -0.01957
C 4.8543 21.33392 -0.0108
C 4.93012 19.84821 -0.00368
C 6.08378 19.09037 -0.02696
C 6.06793 17.72975 -0.00114
C 7.38357 29.84176 0.00889
C 4.83965 17.019 0.00228
C 4.99238 2.76939 0.00422
C 5.9722 2.17636 0.0351
C 6.22334 0.63406 -0.03113
C 4.88478 0.00417 0.02098
C 7.42447 32.69552 0.01848
C 8.66507 32.01574 -0.00619
C 4.93722 15.5605 0.00798
C 22.16902 32.68172 0.02737
C 23.34381 31.89288 -0.00498
C 23.30155 30.41468 0.00135
C 33.18751 5.01003 0.04926
C 33.18853 6.44016 -0.00069
C 31.95222 7.13169 0.01504
C 31.9067 8.50713 0.02806
C 33.15305 9.19068 0.04381
C 33.10645 10.6809 0.00199
C 31.86303 11.29932 0.00137
C 31.82772 12.86637 -0.01839
C 33.09215 13.61978 -0.00644
C 33.02941 14.96466 0.00455
C 31.76801 15.7356 0.00369
C 31.8848 17.17702 -0.02474
C 33.14417 17.77463 0.00594
C 33.24595 19.17519 -0.0136
C 32.01572 19.89128 -0.01429
C 31.8734 21.28874 -0.02383
C 33.06417 22.00275 0.01574
C 29.50014 2.88247 0.02108
C 30.7355 2.1558 0.00716
C 30.73713 0.75554 0.00307
C 29.48716 0.02301 0.00346
C 31.92907 32.75661 0.01713
C 33.21838 32.02726 -0.01694
C 31.94681 4.36355 -0.03838
C 33.11927 30.63124 0.01428
C 31.91715 28.43804 0.0544
C 33.10679 27.77389 0.00026
C 33.10338 26.31469 0.00682
C 31.91556 25.6205 -0.01779
C 31.94733 24.21284 0.03794
C 33.17751 23.45858 0.01927
C 31.9403 29.85121 -0.02142
C 31.92685 2.84932 0.00349
C 33.13359 2.19824 -0.00323
C 33.13705 0.75585 -0.00841
C 1.13063 14.90879 -0.02957
C 1.09568 13.49058 0.00343
C 34.33122 12.87494 -0.02656
C 34.2936 11.39896 -0.02442
C 1.16723 10.75483 -0.00027
C 1.10614 9.33748 -0.00583
C 34.28782 15.61815 0.02114
C 34.39635 8.55818 -0.02302
C 1.18555 6.36131 0.02931
C 1.24978 5.01446 0.00628
C 34.39656 4.3463 -0.0345
C 0.01998 2.92221 -0.00931
C 1.22644 2.23635 -0.00939
C 1.22262 0.7675 -0.00468
C 34.36524 7.08167 -0.02849
C 29.45364 4.33289 0.0103
C 34.4105 17.02488 0.00648
C 1.16987 19.18035 -0.01678
C 31.92931 0.03935 0.0001
C 34.42961 32.71128 -0.02927
C 1.2068 32.00725 -0.01404
C 1.21904 30.59331 0.01027
C 34.40232 29.88653 0.01831
C 34.40911 28.47764 -0.01037
C 1.18459 17.70537 0.01223
C 1.24313 27.80797 -0.00439
C 34.32617 25.58747 -0.05239
C 34.37461 24.21323 0.03076
C 1.23319 23.47377 0.00723
C 1.1776 22.01814 0.02712
C 34.35407 21.35605 -0.02213
C 0.02753 19.97448 0.01951
C 1.15716 26.3469 -0.00598
C 3.66458 31.98153 -0.02245
C 30.70941 5.06525 0.07705
C 29.46124 7.1341 0.01518
C 27.031 32.64902 0.02316
C 24.57683 34.07562 0.01257
C 25.79947 0.71421 0.00152
C 25.8177 2.19048 -0.00294
C 24.56539 2.90188 0.00826
C 24.60709 4.32752 0.00487
C 25.86821 4.93819 -0.00942
C 25.7857 6.44692 -0.02815
C 24.58778 7.06863 0.00622
C 24.54075 8.49718 -0.0032
C 25.82766 9.19446 -0.00037
C 25.86437 10.63642 -0.01654
C 25.97145 27.58318 -0.00218
C 24.69366 28.32233 -0.00802
C 24.58072 29.77064 0.00195
C 25.82775 30.54943 0.00996
C 25.76489 31.97687 0.04306
C 22.12726 29.70239 0.03102
C 22.14054 28.28751 0.02555
C 23.45781 27.6074 0.01423
C 23.39053 9.21513 -0.00285
C 22.10911 8.58933 -0.009
C 22.10895 7.1353 -0.01199
C 28.29687 31.97043 0.04185
C 23.31884 6.36758 -0.00229
C 22.13598 4.28984 -0.0264
C 22.12683 2.82348 -0.01154
C 23.38568 2.15256 0.00684
C 23.37105 0.7492 -0.01052
C 22.19208 0.0127 -0.01679
C 24.5594 32.60441 0.00367
C 23.35947 4.96879 -0.00938
C 28.35723 30.58194 0.00194
C 27.02949 29.8471 -0.00621
C 27.06486 28.49539 0.02611
C 29.48475 28.48289 -0.01415
C 30.66598 27.74792 -0.03039
C 30.61862 26.21798 0.01836
C 29.33761 25.53691 0.03531
C 29.46206 24.14617 -0.00669
C 30.75847 23.44432 0.0101
C 29.5006 29.89824 -0.01854
C 30.70654 22.0604 0.01705
C 30.57685 13.50398 -0.01303
C 29.31777 12.76101 -0.01461
C 29.42704 11.33365 -0.02155
C 30.69264 10.64156 -0.00944
C 30.64741 9.19323 -0.03735
C 29.39139 8.56011 -0.00971
C 30.81033 14.83567 -0.0405
C 30.72064 6.48612 0.01908
C 30.72485 30.6631 -0.02049
C 29.5042 32.74448 0.00261
C 28.29406 27.67693 0.02198
C 28.14007 26.3038 0.01094
C 26.8004 11.32181 0.00235
C 28.21823 10.6655 0.01495
C 28.17245 9.27558 0.01259
C 27.03832 8.51358 0.01799
C 30.70819 32.05758 0.03265
C 27.07234 7.16858 0.01699
C 28.2482 5.01566 0.01177
C 27.06474 4.28434 0.04266
C 27.07571 2.8335 0.01324
C 28.29463 2.12983 0.0014
C 28.24873 0.71911 0.00924
C 26.97705 0.02014 0.02326
C 28.25821 6.39183 -0.00416
C 2.48096 32.70843 0.00985
