305
Graphene
C 0.01868 0.03576 0.01295
C 18.49963 31.93042 -0.01581
C 18.40633 30.58895 0.01452
C 17.21517 29.84253 0.04892
C 17.25477 28.38244 -0.00111
C 18.48411 27.71906 -0.03557
C 18.47815 26.2883 0.03754
C 17.1717 25.52259 0.01739
C 17.18742 24.12332 0.00755
C 18.41745 23.31841 -0.0054
C 18.44913 21.97809 0.00667
C 17.27254 21.31131 0.00143
C 17.2529 19.83034 -0.017
C 18.49178 19.17593 0.00364
C 18.49341 17.73145 -0.00831
C 17.19055 17.1195 -0.02957
C 17.23767 32.65177 0.02691
C 17.25331 15.57824 -0.04422
C 14.7103 34.04751 -0.01979
C 16.0324 2.08414 -0.00316
C 15.92994 30.50209 0.03505
C 14.72616 29.84568 -0.02815
C 14.76626 28.37264 -0.04147
C 15.96296 27.75238 -0.05302
C 15.90525 26.32084 0.00213
C 14.76226 25.59082 -0.00066
C 14.78486 24.15442 -0.00289
C 16.02006 23.4393 0.00028
C 16.02973 22.01336 -0.02213
C 14.72732 21.30643 0.03698
C 14.81191 19.80652 -0.00109
C 15.98897 19.18027 -0.00491
C 15.93091 5.00687 0.03338
C 14.806 4.29343 -0.0258
C 14.72518 2.9047 -0.0331
C 16.00033 0.65369 0.02188
C 16.01146 31.94875 0.01443
C 18.43661 15.00484 0.00654
C 17.30903 4.2699 -0.04076
C 19.64629 16.97497 -0.01185
C 19.68868 15.62131 0.01126
C 20.9252 14.83705 0.01852
C 20.84966 13.46161 -0.00381
C 20.9331 6.34809 0.03046
C 20.98755 4.97491 0.0296
C 19.67382 4.27193 0.03374
C 19.6932 2.84564 -0.02845
C 20.87695 2.21547 -0.03213
C 20.89998 0.76406 0.02239
C 19.68111 34.0221 0.01153
C 22.1154 32.60965 0.02734
C 23.36191 31.99584 -0.0055
C 23.37274 30.50249 0.01515
C 22.10051 29.82823 -0.00225
C 20.87529 17.78103 -0.01662
C 18.46723 4.90405 -0.00703
C 20.96283 19.23537 -0.00478
C 19.68335 21.25465 0.00199
C 17.256 2.84228 -0.00652
C 18.4677 2.11294 0.0058
C 18.48303 0.6568 -0.00865
C 17.18416 0.00819 0.00675
C 19.6653 32.63624 -0.00311
C 20.91774 31.88808 0.00742
C 20.93267 30.47113 -0.01594
C 19.66295 29.84526 0.0106
C 19.62684 28.40758 -0.01154
C 20.85137 27.70789 -0.01721
C 20.82684 26.31484 -0.02422
C 19.654 25.57495 0.01277
C 19.63786 24.1296 0.00096
C 20.92228 23.39857 -0.01527
C 20.915 21.98946 0.01087
C 19.68543 19.89649 0.01511
C 14.7576 32.68447 0.00979
C 12.33441 0.02036 -0.00481
C 13.52573 0.73502 0.00889
C 4.91462 29.7845 -0.01111
C 4.89591 28.39699 -0.01275
C 6.14066 27.68989 0.00985
C 6.19145 26.30329 -0.02245
C 4.89129 25.56896 -0.00428
C 4.88319 24.16491 0.03101
C 6.08809 23.42472 -0.01536
C 6.1226 21.99953 -0.02689
C 4.88084 2.85309 -0.01046
C 6.17878 2.16853 -0.00891
C 6.20456 0.67898 0.02819
C 4.8946 0.00658 0.00165
C 7.37434 32.60424 -0.02971
C 8.56741 31.9309 0.02894
C 8.61534 30.51352 -0.01789
C 6.0981 30.51741 0.02841
C 7.3926 29.80215 0.00444
C 6.18672 31.96151 0.00943
C 2.42077 0.06436 0.03592
C 3.69943 30.49275 0.01291
C 2.44296 29.82615 0.00093
C 2.44413 28.41545 0.00057
C 3.70123 27.74934 -0.01634
C 3.7082 26.23503 -0.00334
C 2.4434 25.59736 0.02339
C 2.43589 24.18635 0.01641
C 3.67045 23.43353 -0.00719
C 3.69145 22.05498 0.01364
C 2.48769 21.37636 -0.01062
C 2.4644 19.84902 -0.00033
C 2.45343 4.27906 0.03589
C 2.48324 2.86135 -0.02759
C 3.70896 2.15653 0.0402
C 3.62453 0.77771 0.00572
C 4.93443 32.68987 0.00406
C 7.36629 28.37596 -0.00925
C 8.58856 27.68567 0.01877
C 8.58301 26.29224 0.01363
C 11.10244 0.63756 0.02058
C 9.88009 0.02485 -0.01957
C 12.27939 32.65403 -0.0108
C 13.59996 31.91912 -0.00368
C 13.53468 30.50342 -0.02696
C 12.23645 29.81235 -0.00114
C 12.27472 28.49404 0.00228
C 13.52615 27.70075 0.00798
C 13.53416 26.26568 0.00422
C 12.28462 25.5578 0.0351
C 12.34239 24.11007 -0.03113
C 13.5037 23.37026 0.02098
C 13.57296 21.98852 0.01848
C 12.2195 2.78932 -0.00619
C 13.49328 2.2236 -0.02162
C 11.03328 2.1881 0.01965
C 9.83217 2.84971 -0.03682
C 11.09118 22.04075 0.00052
C 11.07342 23.32909 0.00374
C 7.41873 25.56888 -0.02162
C 7.39065 24.16898 0.00415
C 8.60048 23.4865 -0.0014
C 7.38434 2.83194 0.02162
C 8.57228 2.08294 0.0076
C 8.59555 0.67708 0.01241
C 7.42517 34.06257 -0.01454
C 22.13197 28.37581 0.00071
C 9.8211 32.69817 0.01945
C 11.06785 30.59721 0.03542
C 9.82756 29.82255 0.02299
C 9.89977 28.38141 0.00244
C 11.13428 27.68475 -0.01717
C 11.09859 26.29335 0.05265
C 9.79007 25.45031 -0.01952
C 9.80977 24.08816 -0.02813
C 11.01693 31.99451 0.01416
C 3.66147 31.89773 0.00438
C 23.35104 27.6827 -0.01107
C 22.1049 25.59848 -0.01971
C 29.50287 0.02526 0.01574
C 32.07343 32.59383 -0.02383
C 33.16996 32.00935 -0.01429
C 33.20045 23.44637 -0.0136
C 33.21864 22.04807 0.00594
C 31.96337 21.29264 -0.02474
C 32.00096 19.85834 0.00369
C 33.24476 19.17411 0.00455
C 33.20454 17.73993 -0.00644
C 31.93214 17.08268 -0.01839
C 31.99673 15.60203 0.00137
C 33.20473 14.95527 0.00199
C 33.19259 13.53163 0.04381
C 32.00589 12.81917 0.02806
C 31.91591 11.44951 0.01504
C 30.72471 0.73286 0.01927
C 33.21727 10.67154 -0.00069
C 30.68759 2.13835 0.03794
C 29.5083 4.29682 0.00682
C 29.52356 19.86611 -0.00971
C 30.77012 19.16137 0.01518
C 30.7194 17.79908 0.01908
C 29.48752 17.09033 0.07705
C 29.51033 15.62796 0.0103
C 30.68335 14.90932 0.02108
C 30.70207 13.51815 0.00716
C 29.51195 12.74011 0.00307
C 29.52437 11.33179 0.00346
C 30.68558 10.69116 0.01713
C 30.72274 9.25455 -0.01694
C 29.57114 8.56961 0.01428
C 29.54137 7.04356 -0.02142
C 30.75423 6.40688 0.0544
C 30.69725 4.97457 0.00026
C 29.51564 2.83616 -0.01779
C 29.49422 21.38931 -0.03735
C 33.13075 9.23106 0.04926
C 31.93907 7.125 0.00349
C 34.39887 19.82308 0.02114
C 1.25443 19.205 -0.02957
C 1.16578 17.76812 0.00343
C 0.03349 17.0423 -0.02656
C 34.40254 15.59356 -0.02442
C 34.40303 12.75508 -0.00027
C 34.41841 11.43842 -0.00583
C 0.00977 8.52696 -0.02302
C 0.03552 7.15907 -0.02849
C 1.17923 6.34305 0.02931
C 1.22212 4.96826 0.00628
C 34.40863 4.23036 -0.0345
C 34.38907 2.87955 -0.00931
C 1.28642 2.13665 -0.00939
C 1.24495 0.68332 -0.00468
C 0.05532 21.24818 0.00648
C 31.96027 8.54969 -0.03838
C 1.21353 22.03737 0.01223
C 34.42251 24.16569 0.01951
C 33.17479 6.37211 -0.00323
C 33.19466 4.93852 -0.00841
C 31.94951 4.28913 0.0001
C 32.01315 2.88157 -0.02927
C 33.20544 2.06789 -0.01404
C 33.23869 0.66761 0.01027
C 31.98086 0.00062 0.01831
C 34.43301 32.7012 -0.01037
C 1.24545 31.90225 -0.00439
C 1.18381 30.54008 -0.00598
C 0.05264 29.75364 -0.05239
C 34.38064 28.41117 0.03076
C 1.1818 27.72747 0.00723
C 1.17213 26.26065 0.02712
C 34.39436 25.5943 -0.02213
C 1.23321 23.4497 -0.01678
C 30.77546 21.91656 -0.00944
C 27.10086 34.06418 -0.02155
C 28.28674 0.74501 -0.01461
C 22.20749 4.25417 -0.0264
C 22.14963 2.78534 -0.01154
C 23.37521 2.13141 0.00684
C 23.394 0.66178 -0.01052
C 22.11671 34.05942 -0.01679
C 24.59823 32.63903 0.00367
C 25.86418 32.00646 0.04306
C 24.55374 29.82934 0.00996
C 24.61886 25.62216 0.00195
C 24.59529 24.16437 -0.00802
C 25.87002 23.49926 -0.00218
C 25.77649 22.05482 -0.01654
C 24.59325 21.29714 -0.00037
C 24.60395 19.87096 -0.0032
C 25.85885 19.19723 0.00622
C 23.41671 4.98512 -0.00938
C 25.79357 17.69337 -0.02815
C 23.35595 6.43252 -0.00229
C 22.15171 8.53229 -0.009
C 22.14783 24.20032 -0.02118
C 23.30333 23.35122 0.00733
C 23.32064 21.96427 -0.00178
C 22.11119 21.29455 0.00768
C 22.19403 19.89974 -0.0276
C 23.30863 19.14291 0.03005
C 23.29188 17.75329 -0.04078
C 22.09718 17.00814 0.02117
C 22.11688 15.62194 0.02737
C 23.373 14.88154 -0.00498
C 23.37186 13.55928 0.00135
C 22.12678 12.80293 0.03102
C 22.13634 11.33487 0.02555
C 23.35974 10.6394 0.01423
C 23.32537 9.19162 -0.00285
C 22.05866 7.11583 -0.01199
C 24.58913 17.04754 -0.00942
C 24.63346 15.57326 0.00487
C 25.82911 14.89464 0.00826
C 27.02298 17.06094 0.00924
C 27.06346 15.63409 0.02326
C 28.26237 14.94979 0.00261
C 28.25304 13.48165 0.03265
C 27.02059 12.75542 -0.02049
C 27.05311 11.38433 -0.01854
C 28.29716 10.66584 -0.01415
C 28.32422 9.24761 -0.03039
C 27.04925 8.47561 0.01836
C 27.03705 7.08143 0.03531
C 28.27811 6.39542 -0.00669
C 28.25719 5.03417 0.0101
C 27.05838 4.20674 0.01705
C 27.07352 2.81725 -0.0405
C 28.24072 2.12499 -0.01303
C 28.28223 17.76686 0.0014
C 28.32343 19.17382 0.01324
C 27.00722 19.81071 0.04266
C 27.00194 21.29559 0.01177
C 25.83014 13.49403 -0.00294
C 24.58142 12.73915 0.00152
C 24.57374 11.37869 0.01257
C 25.84607 10.60142 0.02316
C 25.85004 9.20879 0.04185
C 24.6332 8.52826 0.00194
C 24.57153 7.10163 -0.00621
C 23.40386 26.22057 -0.01586
C 25.80912 6.37447 0.02611
C 24.58051 4.245 0.01094
C 24.60948 2.83516 0.00235
C 25.8661 2.10672 0.01495
C 25.81642 0.74379 0.01259
C 24.53646 34.07093 0.01799
C 26.94104 32.62333 0.01699
C 28.26285 21.92016 -0.00416
C 25.79028 4.97689 0.02198
C 2.49866 32.65978 -0.00191
