328
Graphene
C 0.06638 34.04124 0.01295
C 12.2569 28.23302 -0.05302
C 13.59892 27.7632 0.00213
C 13.54961 14.94537 -0.00066
C 13.40154 13.62673 -0.00289
C 12.20396 12.88492 0.00028
C 12.27537 11.39433 -0.02213
C 13.51709 10.60973 0.03698
C 12.21841 29.74538 -0.04147
C 13.5147 9.21536 -0.00109
C 12.37275 7.03971 0.03338
C 13.59958 6.33162 -0.0258
C 13.62082 4.974 -0.0331
C 12.3498 4.29804 -0.00316
C 12.26684 2.87121 0.02188
C 13.56833 2.0392 -0.01979
C 13.56631 0.70231 0.02691
C 12.31077 8.45616 -0.00491
C 13.51117 30.42163 -0.02815
C 13.46477 31.86723 0.03505
C 12.326 32.57196 0.01443
C 9.74162 29.78503 -0.01957
C 9.72187 28.28054 -0.0108
C 11.00682 27.85319 -0.00368
C 11.11755 13.64782 -0.02696
C 9.90635 12.80915 -0.00114
C 9.85917 11.41575 0.00228
C 11.1093 10.64691 0.00798
C 11.10232 9.22823 0.00422
C 9.88057 8.61033 0.0351
C 9.87752 7.21891 -0.03113
C 11.11141 6.415 0.02098
C 11.11722 4.9212 0.01848
C 9.89684 4.26761 -0.00619
C 9.84916 2.76157 -0.02162
C 11.07711 2.17118 0.00889
C 11.18317 0.7124 -0.00481
C 9.86035 0.07069 0.00979
C 12.3219 33.97428 -0.01581
C 10.96542 30.54971 0.02058
C 14.76238 32.54019 0.01452
C 15.91591 30.47868 -0.00111
C 18.42958 30.51255 -0.01594
C 17.16824 29.75254 0.0106
C 17.20952 28.34987 -0.01154
C 18.53398 27.72104 -0.01721
C 18.53046 26.31843 -0.02422
C 17.07578 25.64664 0.01277
C 17.16839 24.37194 0.00096
C 18.39531 31.98299 0.00742
C 17.05601 12.72966 -0.01527
C 18.4824 10.77962 0.00199
C 18.42901 9.37233 0.01511
C 17.23361 8.58981 -0.00478
C 17.24679 7.15376 -0.01662
C 18.4437 6.51032 -0.01185
C 18.46139 4.99131 0.01126
C 17.25101 4.34491 0.01852
C 17.24575 11.4272 0.01087
C 17.17589 32.62193 -0.00311
C 14.76398 34.03107 0.00675
C 16.01603 0.64549 -0.00865
C 14.73031 29.75744 -0.03557
C 14.81683 28.4046 0.03754
C 15.9972 27.69546 0.01739
C 15.87485 26.33288 0.00755
C 14.67776 15.76474 -0.0054
C 15.86356 13.38609 0.00667
C 14.69303 12.82567 0.00143
C 14.69485 11.33999 -0.017
C 15.9628 10.70346 0.00364
C 15.93365 9.29057 -0.00831
C 14.73864 8.50551 -0.02957
C 14.81461 7.06202 -0.04422
C 16.04813 6.38804 0.00654
C 16.03652 4.97946 -0.00703
C 14.87971 4.25932 -0.04076
C 14.783 2.86461 -0.00652
C 16.03115 2.10932 0.0058
C 16.00199 31.86007 0.04892
C 17.18914 2.8593 -0.00381
C 11.00583 31.95289 0.01965
C 7.36205 0.04975 0.00052
C 2.33289 8.46511 -0.00191
C 2.43717 7.08175 0.00438
C 3.67367 6.37291 0.01291
C 3.70663 4.93786 0.00093
C 2.46607 4.17998 0.00057
C 2.44945 2.78584 -0.01634
C 3.67605 2.11361 -0.00334
C 3.5974 9.14266 0.00373
C 3.74802 0.67966 0.02339
C 4.94706 32.61816 -0.00719
C 6.10561 31.93847 0.01364
C 6.09993 30.52522 -0.01062
C 4.90382 29.81637 -0.00033
C 4.85921 28.50857 0.03589
C 6.09947 27.721 -0.02759
C 6.0596 26.36794 0.0402
C 2.48529 0.01168 0.01641
C 3.57835 10.61403 0.02147
C 2.42756 11.37106 -0.014
C 2.48872 12.7692 -0.01118
C 3.6566 30.55677 -0.04848
C 2.42563 29.85934 -0.00892
C 2.47992 28.42835 -0.01362
C 3.67994 27.77275 -0.0008
C 3.67885 26.25464 0.0288
C 2.39997 25.62536 0.00393
C 2.37966 24.20852 0.00895
C 3.70031 23.33002 0.00685
C 3.634 21.94598 0.02888
C 2.42107 21.38378 -0.00482
C 2.38333 19.91592 -0.01384
C 3.74998 19.25614 0.03693
C 3.81639 17.85544 0.01745
C 2.51577 17.05458 0.00488
C 2.56145 15.62678 -0.01004
C 3.721 14.88434 -0.02896
C 3.68873 13.46509 -0.00131
C 5.02355 25.51039 0.00572
C 9.85252 32.71665 -0.03682
C 4.77267 24.15378 0.03592
C 4.95682 17.00961 0.00943
C 8.47306 27.71436 0.00415
C 7.48009 15.54614 -0.0014
C 8.47783 14.74461 0.02162
C 8.65787 13.36836 0.0076
C 7.42857 12.84706 0.01241
C 7.31773 11.30286 -0.01454
C 8.60255 10.71447 0.01945
C 7.33738 28.44024 -0.02162
C 8.57464 9.30314 0.01416
C 7.39286 7.16459 0.02299
C 8.62958 6.45606 0.00244
C 8.61898 4.99854 -0.01717
C 7.37988 4.31162 0.05265
C 7.36183 2.93159 -0.01952
C 8.58717 2.20997 -0.02813
C 8.61839 0.77116 0.00374
C 7.3495 8.51265 0.03542
C 7.36543 29.90448 0.01363
C 8.57481 30.60382 0.01877
C 8.57275 32.02327 -0.00925
C 5.06056 15.62324 0.02841
C 6.22511 14.98647 -0.01111
C 6.11759 13.55489 -0.01275
C 4.91785 12.68455 0.00985
C 4.88601 11.35522 -0.02245
C 6.07656 10.57092 -0.00428
C 6.13621 9.12072 0.03101
C 4.87673 8.50153 -0.01536
C 4.86526 7.06227 -0.02689
C 6.1251 6.37679 -0.01046
C 6.14912 4.97016 -0.00891
C 4.88623 4.29283 0.02819
C 4.87454 2.82182 0.00165
C 6.1214 2.15477 -0.02971
C 6.10998 0.70351 0.02894
C 4.94651 34.04144 -0.01789
C 7.33238 32.71735 0.00444
C 4.77178 20.13466 0.00406
C 18.42842 2.14509 0.03046
C 18.41721 0.72356 0.0296
C 17.1705 34.03158 0.03374
C 33.05255 26.48604 0.00682
C 31.98214 25.66908 -0.01779
C 31.88984 24.31339 0.03794
C 33.22005 23.58709 0.01927
C 33.17787 22.17769 0.01574
C 31.96408 21.34789 -0.02383
C 32.05863 19.90007 -0.01429
C 33.22267 27.82876 0.00026
C 33.17672 19.13882 -0.0136
C 31.9948 17.06031 -0.02474
C 31.91622 15.6045 0.00369
C 33.15257 14.91456 0.00455
C 33.13236 13.52928 -0.00644
C 31.93108 12.81588 -0.01839
C 31.89388 11.3481 0.00137
C 33.10516 10.66587 0.00199
C 33.21817 17.70259 0.00594
C 33.19589 30.5075 0.0544
C 33.14416 31.91112 -0.02142
C 32.02126 32.76638 0.01428
C 29.6104 17.10551 -0.0405
C 29.3586 15.68585 -0.01303
C 30.69369 14.94305 -0.01461
C 30.63947 13.52124 -0.02155
C 29.40261 12.76225 -0.00944
C 29.45905 11.40961 -0.03735
C 30.64348 10.68062 -0.00971
C 30.62973 9.29737 0.01518
C 29.42551 8.44989 0.01908
C 29.52951 7.05461 0.07705
C 30.72186 6.35864 0.0103
C 30.7385 4.9883 0.02108
C 29.49285 4.24459 0.00716
C 29.53292 2.81669 0.00307
C 30.7338 2.14368 0.00346
C 30.70406 0.69964 0.01713
C 29.51138 0.05626 -0.01694
C 33.14792 9.19463 0.04381
C 30.82038 17.7489 0.01705
C 31.94232 8.50414 0.02806
C 33.16905 6.358 -0.00069
C 0.06255 17.04315 0.00648
C 34.38737 15.63003 0.02114
C 1.28472 14.90368 -0.02957
C 1.20891 13.50649 0.00343
C 34.35651 12.79917 -0.02656
C 34.37869 11.39465 -0.02442
C 1.1828 10.67577 -0.00027
C 1.28393 17.72777 0.01223
C 1.09403 9.17101 -0.00583
C 0.01275 7.06482 -0.02849
C 1.21163 6.3358 0.02931
C 1.29228 4.90621 0.00628
C 0.04201 4.24956 -0.0345
C 0.00461 2.917 -0.00931
C 1.23838 2.11974 -0.00939
C 1.24159 0.73747 -0.00468
C 34.41614 8.47203 -0.02302
C 1.16782 19.20572 -0.01678
C 34.3235 19.9628 0.01951
C 34.38591 21.40233 -0.02213
C 33.1947 4.94019 0.04926
C 31.97046 4.23476 -0.03838
C 31.99189 2.81492 0.00349
C 33.26198 2.08659 -0.00323
C 33.25001 0.71633 -0.00841
C 32.02435 0.16059 0.0001
C 0.02798 32.65254 -0.02927
C 1.20571 32.00394 -0.01404
C 1.20707 30.58077 0.01027
C 34.36197 29.90965 0.01831
C 0.01791 28.53377 -0.01037
C 1.25952 27.79295 -0.00439
C 1.19905 26.38916 -0.00598
C 34.42864 25.75858 -0.05239
C 34.38611 24.28086 0.03076
C 1.20768 23.48905 0.00723
C 1.1857 22.07421 0.02712
C 31.96149 7.12577 0.01504
C 30.76719 19.1378 0.0101
C 29.59695 19.81516 -0.00669
C 29.3903 21.20816 0.03531
C 23.33437 31.92247 -0.00498
C 23.43809 30.5368 0.00135
C 22.14035 29.81186 0.03102
C 22.15727 28.46667 0.02555
C 23.40935 27.68316 0.01423
C 23.40651 26.20848 -0.00285
C 22.15599 25.6777 -0.009
C 22.07852 32.66393 0.02737
C 23.29957 10.64134 -0.01199
C 22.05102 8.45985 -0.00938
C 22.09697 6.99325 -0.0264
C 23.40451 6.40633 -0.01154
C 23.3594 4.91159 0.00684
C 22.11341 4.24197 -0.01052
C 22.17934 2.86999 -0.01679
C 23.3691 2.1115 0.00367
C 23.24701 9.20553 -0.00229
C 19.61018 0.01495 0.02117
C 20.84726 0.65471 -0.04078
C 20.89905 2.14097 0.03005
C 19.54001 32.68867 -0.02845
C 20.79602 31.92676 -0.03213
C 20.87394 30.5642 0.02239
C 19.65892 29.86309 0.01153
C 19.7036 28.47019 0.02734
C 20.91626 27.70098 -0.0055
C 20.93788 26.07679 0.01515
C 19.66954 25.63735 -0.00225
C 19.72643 11.32213 0.00071
C 20.83638 10.50645 -0.01107
C 20.8871 9.18282 -0.01586
C 19.65712 8.56152 -0.01971
C 19.70814 7.08057 -0.02118
C 20.85005 6.3891 0.00733
C 20.88623 4.97925 -0.00178
C 19.6994 4.24127 0.00768
C 19.72044 2.80395 -0.0276
C 23.26572 0.65529 0.04306
C 22.098 0.01028 0.00996
C 24.62614 32.68322 0.00195
C 25.90978 32.15009 -0.00802
C 28.05545 13.51325 0.01259
C 26.93164 12.66855 0.01799
C 26.94925 11.34902 0.01699
C 28.2163 10.62259 -0.00416
C 28.17216 9.19057 0.01177
C 27.03446 8.46494 0.04266
C 27.05683 7.06689 0.01324
C 28.31075 6.33524 0.0014
C 28.27168 4.92266 0.00924
C 27.04538 4.18726 0.02326
C 27.05434 2.81999 0.00261
C 28.32328 2.01462 0.03265
C 28.21713 0.52381 -0.02049
C 26.87903 33.85431 -0.01854
C 29.46157 23.78877 -0.01415
C 30.82809 23.38489 -0.03039
C 30.6829 21.96889 0.01836
C 28.3745 14.76605 0.01495
C 3.67473 31.97028 0.01572
C 28.2758 21.98068 0.00235
C 27.58921 24.35497 0.02198
C 24.45887 29.70894 -0.00218
C 24.54467 28.36256 -0.01654
C 25.84223 26.03524 -0.00037
C 24.62502 25.83996 -0.0032
C 24.5537 11.08125 0.00622
C 25.7517 10.64728 -0.02815
C 25.77594 9.1907 -0.00942
C 24.52349 8.41657 0.00487
C 24.58663 7.04313 0.00826
C 25.82333 6.30056 -0.00294
C 25.81329 4.88024 0.00152
C 24.58189 4.2358 0.01257
C 24.60866 2.81469 0.02316
C 25.86639 2.15075 0.04185
C 25.71419 0.72312 0.00194
C 24.53258 0.02047 -0.00621
C 26.90705 25.40882 0.02611
C 28.21889 23.24216 0.01094
C 2.40703 32.66812 -0.00095
