428
Graphene
C 0.0636 34.0442 0.01295
C 12.30966 2.90647 0.03589
C 13.54706 2.19011 -0.02759
C 13.47911 0.76665 0.0402
C 12.33758 34.06163 0.00572
C 14.80282 32.69047 0.03592
C 15.99183 31.94029 0.00406
C 15.94291 30.51815 0.00943
C 14.71709 29.70852 0.02841
C 14.77021 28.32508 -0.01111
C 15.99715 27.61759 -0.01275
C 12.31778 4.29483 -0.00033
C 15.97776 26.2589 0.00985
C 14.79276 24.13811 -0.00428
C 16.02531 23.48643 0.03101
C 15.96136 22.0537 -0.01536
C 14.78097 21.25068 -0.02689
C 14.72744 19.75274 -0.01046
C 15.93511 19.05579 -0.00891
C 15.98196 17.64734 0.02819
C 14.72853 17.03586 0.00165
C 14.72343 15.61939 -0.02971
C 15.96036 14.88937 0.02894
C 14.73234 25.60397 -0.02245
C 13.4813 5.03947 -0.01062
C 13.51648 6.45429 0.01364
C 12.24936 7.08878 -0.00719
C 13.56172 31.96277 0.00685
C 13.50775 30.58094 0.02888
C 12.2886 29.84041 -0.00482
C 12.3201 28.45548 -0.01384
C 13.48158 27.71187 0.03693
C 13.49729 26.34982 0.01745
C 12.26225 25.65583 0.00488
C 12.32596 24.21872 -0.01004
C 13.5598 23.40792 -0.02896
C 13.57392 21.96416 -0.00131
C 12.33038 21.34803 -0.01118
C 12.38874 19.90225 -0.014
C 13.54189 19.12878 0.02147
C 13.48402 17.71293 0.00373
C 12.24229 17.01404 -0.00191
C 12.20987 15.6271 0.00438
C 13.56873 14.89822 0.01291
C 13.57906 13.53159 0.00093
C 12.36005 12.86179 0.00057
C 12.25157 11.43727 -0.01634
C 13.47959 10.73186 -0.00334
C 13.46868 9.30089 0.02339
C 12.28006 8.51868 0.01641
C 16.02816 13.45771 -0.01789
C 14.82689 12.77889 0.00444
C 14.75642 11.40508 -0.00925
C 15.96244 10.62902 0.01877
C 18.43985 14.87919 0.00228
C 18.46104 13.52779 0.00798
C 17.28008 12.76441 0.00422
C 17.21359 11.37304 0.0351
C 18.44518 10.63231 -0.03113
C 18.44045 9.21873 0.02098
C 17.21027 8.5116 0.01848
C 17.15215 7.04118 -0.00619
C 18.41944 6.31453 -0.02162
C 18.47533 4.8771 0.00889
C 17.21454 4.24941 -0.00481
C 17.17863 2.85094 0.00979
C 18.36636 2.11763 0.01443
C 18.40244 0.77182 0.03505
C 17.17167 34.06819 -0.02815
C 19.64665 32.73726 -0.04147
C 20.87386 31.94967 -0.05302
C 20.89926 30.55959 0.00213
C 19.73093 29.8057 -0.00066
C 19.70566 28.37711 -0.00289
C 20.94445 27.74431 0.00028
C 20.94681 26.31465 -0.02213
C 19.70501 25.6 0.03698
C 17.19353 15.55408 -0.00114
C 12.27222 32.62195 0.00895
C 17.24958 16.9887 -0.02696
C 18.44412 19.20412 -0.0108
C 15.95205 9.20857 0.01363
C 14.69404 8.60318 -0.02162
C 14.76479 7.15095 0.00415
C 15.88984 6.39201 -0.0014
C 15.92339 4.97093 0.02162
C 14.69672 4.31684 0.0076
C 14.76471 2.85276 0.01241
C 15.95215 2.11026 -0.01454
C 15.90906 0.66515 0.01945
C 14.69311 0.01759 0.01416
C 17.22466 32.6469 0.03542
C 18.41171 31.95304 0.02299
C 18.4994 30.5397 0.00244
C 17.23172 29.85037 -0.01717
C 17.199 28.45104 0.05265
C 18.47061 27.70066 -0.01952
C 18.44371 26.26151 -0.02813
C 17.20207 25.56065 0.00374
C 17.28102 24.15083 0.00052
C 18.42518 23.41359 -0.03682
C 18.42105 21.97996 0.01965
C 17.13763 21.35802 0.02058
C 17.17678 19.87989 -0.01957
C 18.38445 17.7863 -0.00368
C 19.69694 24.21555 -0.00109
C 9.8276 34.03996 0.00393
C 11.07447 2.13399 -0.0008
C 6.22964 30.53602 -0.00039
C 4.95421 29.88441 0.0064
C 4.8559 28.44881 0.00211
C 6.09799 27.72894 -0.00449
C 6.08329 26.2816 -0.01979
C 4.8643 25.54362 0.02784
C 4.9227 24.11282 -0.01977
C 6.15703 23.43595 -0.00561
C 6.21237 21.88302 0.00208
C 4.89745 21.31011 0.01707
C 6.19738 31.95861 0.02728
C 4.89726 12.73883 0.02769
C 6.09695 10.72517 -0.04999
C 6.07961 9.28943 0.04505
C 4.92892 8.51492 0.03284
C 4.9293 7.10034 -0.04307
C 6.16612 6.36744 0.03189
C 6.18128 4.92296 0.00031
C 4.90696 4.23244 -0.003
C 4.88941 2.84718 0.01402
C 6.11977 2.13758 0.02379
C 6.1069 0.71212 0.00907
C 4.87238 11.40686 -0.03291
C 4.93037 32.68961 0.00245
C 2.47102 34.03669 0.00081
C 3.72517 0.68836 -0.02805
C 3.7192 30.55786 0.00787
C 2.5142 29.91861 0.02426
C 2.48048 28.44703 0.01218
C 3.65229 27.70203 -0.01471
C 3.63472 26.23125 -0.02827
C 2.41328 25.48836 0.01078
C 2.49226 24.11661 -0.00112
C 3.69098 23.42333 0.03345
C 3.71179 22.00682 0.00748
C 2.42966 21.39586 0.00662
C 2.37861 20.03609 -0.0154
C 3.89382 13.40126 -0.01299
C 2.54594 12.84286 -0.00407
C 2.50069 11.36691 0.01138
C 3.62995 10.58379 0.03278
C 3.65142 9.11759 -0.00177
C 2.33988 8.43651 0.04421
C 2.3398 7.02989 0.00088
C 3.64097 6.40514 0.00828
C 3.66777 4.95387 -0.02375
C 2.42044 4.27472 0.00558
C 2.4861 2.8116 -0.0059
C 3.68445 2.10386 -0.01386
C 4.94333 34.07229 0.00643
C 7.42913 32.70671 -0.01509
C 8.56641 31.96907 0.03267
C 8.62613 30.52564 0.02374
C 9.81712 28.4969 -0.02929
C 11.05129 27.73459 -0.00966
C 11.0369 26.33693 -0.03337
C 9.81204 25.61535 0.01227
C 9.79226 24.1634 0.00873
C 11.06831 23.52762 -0.00049
C 11.15419 22.09355 0.00848
C 9.81598 21.4302 -0.01303
C 9.85839 20.05658 -0.01378
C 10.96778 19.18555 0.02635
C 11.03491 17.72353 0.0127
C 11.06358 14.93626 0.01396
C 11.09064 13.53257 0.01849
C 9.82961 12.83965 -0.01142
C 9.84309 11.44582 -0.00562
C 11.05483 10.73284 -0.00494
C 11.02867 9.24946 0.00054
C 9.78082 8.56514 0.03007
C 9.73943 7.14243 -0.00095
C 11.07706 6.36538 0.01572
C 11.11059 4.97681 -0.04848
C 9.80808 4.31487 -0.00892
C 9.83165 2.90321 -0.01362
C 9.88913 29.86724 0.03368
C 11.08569 0.68371 0.0288
C 11.11045 30.58632 -0.00077
C 9.80278 32.62383 0.0276
C 7.37798 29.86337 0.00402
C 7.32466 28.44712 0.0073
C 8.53963 27.70283 0.0174
C 8.54707 26.28162 0.03828
C 7.294 25.57466 0.01226
C 7.38247 24.07866 -0.00279
C 8.56045 23.50557 0.01996
C 8.57134 22.1058 -0.03996
C 7.4779 21.28338 0.01465
C 8.55123 13.37216 -0.00074
C 7.47706 12.84178 -0.00518
C 7.33501 11.41318 0.0086
C 8.61866 10.71569 -0.00643
C 8.55997 9.22964 0.017
C 7.30823 8.57621 -0.03113
C 7.28403 7.14503 -0.02566
C 8.53441 6.42846 -0.00094
C 8.59404 5.04752 0.02322
C 7.4115 4.2225 -0.00725
C 7.36244 2.77355 -0.05697
C 8.61874 2.11623 0.01087
C 8.62389 0.74563 -0.01343
C 7.39597 0.07108 0.00988
C 11.00994 31.97497 0.01305
C 20.91705 23.49031 -0.00491
C 20.96358 22.03475 0.03338
C 19.6736 21.32971 -0.0258
C 29.51534 12.71781 -0.01461
C 29.52041 11.29572 -0.02155
C 30.74128 10.64497 -0.00944
C 30.74556 9.1814 -0.03735
C 29.52932 8.50109 -0.00971
C 29.48529 7.06809 0.01518
C 30.67672 6.29389 0.01908
C 30.70839 4.88057 0.07705
C 29.47979 4.24285 0.0103
C 29.45762 2.79265 0.02108
C 30.66826 13.5333 -0.01303
C 30.7315 2.14944 0.00716
C 29.52029 0.02235 0.00346
C 31.98297 32.62647 0.01713
C 33.22059 31.92569 -0.01694
C 33.26332 30.47037 0.01428
C 31.98801 29.75832 -0.02142
C 31.98127 28.31573 0.0544
C 33.25213 27.62937 0.00026
C 33.18247 26.25604 0.00682
C 31.92297 25.57223 -0.01779
C 31.91676 24.13102 0.03794
C 30.71786 0.71995 0.00307
C 30.72999 14.97569 -0.0405
C 29.5255 15.68621 0.01705
C 29.50326 17.04486 0.0101
C 27.07015 7.13427 0.02198
C 28.22617 6.42313 0.01094
C 28.26606 5.0136 0.00235
C 27.0692 4.30613 0.01495
C 27.09189 2.85866 0.01259
C 28.26635 2.0978 0.01799
C 28.29317 0.67677 0.01699
C 27.04126 0.04653 -0.00416
C 29.58462 32.61737 0.01177
C 30.70079 31.87491 0.04266
C 30.7156 30.4191 0.01324
C 29.46306 29.78458 0.0014
C 29.5201 28.4009 0.00924
C 30.70733 27.64315 0.02326
C 30.68717 26.20292 0.00261
C 29.47211 25.51505 0.03265
C 29.51349 24.14257 -0.02049
C 30.73318 23.43994 -0.01854
C 30.8085 21.99061 -0.01415
C 29.4949 21.34686 -0.03039
C 29.53987 19.94211 0.01836
C 30.7548 19.14471 0.03531
C 30.74231 17.75403 -0.00669
C 33.13248 23.4824 0.01927
C 33.18186 22.05667 0.01574
C 31.98577 21.27261 -0.02383
C 31.96553 19.83889 -0.01429
C 34.38468 24.19214 0.03076
C 1.2062 23.51516 0.00723
C 1.20962 22.09442 0.02712
C 34.43099 21.34349 -0.02213
C 34.38135 19.89396 0.01951
C 1.2561 19.1418 -0.01678
C 1.18905 17.75195 0.01223
C 0.01725 17.06133 0.00648
C 0.0189 15.5964 0.02114
C 1.15946 14.89668 -0.02957
C 1.26158 13.51785 0.00343
C 34.36726 12.86717 -0.02656
C 34.42967 11.32651 -0.02442
C 1.23459 10.63094 -0.00027
C 1.16614 9.26002 -0.00583
C 34.42147 8.50213 -0.02302
C 34.36802 7.07518 -0.02849
C 1.13032 6.32048 0.02931
C 1.1815 4.90002 0.00628
C 34.40576 4.20985 -0.0345
C 34.42987 2.78416 -0.00931
C 1.22476 2.08105 -0.00939
C 1.25195 0.71591 -0.00468
C 34.38545 25.56974 -0.05239
C 27.02621 8.51374 0.02611
C 1.2257 26.21997 -0.00598
C 0.10782 28.25212 -0.01037
C 33.17527 19.13005 -0.0136
C 33.20119 17.72914 0.00594
C 31.96471 16.99903 -0.02474
C 32.00721 15.66558 0.00369
C 33.19081 14.87823 0.00455
C 33.05551 13.48428 -0.00644
C 31.86249 12.73004 -0.01839
C 31.94692 11.35345 0.00137
C 33.20765 10.6234 0.00199
C 33.22931 9.20875 0.04381
C 31.94954 8.56197 0.02806
C 31.91078 7.07789 0.01504
C 33.11188 6.36155 -0.00069
C 33.1959 4.92424 0.04926
C 31.96918 4.18907 -0.03838
C 32.01583 2.73374 0.00349
C 33.25221 2.0422 -0.00323
C 33.25172 0.66584 -0.00841
C 31.95975 34.04694 0.0001
C 0.00588 32.65073 -0.02927
C 1.19118 31.89973 -0.01404
C 1.23385 30.52896 0.01027
C 0.08811 29.73183 0.01831
C 1.33423 27.66946 -0.00439
C 28.29992 9.18921 -0.00621
C 28.3054 10.61403 0.00194
C 27.09822 11.39789 0.04185
C 22.1662 25.56976 0.00675
C 22.15881 24.12511 -0.00311
C 23.34045 23.38837 0.00742
C 23.35863 22.01511 -0.01594
C 22.15681 21.33274 0.0106
C 22.19357 19.87841 -0.01154
C 23.39937 19.1956 -0.01721
C 23.35777 17.78976 -0.02422
C 22.10237 17.0213 0.01277
C 22.12601 15.59804 0.00096
C 23.37082 14.92701 -0.01527
C 23.34058 13.55291 0.01087
C 22.11731 12.80599 0.00199
C 22.1051 11.38178 0.01511
C 23.33682 10.67809 -0.00478
C 23.38586 9.2717 -0.01662
C 22.14742 8.55506 -0.01185
C 22.09502 7.15106 0.01126
C 23.36712 6.43762 0.01852
C 23.35175 4.98108 -0.00381
C 22.17674 4.27846 0.03046
C 22.14534 2.83046 0.0296
C 23.36764 2.04738 0.03374
C 23.4236 26.30713 -0.00865
C 23.33208 0.63214 -0.02845
C 23.44512 27.71429 0.0058
C 22.0964 29.83587 -0.04076
C 19.72472 19.93896 -0.0331
C 20.96115 19.1373 -0.00316
C 20.8302 17.73525 0.02188
C 19.55822 17.06965 -0.01979
C 19.60572 15.60462 0.02691
C 20.81766 14.86943 -0.01581
C 20.84416 13.438 0.01452
C 19.6228 12.74285 0.04892
C 19.60763 11.31781 -0.00111
C 20.88585 10.65695 -0.03557
C 20.84942 9.21352 0.03754
C 19.64002 8.51496 0.01739
C 19.65464 7.09098 0.00755
C 20.87469 6.40759 -0.0054
C 20.93291 4.91913 0.00667
C 19.69386 4.20064 0.00143
C 19.68453 2.76234 -0.017
C 20.94454 2.09437 0.00364
C 20.96307 0.74759 -0.00831
C 19.68669 0.09651 -0.02957
C 22.12021 32.61914 -0.04422
C 23.33298 31.86368 0.00654
C 23.31171 30.54396 -0.00703
C 22.18289 28.43433 -0.00652
C 3.65702 32.01276 0.00267
C 22.12941 34.05828 -0.03213
C 25.84349 31.9378 0.01153
C 25.87789 2.16005 -0.0264
C 25.7696 0.70628 -0.01154
C 24.59138 34.00952 0.00684
C 27.11422 32.73606 -0.01052
C 28.26072 31.97066 -0.01679
C 28.24026 30.4913 0.00367
C 26.95653 29.75409 0.04306
C 27.03539 28.36007 0.00996
C 28.28973 27.67579 0.00195
C 28.29082 26.24677 -0.00802
C 27.0552 25.59228 -0.00218
C 27.06562 24.19468 -0.01654
C 28.24752 23.46294 -0.00037
C 28.24552 22.00856 -0.0032
C 27.05207 21.32251 0.00622
C 27.0588 19.92754 -0.02815
C 28.2932 19.20348 -0.00942
C 28.28116 17.76909 0.00487
C 27.04848 17.04197 0.00826
C 27.07018 15.60926 -0.00294
C 28.33194 14.95117 0.00152
C 28.29219 13.48557 0.01257
C 27.1167 12.8291 0.02316
C 24.53106 2.77097 -0.00938
C 24.59353 32.50791 0.02239
C 24.5886 4.20679 -0.00229
C 25.82766 6.40276 -0.009
C 25.81236 30.54527 0.02734
C 24.54081 29.8508 -0.0055
C 24.66176 28.47396 0.01515
C 25.82032 27.67287 -0.00225
C 25.81407 26.21292 0.00071
C 24.55687 25.51709 -0.01107
C 24.52242 24.08763 -0.01586
C 25.81884 23.47792 -0.01971
C 25.84362 22.04849 -0.02118
C 24.6289 21.2641 0.00733
C 24.61683 19.88174 -0.00178
C 25.8888 19.19925 0.00768
C 25.80395 17.76583 -0.0276
C 24.56823 17.08646 0.03005
C 24.64863 15.65738 -0.04078
C 25.8749 14.89106 0.02117
C 25.82809 13.48097 0.02737
C 24.55707 12.76842 -0.00498
C 24.6025 11.34369 0.00135
C 25.85748 10.66839 0.03102
C 25.86385 9.27395 0.02555
C 24.57841 8.50866 0.01423
C 24.57595 7.10151 -0.00285
C 25.77223 4.99999 -0.01199
C 2.39842 32.64159 0.01913
