389
Graphene
C 34.38449 34.06323 0.01295
C 15.94532 9.27503 -0.02162
C 14.80405 8.54731 0.00415
C 14.70921 7.14336 -0.0014
C 15.93961 6.44658 0.02162
C 15.99151 5.00562 0.0076
C 14.79608 4.26617 0.01241
C 14.78033 2.89865 -0.01454
C 15.97286 2.04744 0.01945
C 16.0044 0.67129 0.01416
C 15.9324 10.66379 0.01363
C 14.71355 34.04717 0.03542
C 18.45056 31.92946 0.00244
C 18.53587 30.48627 -0.01717
C 17.25849 29.87548 0.05265
C 17.2464 28.37569 -0.01952
C 18.45172 27.60158 -0.02813
C 18.3994 26.16706 0.00374
C 17.22198 25.44017 0.00052
C 17.201 24.0554 -0.03682
C 18.48084 23.31333 0.01965
C 17.19061 32.61109 0.02299
C 18.47928 22.00575 0.02058
C 14.73982 11.45415 0.01877
C 15.98508 13.57434 0.00444
C 13.4938 2.15905 0.00572
C 13.55222 0.71382 0.03592
C 12.30559 34.03877 0.00406
C 14.75235 32.68816 0.00943
C 16.01077 31.9476 0.02841
C 16.0804 30.5916 -0.01111
C 14.77989 29.90801 -0.01275
C 14.77733 28.49842 0.00985
C 15.96213 27.7059 -0.02245
C 14.72879 12.86756 -0.00925
C 15.96807 26.23663 -0.00428
C 14.86493 24.16631 -0.01536
C 15.97449 23.37651 -0.02689
C 16.06927 22.00382 -0.01046
C 14.71262 19.78784 -0.00891
C 15.94484 19.22032 0.02819
C 15.90064 17.70487 0.00165
C 14.72719 17.01168 -0.02971
C 14.79359 15.66571 0.02894
C 16.07502 14.97059 -0.01789
C 14.60728 25.47337 0.03101
C 17.27058 21.34549 -0.01957
C 17.19935 19.92111 -0.0108
C 18.38451 19.25741 -0.00368
C 19.66678 25.49235 -0.00109
C 19.68313 24.05806 -0.00491
C 20.99567 23.40979 0.03338
C 20.918 22.03282 -0.0258
C 19.70935 21.31187 -0.0331
C 19.68595 19.88273 -0.00316
C 20.89013 19.245 0.02188
C 20.87595 17.78239 -0.01979
C 19.7025 17.05181 0.02691
C 20.88531 26.20534 0.03698
C 19.66845 15.6083 -0.01581
C 20.85775 13.49369 0.04892
C 19.64685 12.7114 -0.00111
C 19.72164 11.33194 -0.03557
C 20.88759 10.57476 0.03754
C 20.92029 9.14655 0.01739
C 19.65603 8.5297 0.00755
C 19.56826 7.14357 -0.0054
C 20.81053 6.39327 0.00667
C 20.76301 4.97913 0.00143
C 20.90125 14.86357 0.01452
C 20.92852 27.63688 -0.02213
C 19.63218 28.33663 0.00028
C 19.75779 29.74098 -0.00289
C 18.46997 17.83315 -0.02696
C 17.25859 17.08901 -0.00114
C 17.30982 15.66559 0.00228
C 18.48823 14.89367 0.00798
C 18.39063 13.4331 0.00422
C 17.10601 12.78779 0.0351
C 17.19623 11.35359 -0.03113
C 18.43116 10.65168 0.02098
C 18.42268 9.27237 0.01848
C 17.20953 8.50906 -0.00619
C 17.19409 7.09664 -0.02162
C 18.35123 6.40625 0.00889
C 18.39439 4.9986 -0.00481
C 17.19807 4.23961 0.00979
C 17.13997 2.77914 0.01443
C 18.42724 2.04391 0.03505
C 18.46023 0.62636 -0.02815
C 17.19562 34.00842 -0.04147
C 19.71518 32.57688 -0.05302
C 20.96984 31.89995 0.00213
C 20.9582 30.49887 -0.00066
C 12.22773 2.86884 0.0402
C 12.2442 4.33745 -0.02759
C 13.53704 4.99901 0.03589
C 13.51825 6.42792 -0.00033
C 4.81463 28.5127 0.0086
C 6.07322 13.53858 -0.00643
C 4.92801 12.83286 0.017
C 4.89458 11.39267 -0.03113
C 6.14988 10.69915 -0.02566
C 6.10733 9.28739 -0.00094
C 4.93077 8.54977 0.02322
C 4.94703 7.12281 -0.00725
C 6.19016 6.443 -0.05697
C 4.97158 29.80259 -0.00518
C 6.17911 4.98969 0.01087
C 4.89845 2.90316 0.00988
C 6.17096 2.1882 0.0276
C 6.08412 0.82255 0.01305
C 4.94828 0.09484 -0.00077
C 7.2655 32.6624 0.03368
C 8.51853 31.9808 -0.02929
C 8.58618 30.49967 -0.00966
C 7.40395 29.89087 -0.03337
C 8.62511 13.47203 0.01227
C 4.91939 4.3192 -0.01343
C 6.20837 30.51645 -0.00074
C 6.08017 31.97333 0.01465
C 4.91774 32.70704 -0.03996
C 3.71882 30.57027 -0.04999
C 2.46253 29.79174 0.04505
C 2.52373 28.31437 0.03284
C 3.76551 27.74819 -0.04307
C 2.2886 16.92522 0.03189
C 2.46484 15.64549 0.00031
C 3.56791 14.81369 -0.003
C 3.69076 13.43212 0.01402
C 2.39005 12.78992 0.02379
C 2.3883 11.38728 0.00907
C 3.64199 10.64752 0.00643
C 3.70199 9.26401 -0.01509
C 2.39763 8.5731 0.03267
C 2.43074 7.10226 0.02374
C 3.67426 6.40477 0.00402
C 3.68735 4.94812 0.0073
C 2.45105 4.23 0.0174
C 2.47553 2.78902 0.03828
C 3.67884 2.15133 0.01226
C 3.73094 0.7255 -0.00279
C 2.44459 0.02771 0.01996
C 7.31579 12.96664 0.00873
C 19.53555 4.29976 -0.017
C 7.36992 11.39034 -0.00049
C 8.49347 9.19254 -0.01303
C 9.85093 2.83697 0.00488
C 11.08972 2.10855 -0.01004
C 11.01868 0.59544 -0.02896
C 9.73143 34.01372 -0.00131
C 12.2865 32.6924 -0.01118
C 13.52986 31.98175 -0.014
C 13.51442 30.55958 0.02147
C 12.25265 29.80852 0.00373
C 12.20803 28.47776 -0.00191
C 9.84806 4.33727 0.01745
C 13.45529 27.7601 0.00438
C 12.27816 15.5545 0.00093
C 13.53659 14.99809 0.00057
C 13.48307 13.56906 -0.01634
C 12.23798 12.83723 -0.00334
C 12.24973 11.43764 0.02339
C 13.49627 10.7375 0.01641
C 13.46522 9.35916 -0.00719
C 12.25817 8.62033 0.01364
C 12.27474 7.17708 -0.01062
C 13.68523 26.43216 0.01291
C 11.01107 5.09761 0.03693
C 11.07724 6.5384 -0.01384
C 9.80825 7.13202 -0.00482
C 7.32534 8.53159 -0.01378
C 7.37483 7.1195 0.02635
C 8.62248 6.40753 0.0127
C 8.58656 5.02756 0.01396
C 7.3914 4.29923 0.01849
C 7.31313 2.92521 -0.01142
C 8.56585 2.21934 -0.00562
C 8.51668 0.78835 -0.00494
C 7.25925 0.04067 0.00054
C 9.76197 32.68026 0.03007
C 10.99198 31.96527 -0.00095
C 11.06974 30.53425 0.01572
C 9.8984 29.82024 -0.04848
C 10.09548 28.4871 -0.00892
C 11.27604 14.86416 -0.01362
C 11.02445 13.50591 -0.0008
C 9.78792 12.81045 0.0288
C 9.77372 11.35288 0.00393
C 11.01821 10.69918 0.00895
C 11.01862 9.29843 0.00685
C 9.799 8.53304 0.02888
C 8.64512 10.63959 0.00848
C 3.70214 32.03677 -0.03291
C 19.57549 2.8487 0.00364
C 20.85098 0.78613 -0.02957
C 30.75902 6.39856 0.07705
C 30.72085 4.99546 0.0103
C 29.46285 4.26042 0.02108
C 29.55036 2.89385 0.00716
C 30.77816 2.17786 0.00307
C 30.70495 0.76791 0.00346
C 29.49928 0.01942 0.01713
C 31.84752 32.65259 -0.01694
C 33.1797 31.96962 0.01428
C 29.5206 7.09726 0.01908
C 33.1729 30.57104 -0.02142
C 31.95677 28.31812 0.00026
C 33.26733 27.66829 0.00682
C 33.23302 26.28442 -0.01779
C 31.95781 25.58266 0.03794
C 32.00532 24.17603 0.01927
C 33.19848 23.49149 0.01574
C 33.28749 22.01308 -0.02383
C 32.05553 21.24501 -0.01429
C 32.01179 19.88308 -0.0136
C 31.99314 29.74655 0.0544
C 33.25081 19.18871 0.00594
C 29.52886 8.5344 0.01518
C 30.68967 10.68421 -0.03735
C 30.68942 31.88001 0.01324
C 30.74285 30.46612 0.0014
C 29.50727 29.8241 0.00924
C 29.46175 28.37881 0.02326
C 30.74963 27.70202 0.00261
C 30.72037 26.27185 0.03265
C 29.51775 25.51899 -0.02049
C 29.56189 24.05784 -0.01854
C 30.81494 23.36715 -0.01415
C 30.76962 9.22271 -0.00971
C 30.83223 21.98265 -0.03039
C 29.55974 19.86793 0.03531
C 30.74733 19.10124 -0.00669
C 30.78218 17.70609 0.0101
C 29.60979 16.99498 0.01705
C 29.47862 15.58203 -0.0405
C 30.74555 14.92925 -0.01303
C 30.73483 13.55511 -0.01461
C 29.44404 12.81798 -0.02155
C 29.44648 11.42783 -0.00944
C 29.61672 21.27864 0.01836
C 33.21092 17.77489 -0.02474
C 31.98187 17.04097 0.00369
C 31.95703 15.66637 0.00455
C 0.12733 21.48752 -0.02213
C 0.12907 20.01672 0.01951
C 1.09717 19.11792 -0.01678
C 1.33758 17.80051 0.01223
C 34.39923 17.13578 0.00648
C 0.01457 15.67631 0.02114
C 1.13856 14.86857 -0.02957
C 1.1143 13.42684 0.00343
C 34.3024 12.7601 -0.02656
C 1.28604 23.39144 0.02712
C 34.3191 11.35611 -0.02442
C 1.16848 9.25312 -0.00583
C 34.38896 8.50627 -0.02302
C 34.40272 7.03881 -0.02849
C 1.24758 6.46403 0.02931
C 1.22641 4.95955 0.00628
C 34.40148 4.29745 -0.0345
C 34.41793 2.8281 -0.00931
C 1.1826 2.08156 -0.00939
C 1.19701 0.72742 -0.00468
C 1.12853 10.64449 -0.00027
C 0.0874 24.03992 0.00723
C 0.08092 25.54169 0.03076
C 1.21638 26.21163 -0.05239
C 33.20275 14.97429 -0.00644
C 33.18436 13.55723 -0.01839
C 31.95233 12.8674 0.00137
C 31.90903 11.44098 0.00199
C 33.09275 10.66926 0.04381
C 33.15713 9.23496 0.02806
C 31.99301 8.5204 0.01504
C 31.97148 7.10108 -0.00069
C 33.16869 6.36746 0.04926
C 33.16896 4.96377 -0.03838
C 31.93512 4.28244 0.00349
C 32.00781 2.87252 -0.00323
C 33.1916 2.14646 -0.00841
C 33.13031 0.65947 0.0001
C 31.90491 34.06396 -0.02927
C 0.01478 32.66019 -0.01404
C 1.2586 31.94125 0.01027
C 1.25988 30.51396 0.01831
C 34.4136 29.75804 -0.01037
C 0.00214 28.38482 -0.00439
C 1.24146 27.62025 -0.00598
C 29.42155 32.66229 0.04266
C 27.06464 34.04442 0.01177
C 28.2672 0.72335 -0.00416
C 28.32031 2.15463 0.01699
C 22.13794 6.9751 0.01852
C 23.36539 6.32405 -0.00381
C 23.31383 4.90324 0.03046
C 22.03308 4.26428 0.0296
C 22.14864 2.87819 0.03374
C 23.35713 2.13752 -0.02845
C 23.30765 0.69016 -0.03213
C 22.09916 34.03966 0.02239
C 24.48682 32.63877 0.01153
C 22.11282 8.3977 0.01126
C 25.75095 31.9582 0.02734
C 24.61068 29.81408 0.01515
C 24.59356 28.41158 -0.00225
C 25.82981 27.60863 0.00071
C 25.76164 26.28231 -0.01107
C 24.52318 25.49447 -0.01586
C 24.68407 24.0752 -0.01971
C 25.84943 23.34873 -0.02118
C 25.86317 21.93869 0.00733
C 24.62759 21.31035 -0.00178
C 25.84606 30.53771 -0.0055
C 23.29686 9.14685 -0.01185
C 23.29594 10.55612 -0.01662
C 22.09876 11.29296 -0.00478
C 19.70152 34.04414 -0.04422
C 22.0691 32.62194 0.00654
C 23.33518 31.89096 -0.00703
C 23.376 30.4631 -0.04076
C 22.14344 29.75089 -0.00652
C 22.17137 28.37882 0.0058
C 23.38132 27.68585 -0.00865
C 23.36155 26.27243 0.00675
C 22.14589 25.5428 -0.00311
C 22.20294 24.1573 0.00742
C 23.40259 23.46268 -0.01594
C 23.41656 22.03331 0.0106
C 22.18977 21.27831 -0.01154
C 22.16161 19.90293 -0.01721
C 23.43608 19.17201 -0.02422
C 23.38091 17.79317 0.01277
C 22.1833 17.11655 0.00096
C 22.11327 15.67312 -0.01527
C 23.30258 14.97668 0.01087
C 23.3735 13.52617 0.00199
C 22.15164 12.78053 0.01511
C 24.63193 19.86963 0.00768
C 20.8361 2.2224 -0.00831
C 25.83826 19.20612 -0.0276
C 24.6251 17.08458 -0.04078
C 28.2526 23.36643 -0.0032
C 28.34983 21.97657 0.00622
C 27.13579 21.2534 -0.02815
C 27.03953 19.83206 -0.00942
C 28.3372 19.19056 0.00487
C 28.32688 17.75033 0.00826
C 27.11478 17.08512 -0.00294
C 27.08047 15.72694 0.00152
C 28.25828 14.9114 0.01257
C 27.04575 24.13723 -0.00037
C 28.28593 13.50614 0.02316
C 26.97821 11.33341 0.00194
C 28.22651 10.62159 -0.00621
C 28.19715 9.19765 0.02611
C 27.01521 8.5263 0.02198
C 27.05017 7.1351 0.01094
C 28.31049 6.40226 0.00235
C 28.2548 5.01036 0.01495
C 27.02679 4.24936 0.01259
C 27.06753 2.87458 0.01799
C 27.03023 12.77475 0.04185
C 26.97364 25.52297 -0.01654
C 28.24122 26.17285 -0.00218
C 28.24894 27.58486 -0.00802
C 24.61336 15.66356 0.02117
C 25.8395 14.98499 0.02737
C 25.82077 13.48307 -0.00498
C 24.61063 12.78231 0.00135
C 24.51269 11.34066 0.03102
C 25.7489 10.65567 0.02555
C 25.75079 9.18636 0.01423
C 24.58505 8.46794 -0.00285
C 24.60186 7.06146 -0.009
C 25.81704 6.42433 -0.01199
C 25.81165 4.99869 -0.00229
C 24.56065 4.21122 -0.00938
C 24.62448 2.84544 -0.0264
C 25.81584 2.09618 -0.01154
C 25.82165 0.67785 0.00684
C 24.54331 0.01265 -0.01052
C 26.96532 32.61931 -0.01679
C 28.23025 31.89591 0.00367
C 28.26314 30.47871 0.04306
C 27.03631 29.77803 0.00996
C 27.02084 28.34134 0.00195
C 25.84099 17.75924 0.03005
C 2.46864 32.67902 0.02769
