415
Graphene
C 34.42477 34.07062 0.01295
C 12.34039 17.06694 -0.01275
C 12.24835 15.69388 0.00985
C 13.50489 14.95883 -0.02245
C 13.56556 13.5145 -0.00428
C 12.36148 12.82181 0.03101
C 12.32238 11.42598 -0.01536
C 13.47486 10.61793 -0.02689
C 13.46008 9.13884 -0.01046
C 12.26424 8.42424 -0.00891
C 12.3035 7.03108 0.02819
C 13.5751 17.83028 -0.01111
C 13.58889 6.38393 0.00165
C 12.34137 4.25103 0.02894
C 12.31398 2.80648 -0.01789
C 13.52817 2.16866 0.00444
C 13.51597 0.67813 -0.00925
C 12.30183 33.99276 0.01877
C 14.68883 32.57576 0.01363
C 16.00069 31.87888 -0.02162
C 15.95368 30.47823 0.00415
C 14.68469 29.82666 -0.0014
C 14.71695 28.40961 0.02162
C 13.5126 5.00212 -0.02971
C 15.91638 27.77774 0.0076
C 13.51332 19.23901 0.02841
C 13.60678 22.13975 0.00406
C 11.09812 13.53832 -0.01118
C 9.89061 12.80973 -0.014
C 9.83818 11.37679 0.02147
C 11.08886 10.67989 0.00373
C 11.14208 9.22819 -0.00191
C 9.84832 8.631 0.00438
C 9.82966 7.16007 0.01291
C 11.01738 6.42366 0.00093
C 11.11075 4.94169 0.00057
C 9.90767 4.21204 -0.01634
C 12.35598 19.93152 0.00943
C 9.90064 2.82142 -0.00334
C 11.05342 0.61809 0.01641
C 9.75225 0.05578 -0.00719
C 12.27403 32.59316 0.01364
C 13.44981 31.87568 -0.01062
C 13.5631 30.54158 -0.00033
C 12.37908 29.82345 0.03589
C 12.31415 28.4752 -0.02759
C 13.51007 27.71006 0.0402
C 13.48617 26.40166 0.00572
C 13.48719 23.34084 0.03592
C 11.0989 2.02281 0.02339
C 11.04235 14.90625 -0.00131
C 16.01618 26.34295 0.01241
C 14.70176 24.11775 0.01945
C 17.14945 29.83328 -0.02162
C 17.22724 28.40796 0.00889
C 18.38982 27.68935 -0.00481
C 17.27235 25.73145 0.00979
C 17.30211 24.17298 0.01443
C 18.43128 23.40998 0.03505
C 18.58392 22.03844 -0.02815
C 17.23969 21.24948 -0.04147
C 17.15444 19.84802 -0.05302
C 18.40314 19.14987 0.00213
C 18.43098 30.4304 -0.00619
C 18.4952 17.73762 -0.00066
C 17.18134 15.65329 0.00028
C 18.38837 14.93049 -0.02213
C 18.34284 13.49249 0.03698
C 17.11836 12.84013 -0.00109
C 17.16382 11.39507 -0.00491
C 18.42623 10.6418 0.03338
C 18.44198 9.20155 -0.0258
C 17.22871 8.54443 -0.0331
C 17.22906 7.10794 -0.00316
C 18.41839 6.43908 0.02188
C 17.24665 17.05779 -0.00289
C 14.66618 25.61202 -0.01454
C 18.49663 31.89741 0.01848
C 14.73383 34.02472 -0.03113
C 15.97749 23.4141 0.01416
C 16.07323 22.04899 0.03542
C 14.69144 21.3261 0.02299
C 14.736 19.93378 0.00244
C 15.89774 19.17112 -0.01717
C 15.95911 17.74235 0.05265
C 14.7458 17.05457 -0.01952
C 14.7713 15.62566 -0.02813
C 16.01967 14.91309 0.00374
C 15.94093 13.49279 0.00052
C 17.25199 32.53859 0.02098
C 14.67604 12.73458 -0.03682
C 15.95175 10.64567 0.02058
C 15.97789 9.19418 -0.01957
C 14.75157 8.50156 -0.0108
C 14.79076 7.11345 -0.00368
C 16.00027 6.43276 -0.02696
C 16.02044 4.9305 -0.00114
C 14.73005 4.27981 0.00228
C 14.71723 2.90386 0.00798
C 16.02349 2.12775 0.00422
C 15.98026 0.64246 0.0351
C 14.70824 11.33312 0.01965
C 18.44301 5.02322 -0.01979
C 9.82081 15.6241 -0.02896
C 11.05509 17.73658 0.00488
C 2.49801 2.82844 -0.04999
C 3.69636 2.09707 0.04505
C 3.70478 0.69843 0.03284
C 2.46753 0.04063 -0.04307
C 4.87594 32.66724 0.03189
C 6.09025 32.01999 0.00031
C 6.14856 30.55559 -0.003
C 4.95025 29.81687 0.01402
C 4.89711 28.42587 0.02379
C 6.11343 27.73356 0.00907
C 2.48658 4.27655 -0.03291
C 6.21961 26.31004 0.00643
C 4.96322 24.09018 0.03267
C 6.24484 23.46155 0.02374
C 6.22847 22.05352 0.00402
C 4.86394 21.34579 0.0073
C 4.89405 19.95482 0.0174
C 6.1445 19.21555 0.03828
C 6.09104 17.7959 0.01226
C 4.95041 17.05016 -0.00279
C 4.95615 15.6383 0.01996
C 6.14639 14.87581 -0.03996
C 5.00097 25.54969 -0.01509
C 6.07185 13.42759 0.01465
C 3.67465 4.98255 0.02769
C 2.3877 7.09798 0.00208
C 3.6655 30.52983 0.01138
C 2.40497 29.82177 0.03278
C 2.46838 28.33779 -0.00177
C 3.71931 27.6812 0.04421
C 3.7759 26.31302 0.00088
C 2.47096 25.61937 0.00828
C 2.45528 24.13061 -0.02375
C 3.6107 23.39473 0.00558
C 3.67719 21.9797 -0.0059
C 2.43345 21.32507 -0.01386
C 3.6793 6.43291 0.01707
C 2.46103 19.92286 -0.02805
C 3.6596 17.85605 0.00245
C 2.4587 17.03237 0.02728
C 2.55138 15.60802 -0.00039
C 3.79378 14.91018 0.0064
C 3.70543 13.47936 0.00211
C 2.40699 12.73209 -0.00449
C 2.40357 11.33173 -0.01979
C 3.65641 10.59374 0.02784
C 3.66796 9.19419 -0.01977
C 2.40623 8.5042 -0.00561
C 3.65931 19.24862 0.00081
C 9.79682 17.10277 -0.01004
C 4.90532 12.67992 -0.00074
C 6.14093 10.69424 0.0086
C 7.38252 12.85539 0.01396
C 7.4198 11.39967 0.01849
C 8.58258 10.64538 -0.01142
C 8.64728 9.2693 -0.00562
C 7.4013 8.57409 -0.00494
C 7.35165 7.12105 0.00054
C 8.58882 6.42948 0.03007
C 8.64304 4.98578 -0.00095
C 7.38478 4.31925 0.01572
C 7.33624 2.93073 -0.04848
C 8.64139 13.52879 0.0127
C 8.55717 2.26866 -0.00892
C 7.30137 0.05595 -0.0008
C 9.81222 32.73853 0.0288
C 11.00394 31.94406 0.00393
C 11.08442 30.56497 0.00895
C 9.86764 29.81384 0.00685
C 9.81766 28.44989 0.02888
C 11.05822 27.6803 -0.00482
C 10.98083 26.39838 -0.01384
C 9.79165 19.8773 0.03693
C 11.01969 19.26833 0.01745
C 8.55812 0.82541 -0.01362
C 4.8811 11.27984 -0.00518
C 8.60513 14.96933 0.02635
C 7.3128 17.09495 -0.01303
C 6.17403 9.30336 -0.00643
C 4.93131 8.54934 0.017
C 4.93654 7.1131 -0.03113
C 6.13444 6.39289 -0.02566
C 6.0972 4.98203 -0.00094
C 4.89607 4.30853 0.02322
C 4.83084 2.89713 -0.00725
C 6.04103 2.13979 -0.05697
C 6.02506 0.71123 0.01087
C 4.85381 34.03222 -0.01343
C 7.38581 15.64284 -0.01378
C 7.3088 32.72234 0.00988
C 8.62677 30.57863 0.01305
C 7.39275 29.83838 -0.00077
C 7.36419 28.40355 0.03368
C 8.59046 27.71586 -0.02929
C 8.6453 26.23181 -0.00966
C 7.50532 25.68621 -0.03337
C 7.35653 21.23603 0.01227
C 7.34745 19.88101 0.00873
C 8.59428 19.24724 -0.00049
C 8.54043 17.84946 0.00848
C 8.63824 31.99416 0.0276
C 3.65876 31.93072 -0.00407
C 17.28913 4.19341 0.02691
C 18.46212 2.14893 0.01452
C 30.75965 10.68723 -0.00944
C 30.74885 9.1916 -0.03735
C 29.53096 8.50857 -0.00971
C 29.48393 7.09511 0.01518
C 30.71217 6.41653 0.01908
C 30.75902 5.02729 0.07705
C 29.57549 4.18541 0.0103
C 29.53157 2.75658 0.02108
C 30.74594 2.141 0.00716
C 30.70933 0.74837 0.00307
C 29.51718 11.31835 -0.02155
C 29.46105 0.08198 0.00346
C 33.25412 31.86548 -0.01694
C 33.12934 30.45347 0.01428
C 31.88321 29.82614 -0.02142
C 31.89025 28.37346 0.0544
C 33.15651 27.70907 0.00026
C 33.15177 26.29255 0.00682
C 31.96365 25.53393 -0.01779
C 32.02451 24.10172 0.03794
C 33.21951 23.44098 0.01927
C 33.2434 22.04846 0.01574
C 32.00389 32.5648 0.01713
C 31.96896 21.34553 -0.02383
C 29.57603 12.73137 -0.01461
C 30.68165 14.86844 -0.0405
C 27.06259 4.24058 0.01495
C 27.03865 2.82056 0.01259
C 28.27545 2.17952 0.01799
C 28.26738 0.786 0.01699
C 27.04053 0.01215 -0.00416
C 29.56867 32.73323 0.01177
C 30.6855 31.97137 0.04266
C 30.71499 30.53953 0.01324
C 29.51643 29.82218 0.0014
C 29.57603 28.43084 0.00924
C 30.7828 13.47272 -0.01303
C 30.70291 27.63883 0.02326
C 29.45042 25.56029 0.03265
C 29.49778 24.20102 -0.02049
C 30.76754 23.44586 -0.01854
C 30.73893 21.95554 -0.01415
C 29.44611 21.23452 -0.03039
C 29.50902 19.85193 0.01836
C 30.81574 19.16059 0.03531
C 30.67009 17.7128 -0.00669
C 29.43641 16.98706 0.0101
C 29.46508 15.56256 0.01705
C 30.72221 26.21399 0.00261
C 28.29654 4.85091 0.00235
C 32.00621 19.93779 -0.01429
C 33.2343 17.79007 0.00594
C 1.20862 23.43179 0.00723
C 1.25354 21.98276 0.02712
C 0.0009 21.27489 -0.02213
C 34.41463 19.87841 0.01951
C 1.1988 19.17454 -0.01678
C 1.24315 17.7336 0.01223
C 34.41555 17.0786 0.00648
C 34.38782 15.65592 0.02114
C 1.23662 14.97582 -0.02957
C 1.22185 13.51082 0.00343
C 34.40854 24.15098 0.03076
C 34.433 12.816 -0.02656
C 1.19364 10.64423 -0.00027
C 1.21772 9.27308 -0.00583
C 0.03283 8.50446 -0.02302
C 34.41624 7.06646 -0.02849
C 1.21227 6.38585 0.02931
C 1.24544 4.95687 0.00628
C 34.4203 4.30424 -0.0345
C 34.39979 2.76449 -0.00931
C 1.22059 2.09505 -0.00939
C 1.18564 0.70958 -0.00468
C 34.41142 11.34761 -0.02442
C 33.20147 19.20308 -0.0136
C 34.34297 25.51951 -0.05239
C 1.19209 27.68425 -0.00439
C 31.97582 17.00589 -0.02474
C 31.94669 15.59529 0.00369
C 33.17429 14.88962 0.00455
C 33.19741 13.45826 -0.00644
C 32.03966 12.75472 -0.01839
C 31.99952 11.39121 0.00137
C 33.19546 10.60987 0.00199
C 33.22968 9.14905 0.04381
C 31.93875 8.50334 0.02806
C 31.96851 7.06801 0.01504
C 1.1781 26.24077 -0.00598
C 33.20386 6.35116 -0.00069
C 31.95249 4.32569 -0.03838
C 31.89675 2.84776 0.00349
C 33.1101 2.08277 -0.00323
C 33.16145 0.64642 -0.00841
C 31.90516 34.01694 0.0001
C 0.06805 32.65007 -0.02927
C 1.25781 31.92559 -0.01404
C 1.12866 30.52258 0.01027
C 34.35596 29.75803 0.01831
C 34.41075 28.33846 -0.01037
C 33.20601 4.9613 0.04926
C 17.23951 2.8213 -0.01581
C 28.30529 6.29926 0.01094
C 27.06995 8.47684 0.02611
C 19.6784 0.0475 -0.01721
C 22.1907 32.63651 -0.02422
C 23.30698 31.8612 0.01277
C 23.42193 30.49269 0.00096
C 22.21948 21.17917 -0.01527
C 22.27045 19.90553 0.01087
C 23.41297 19.08744 0.00199
C 23.38577 17.69711 0.01511
C 22.11471 17.0127 -0.00478
C 22.09469 15.60356 -0.01662
C 20.9514 0.67413 -0.01154
C 23.32034 14.88142 -0.01185
C 22.1298 12.81235 0.01852
C 22.18735 11.35415 -0.00381
C 23.43579 10.68485 0.03046
C 23.40095 9.25317 0.0296
C 22.16093 8.54123 0.03374
C 22.11885 7.05553 -0.02845
C 23.34382 6.38642 -0.03213
C 23.37207 4.94615 0.02239
C 22.08513 4.33868 0.01153
C 22.11586 2.91842 0.02734
C 23.33055 13.50693 0.01126
C 23.30509 2.1805 -0.0055
C 20.88004 2.11566 0.0106
C 19.68991 4.25587 0.00742
C 18.41888 0.77733 0.04892
C 17.20023 33.98163 -0.00111
C 19.71795 32.70484 -0.03557
C 20.92562 31.88495 0.03754
C 20.89568 30.40918 0.01739
C 19.70842 29.7617 0.00755
C 19.77124 21.26397 -0.0054
C 19.69772 19.86748 0.00667
C 21.02763 19.19999 0.00143
C 20.92408 17.82303 -0.017
C 19.67171 2.86671 -0.01594
C 19.68541 17.01969 0.00364
C 20.79941 14.91289 -0.02957
C 20.79307 13.49801 -0.04422
C 19.5672 12.7443 0.00654
C 19.65778 11.37044 -0.00703
C 20.91463 10.60327 -0.04076
C 20.8377 9.16706 -0.00652
C 19.64317 8.49909 0.0058
C 19.64627 7.12581 -0.00865
C 20.82982 6.38481 0.00675
C 20.88709 5.00269 -0.00311
C 19.60594 15.65179 -0.00831
C 27.08351 7.0627 0.02198
C 23.34179 0.74526 0.01515
C 24.57863 32.53557 0.00071
C 28.31065 31.96247 -0.01679
C 28.32678 30.49921 0.00367
C 27.01786 29.84675 0.04306
C 27.25377 28.54076 0.00996
C 28.28039 27.70833 0.00195
C 28.18682 26.22659 -0.00802
C 27.03529 25.42796 -0.00218
C 27.07987 24.26774 -0.01654
C 28.18629 23.44638 -0.00037
C 28.26373 21.99051 -0.0032
C 27.14798 32.71502 -0.01052
C 27.08143 21.35657 0.00622
C 28.25492 19.16676 -0.00942
C 28.2288 17.7306 0.00487
C 27.00814 17.08439 0.00826
C 27.05794 15.64524 -0.00294
C 28.23116 14.88118 0.00152
C 28.25326 13.41452 0.01257
C 27.0727 12.73097 0.02316
C 27.02282 11.3112 0.04185
C 28.29402 10.62982 0.00194
C 28.31057 9.20198 -0.00621
C 27.03395 19.96587 -0.02815
C 22.18239 34.07247 -0.00225
C 24.52527 34.04854 0.00684
C 25.83757 2.06714 -0.0264
C 25.84371 31.9965 -0.01107
C 25.81394 30.57731 -0.01586
C 24.4984 29.86503 -0.01971
C 25.78983 21.90393 -0.02118
C 24.75527 21.28088 0.00733
C 24.51643 19.96072 -0.00178
C 25.83083 19.24851 0.00768
C 25.79009 17.78066 -0.0276
C 24.60385 16.97602 0.03005
C 24.61854 15.5562 -0.04078
C 25.72752 0.63395 -0.01154
C 25.89128 14.8841 0.02117
C 24.58933 12.78005 -0.00498
C 24.59838 11.39256 0.00135
C 25.77585 10.64501 0.03102
C 25.82194 9.23512 0.02555
C 24.59042 8.4429 0.01423
C 24.54168 7.04883 -0.00285
C 25.79602 6.37578 -0.009
C 25.81594 5.01923 -0.01199
C 24.6405 4.28684 -0.00229
C 24.53716 2.76659 -0.00938
C 25.87327 13.4736 0.02737
C 2.50164 32.70739 -0.01299
