367
Graphene
C 0.02093 0.04069 0.01295
C 12.36643 32.64689 -0.02813
C 13.49121 32.01375 0.00374
C 13.53022 30.58087 0.00052
C 12.31942 29.81107 -0.03682
C 12.36663 28.44704 0.01965
C 13.57969 27.69547 0.02058
C 13.37783 26.20634 -0.01957
C 12.30154 25.59414 -0.0108
C 13.48002 13.30837 -0.00368
C 12.28972 12.7562 -0.02696
C 12.3693 11.36348 -0.00114
C 13.58647 10.60562 0.00228
C 13.56583 9.20309 0.00798
C 12.35383 8.50467 0.00422
C 12.25831 7.18674 0.0351
C 13.51425 6.33023 -0.03113
C 13.4946 4.87601 0.02098
C 12.22774 4.20299 0.01848
C 12.33614 2.76539 -0.00619
C 9.77586 34.02954 -0.01952
C 13.51969 2.17118 -0.02162
C 11.04127 0.65639 0.05265
C 9.80644 2.87571 0.00244
C 11.00298 30.59431 0.00165
C 9.85235 29.88061 -0.02971
C 9.87887 28.44084 0.02894
C 11.11292 27.72415 -0.01789
C 11.07763 26.27944 0.00444
C 9.82552 25.56658 -0.00925
C 9.84934 24.158 0.01877
C 9.95661 15.58847 0.01363
C 11.00708 15.03218 -0.02162
C 11.06 13.52038 0.00415
C 9.81801 12.84465 -0.0014
C 9.86699 11.28775 0.02162
C 11.09431 10.63979 0.0076
C 11.10028 9.24649 0.01241
C 9.91546 8.50962 -0.01454
C 9.80985 7.04331 0.01945
C 11.05364 6.42552 0.01416
C 11.08593 4.9332 0.03542
C 9.76297 4.25207 0.02299
C 11.0948 2.09838 -0.01717
C 11.16916 31.95926 0.02819
C 13.51294 0.75929 0.00889
C 14.77788 32.69812 0.00979
C 17.17741 29.89875 -0.00111
C 17.21351 28.44706 -0.03557
C 18.40782 27.58435 0.03754
C 18.43018 26.24906 0.01739
C 18.51522 14.99192 0.00755
C 18.43904 13.46382 -0.0054
C 17.16601 12.8031 0.00667
C 17.20616 11.38602 0.00143
C 18.47692 10.65916 -0.017
C 18.51609 9.29085 0.00364
C 17.24104 8.50486 -0.00831
C 17.22797 7.10724 -0.02957
C 18.47065 6.38111 -0.04422
C 18.46706 4.91719 0.00654
C 17.16249 4.25544 -0.00703
C 17.21106 2.80064 -0.04076
C 18.49513 2.08024 -0.00652
C 18.46236 0.6769 0.0058
C 17.20632 0.03034 -0.00865
C 18.43117 30.53124 0.04892
C 12.2698 34.07812 -0.00481
C 18.37883 31.98128 0.01452
C 14.72887 0.05036 0.02691
C 15.95466 31.95755 0.01443
C 16.00995 30.51085 0.03505
C 14.76349 29.82411 -0.02815
C 14.76 28.43636 -0.04147
C 15.99304 27.71327 -0.05302
C 16.04916 26.31209 0.00213
C 15.98886 13.48241 -0.00066
C 14.76736 12.75823 -0.00289
C 14.74486 11.31114 0.00028
C 15.99781 10.64586 -0.02213
C 16.03936 9.23623 0.03698
C 14.73093 8.50581 -0.00109
C 14.69683 7.08079 -0.00491
C 15.94128 6.40421 0.03338
C 15.95905 4.95271 -0.0258
C 14.69639 4.26187 -0.0331
C 14.75579 2.86119 -0.00316
C 16.02865 2.11117 0.02188
C 15.96453 0.70783 -0.01979
C 17.19864 32.61162 -0.01581
C 19.62225 32.63623 0.00675
C 9.859 32.62399 -0.00891
C 8.56281 0.6981 -0.02689
C 3.71258 6.36775 0.00873
C 3.75611 4.99184 -0.00049
C 2.44696 4.32068 0.00848
C 2.48491 2.82346 -0.01303
C 3.68021 2.14088 -0.01378
C 3.67461 0.74788 0.02635
C 2.48215 0.05592 0.0127
C 4.92413 32.6153 0.01396
C 6.14515 31.97692 0.01849
C 6.11394 30.55977 -0.01142
C 4.89564 29.81511 -0.00562
C 4.93578 28.39911 -0.00494
C 6.16476 27.74181 0.00054
C 6.18115 26.22057 0.03007
C 4.9172 25.59027 -0.00095
C 4.93438 24.16318 0.01572
C 6.15954 23.45932 -0.04848
C 6.07602 22.06615 -0.00892
C 4.92383 21.32326 -0.01362
C 2.45442 7.0775 0.01227
C 4.86602 19.88737 -0.0008
C 2.40385 8.55925 -0.03337
C 3.739 10.61249 -0.02929
C 3.73583 30.56255 0.01465
C 2.45295 29.80144 -0.00074
C 2.55838 28.37307 -0.00518
C 3.71694 27.6582 0.0086
C 3.63329 26.25829 -0.00643
C 2.41875 25.6617 0.017
C 2.47574 24.16807 -0.03113
C 3.71598 23.41915 -0.02566
C 3.65173 22.02683 -0.00094
C 2.495 21.27945 0.02322
C 2.43823 19.83484 -0.00725
C 3.75939 19.15105 -0.05697
C 3.60203 17.70257 0.01087
C 2.42754 17.11993 -0.01343
C 2.39628 15.68101 0.00988
C 3.64232 14.94457 0.0276
C 3.72171 13.54553 0.01305
C 2.46965 12.72054 -0.00077
C 2.52323 11.36739 0.03368
C 3.69116 9.27161 -0.00966
C 7.35841 0.04175 -0.01046
C 6.17272 17.70811 0.0288
C 4.86723 15.58116 0.00895
C 7.35639 24.13143 -0.00719
C 8.7081 23.44161 0.01364
C 8.51313 21.94491 -0.01062
C 7.45862 21.43167 -0.00033
C 7.31879 17.1469 0.03589
C 7.34492 15.64582 -0.02759
C 8.67968 14.92845 0.0402
C 8.6688 13.50201 0.00572
C 7.39619 12.83299 0.03592
C 7.33376 11.26557 0.00406
C 8.58555 10.62885 0.00943
C 8.55717 9.22421 0.02841
C 7.30914 8.47851 -0.01111
C 7.37578 7.08724 -0.01275
C 8.57622 6.4223 0.00985
C 8.58188 5.00469 -0.02245
C 7.40128 4.22283 -0.00428
C 7.35318 2.87055 0.03101
C 8.58702 2.15946 -0.01536
C 7.4273 25.58141 0.01641
C 4.8949 17.04929 0.00393
C 8.62521 26.29144 0.02339
C 7.43172 28.43208 -0.01634
C 6.12292 14.91967 0.00685
C 6.11184 13.54516 0.02888
C 4.95427 12.77146 -0.00482
C 4.93804 11.40628 -0.01384
C 6.13081 10.67153 0.03693
C 6.16553 9.27762 0.01745
C 4.87157 8.62185 0.00488
C 4.89907 7.18584 -0.01004
C 6.14926 6.43687 -0.02896
C 6.08615 4.99558 -0.00131
C 4.93472 4.2957 -0.01118
C 4.94076 2.82919 -0.014
C 6.15615 2.12634 0.02147
C 6.1212 0.76403 0.00373
C 4.8928 0.0536 -0.00191
C 7.38812 32.71056 0.00438
C 8.56613 31.943 0.01291
C 8.55679 30.57792 0.00093
C 7.38182 29.81468 0.00057
C 8.64762 27.69162 -0.00334
C 3.65063 32.00288 -0.03996
C 20.86183 31.99131 -0.00311
C 19.7169 29.871 -0.01594
C 30.76268 2.08043 0.00307
C 30.71082 0.71489 0.00346
C 29.43988 34.04662 0.01713
C 31.99131 32.66773 -0.01694
C 33.17922 31.98842 0.01428
C 33.10386 30.54399 -0.02142
C 31.8667 29.7958 0.0544
C 31.95286 28.34601 0.00026
C 33.17333 27.73577 0.00682
C 33.14119 26.24149 -0.01779
C 32.02914 24.20688 0.03794
C 33.19674 23.41249 0.01927
C 33.21136 21.9876 0.01574
C 31.9675 21.34613 -0.02383
C 32.0147 19.88034 -0.01429
C 33.22469 19.21477 -0.0136
C 33.18239 17.74101 0.00594
C 31.96063 17.02724 -0.02474
C 31.97438 15.6029 0.00369
C 29.46117 2.88433 0.00716
C 33.2569 14.89469 0.00455
C 29.51188 4.2125 0.02108
C 30.78685 6.3498 0.07705
C 27.03828 0.03964 0.03265
C 29.49028 32.661 -0.02049
C 30.76534 31.94612 -0.01854
C 30.73048 30.56201 -0.01415
C 30.701 21.95371 -0.03039
C 29.57718 21.36966 0.01836
C 29.58158 19.9335 0.03531
C 30.77032 19.09215 -0.00669
C 30.77901 17.69383 0.0101
C 29.53154 17.06779 0.01705
C 29.52572 15.66447 -0.0405
C 30.76105 14.87359 -0.01303
C 30.68713 13.496 -0.01461
C 29.54771 12.71741 -0.02155
C 29.4631 11.31196 -0.00944
C 30.70873 10.661 -0.03735
C 30.70697 9.21287 -0.00971
C 29.46256 8.55657 0.01518
C 29.51098 7.10362 0.01908
C 30.76217 4.90929 0.0103
C 28.3033 0.68737 0.00261
C 33.19831 13.51236 -0.00644
C 32.00956 11.35967 0.00137
C 0.01004 19.79221 0.01951
C 1.2365 19.15652 -0.01678
C 1.24979 17.72986 0.01223
C 34.38602 17.02202 0.00648
C 0.01579 15.58755 0.02114
C 1.22325 14.92932 -0.02957
C 1.22048 13.49975 0.00343
C 0.02065 12.85365 -0.02656
C 34.40128 11.36352 -0.02442
C 1.26641 10.73297 -0.00027
C 1.17092 9.28276 -0.00583
C 34.41259 8.53308 -0.02302
C 34.42237 7.08857 -0.02849
C 1.2705 6.42656 0.02931
C 1.24783 4.95459 0.00628
C 34.39565 4.21481 -0.0345
C 34.43214 2.84477 -0.00931
C 1.2584 2.16121 -0.00939
C 1.27621 0.79733 -0.00468
C 34.38116 21.20241 -0.02213
C 31.93572 12.75806 -0.01839
C 1.20299 21.9994 0.02712
C 0.07434 24.1585 0.03076
C 33.13059 10.60433 0.00199
C 33.12891 9.22853 0.04381
C 31.9306 8.48316 0.02806
C 31.94661 7.08399 0.01504
C 33.18438 6.34922 -0.00069
C 33.20395 5.02395 0.04926
C 31.98313 4.31648 -0.03838
C 31.98513 2.83769 0.00349
C 33.20181 2.10454 -0.00323
C 33.14931 0.67236 -0.00841
C 31.90041 0.00312 0.0001
C 0.01817 32.69111 -0.02927
C 1.27621 31.90047 -0.01404
C 1.23106 30.51607 0.01027
C 34.37921 29.87612 0.01831
C 0.01589 28.44352 -0.01037
C 1.23122 27.76922 -0.00439
C 1.18068 26.31515 -0.00598
C 34.37209 25.57657 -0.05239
C 1.2405 23.48501 0.00723
C 20.95475 30.53552 0.00742
C 28.29945 2.12346 0.02326
C 27.04297 4.21469 0.0014
C 20.85871 0.70923 0.02734
C 19.64494 34.07339 -0.0055
C 22.11811 32.75547 0.01515
C 23.33267 31.897 -0.00225
C 22.12491 29.82027 0.00071
C 21.95509 21.27672 -0.01107
C 22.11125 19.90251 -0.01586
C 23.42348 19.16644 -0.01971
C 23.27932 17.67786 -0.02118
C 22.07932 17.00274 0.00733
C 22.14505 15.61351 -0.00178
C 23.34667 14.87286 0.00768
C 23.32087 13.50289 -0.0276
C 22.16232 12.7287 0.03005
C 22.14249 11.33939 -0.04078
C 23.38905 10.6702 0.02117
C 23.35702 9.2253 0.02737
C 22.16415 8.46084 -0.00498
C 22.14478 7.07383 0.00135
C 20.87323 2.11207 0.01153
C 23.37599 6.39162 0.03102
C 19.74156 2.80079 0.02239
C 20.90252 4.98414 -0.02845
C 19.6108 28.40273 0.0106
C 20.79652 27.58537 -0.01154
C 20.88016 26.28489 -0.01721
C 19.59346 25.5374 -0.02422
C 19.82068 24.12447 0.01277
C 20.80104 23.36805 0.00096
C 20.87981 22.03968 -0.01527
C 20.8506 18.99272 0.01087
C 20.9167 17.79312 0.00199
C 19.62309 15.53883 0.01511
C 20.93876 14.86199 -0.00478
C 20.9499 13.43006 -0.01662
C 19.7241 12.75398 -0.01185
C 19.67364 11.34933 0.01126
C 20.92616 10.55081 0.01852
C 20.87648 9.16702 -0.00381
C 19.66291 8.54039 0.03046
C 19.7338 7.03555 0.0296
C 21.00053 6.34563 0.03374
C 19.65097 4.24096 -0.03213
C 27.05812 2.81298 0.00924
C 23.39709 4.97156 0.02555
C 22.1352 2.79885 -0.00285
C 25.867 0.7209 -0.00294
C 24.59077 34.07143 0.00152
C 27.06188 32.63879 0.01257
C 28.34095 31.93336 0.02316
C 27.12505 19.86641 0.04185
C 28.32679 19.23025 0.00194
C 28.29607 17.79147 -0.00621
C 27.09392 16.96451 0.02611
C 27.04842 15.61371 0.02198
C 28.32764 14.94211 0.01094
C 28.26783 13.54897 0.00235
C 27.0178 12.7997 0.01495
C 27.05385 11.39561 0.01259
C 28.23576 10.66602 0.01799
C 28.272 9.22276 0.01699
C 27.0735 8.54695 -0.00416
C 27.02742 7.15262 0.01177
C 28.27966 6.36924 0.04266
C 28.31378 5.0069 0.01324
C 25.85027 2.13034 0.00826
C 22.18418 4.21415 0.01423
C 24.51565 2.79903 0.00487
C 25.85943 4.96519 -0.02815
C 23.34563 2.08013 -0.009
C 23.50549 0.75375 -0.01199
C 22.10121 0.06003 -0.00229
C 24.60357 32.60006 -0.00938
C 25.84589 31.95315 -0.0264
C 24.47981 19.89691 -0.01154
C 25.74344 19.22687 0.00684
C 25.78433 17.72911 -0.01052
C 24.53965 17.01804 -0.01679
C 24.61361 15.57348 0.00367
C 25.72887 14.86693 0.04306
C 25.80167 13.49046 0.00996
C 24.53785 12.81187 0.00195
C 24.54952 11.35465 -0.00802
C 25.78448 10.69109 -0.00218
C 25.81871 9.25331 -0.01654
C 24.60082 8.51105 -0.00037
C 24.58245 7.09067 -0.0032
C 25.83687 6.3038 0.00622
C 24.61768 4.23787 -0.00942
C 2.44278 32.66047 0.01996
