339
Graphene
C 0.01509 0.02 0.01295
C 11.09934 19.17596 -0.02162
C 11.03224 17.80233 0.00889
C 9.81673 17.07173 -0.00481
C 9.83499 15.5986 0.00979
C 11.10949 14.95745 0.01443
C 11.06973 13.48522 0.03505
C 9.79656 12.75706 -0.02815
C 9.83179 11.37158 -0.04147
C 11.04649 10.60664 -0.05302
C 11.05675 9.20416 0.00213
C 9.8625 8.52747 -0.00066
C 9.8577 7.07797 -0.00289
C 11.13133 6.37982 0.00028
C 11.11503 4.95167 -0.02213
C 9.81782 4.31884 0.03698
C 9.84136 2.77739 -0.00109
C 11.06504 2.06015 -0.00491
C 9.80798 19.86634 -0.00619
C 11.08433 0.66073 0.03338
C 9.81198 21.26325 0.01848
C 11.03803 23.40308 -0.03113
C 7.39801 8.47636 0.05265
C 7.34386 7.1063 -0.01952
C 8.54654 6.41292 -0.02813
C 8.62792 4.9816 0.00374
C 7.37396 4.2616 0.00052
C 7.41598 2.86617 -0.03682
C 8.62723 2.13528 0.01965
C 8.60444 0.692 0.02058
C 7.37537 34.07317 -0.01957
C 9.85763 32.67923 -0.0108
C 11.08539 31.99625 -0.00368
C 11.05421 30.50817 -0.02696
C 9.83381 29.85838 -0.00114
C 9.85133 28.37603 0.00228
C 11.06953 27.66872 0.00798
C 9.81471 25.61147 0.00422
C 9.90532 24.12108 0.0351
C 11.04463 21.97836 0.02098
C 9.8429 0.02038 -0.0258
C 12.3006 32.6185 -0.0331
C 13.4719 31.98093 -0.00316
C 14.80781 17.04889 -0.00652
C 14.81335 15.61728 0.0058
C 15.98335 14.91514 -0.00865
C 16.0203 13.50124 0.00675
C 14.72719 12.83728 -0.00311
C 14.75801 11.37039 0.00742
C 16.00052 10.56953 -0.01594
C 16.00122 9.18587 0.0106
C 14.75412 8.56787 -0.01154
C 14.74488 7.08545 -0.01721
C 15.93704 6.39518 -0.02422
C 15.97433 4.97063 0.01277
C 14.73742 4.21871 0.00096
C 14.78145 2.88628 -0.01527
C 16.00046 2.07915 0.01087
C 16.00663 0.69089 0.00199
C 14.74836 34.06009 0.01511
C 16.02675 17.7105 -0.04076
C 14.68207 32.62268 -0.00703
C 12.2864 0.01585 0.00654
C 13.53304 0.69588 -0.04422
C 12.32072 19.85121 0.02188
C 13.52997 19.19531 -0.01979
C 13.51348 17.77906 0.02691
C 12.27998 17.05515 -0.01581
C 12.26295 15.65227 0.01452
C 13.52332 14.91562 0.04892
C 13.5368 13.51066 -0.00111
C 12.30573 12.73963 -0.03557
C 8.62477 9.22802 -0.01717
C 12.3262 11.37715 0.03754
C 13.51443 9.24506 0.00755
C 12.33867 8.52255 -0.0054
C 12.29642 7.11349 0.00667
C 13.54467 6.34825 0.00143
C 13.51452 4.9456 -0.017
C 12.30359 4.29218 0.00364
C 12.34295 2.8636 -0.00831
C 13.51455 2.1448 -0.02957
C 13.52132 10.64226 0.01739
C 18.4244 17.7544 -0.00478
C 8.62035 10.63266 0.00244
C 7.33266 12.78043 0.03542
C 2.44217 8.50709 -0.01384
C 2.49268 7.08147 0.03693
C 3.66586 6.36334 0.01745
C 3.66334 4.94294 0.00488
C 2.39639 4.25774 -0.01004
C 2.4586 2.85909 -0.02896
C 3.66781 2.14304 -0.00131
C 3.72438 0.67762 -0.01118
C 2.48046 0.01092 -0.014
C 4.89459 32.70327 0.02147
C 6.16976 31.93824 0.00373
C 6.13797 30.56376 -0.00191
C 4.94392 29.82419 0.00438
C 4.90576 28.44235 0.01291
C 6.17493 27.65449 0.00093
C 6.14305 26.27514 0.00057
C 4.90262 25.59671 -0.01634
C 3.66489 9.23121 -0.00482
C 4.9399 24.15675 -0.00334
C 3.69075 10.66519 0.02888
C 2.48052 12.76126 0.00895
C 3.71581 30.54443 0.02635
C 2.47922 29.84566 0.0127
C 2.46223 28.39541 0.01396
C 3.65963 27.75547 0.01849
C 3.72825 26.29968 -0.01142
C 2.44647 25.52484 -0.00562
C 2.44638 24.10109 -0.00494
C 3.68117 23.44317 0.00054
C 3.71732 21.95648 0.03007
C 2.49764 21.30085 -0.00095
C 2.42158 19.88484 0.01572
C 3.70382 19.14786 -0.04848
C 3.70534 17.73348 -0.00892
C 2.39637 17.03144 -0.01362
C 2.43004 15.70539 -0.0008
C 3.6997 14.91628 0.0288
C 3.71802 13.50128 0.00393
C 2.44358 11.39337 0.00685
C 6.19122 23.4429 0.02339
C 6.13931 22.00861 0.01641
C 4.97947 21.2995 -0.00719
C 8.55778 30.5149 0.00165
C 7.36858 29.88694 -0.02971
C 7.35071 28.42218 0.02894
C 8.58581 27.72017 -0.01789
C 8.62194 26.29015 0.00444
C 7.36757 25.51092 -0.00925
C 7.40779 24.1486 0.01877
C 8.64327 23.45282 0.01363
C 8.60865 22.0114 -0.02162
C 7.34409 21.30598 0.00415
C 7.3675 19.85692 -0.0014
C 8.61032 19.16572 0.02162
C 8.63139 17.73277 0.0076
C 7.37715 17.01516 0.01241
C 7.38659 15.61388 -0.01454
C 8.60502 14.9576 0.01945
C 8.56876 13.52285 0.01416
C 8.66381 31.93515 0.02819
C 7.45396 32.65114 -0.00891
C 4.9558 0.05152 -0.01046
C 6.1206 0.64294 -0.02689
C 4.90175 19.88629 0.01364
C 6.1386 19.22211 -0.01062
C 6.10539 17.71925 -0.00033
C 4.90848 17.03344 0.03589
C 4.90757 15.62227 -0.02759
C 6.14172 14.93538 0.0402
C 6.15398 13.44835 0.00572
C 4.88318 12.82473 0.03592
C 7.41394 11.37233 0.02299
C 4.92655 11.386 0.00406
C 6.13029 9.23997 0.02841
C 4.91397 8.51711 -0.01111
C 4.94455 7.15806 -0.01275
C 6.14731 6.3966 0.00985
C 6.12197 5.00787 -0.02245
C 4.9273 4.27044 -0.00428
C 4.92441 2.87532 0.03101
C 6.13175 2.13089 -0.01536
C 6.16274 10.66722 0.00943
C 3.67013 32.033 -0.01378
C 17.18947 17.06925 -0.01662
C 18.48683 14.89388 0.01126
C 29.48559 2.82339 -0.02142
C 30.7748 2.15193 0.0544
C 30.75864 0.71613 0.00026
C 29.5097 34.06416 0.00682
C 31.95037 32.67031 -0.01779
C 33.18936 31.98798 0.03794
C 33.23852 30.52702 0.01927
C 33.18274 27.66589 0.01574
C 33.2136 22.04638 -0.02383
C 31.964 19.85712 -0.01429
C 33.21924 19.16846 -0.0136
C 33.15154 17.79068 0.00594
C 31.96148 17.06224 -0.02474
C 32.02758 15.6295 0.00369
C 33.22865 14.85552 0.00455
C 33.22319 13.48413 -0.00644
C 31.92501 12.78263 -0.01839
C 29.52788 4.25244 0.01428
C 31.94969 11.36055 0.00137
C 30.69858 4.96866 -0.01694
C 29.49054 7.08468 0.00346
C 27.0481 2.7844 -0.00669
C 28.27972 2.15568 0.0101
C 28.25829 0.70273 0.01705
C 27.09594 0.02996 -0.0405
C 29.53065 32.63618 -0.01303
C 30.71191 31.97201 -0.01461
C 30.77634 19.19467 -0.02155
C 30.77671 17.72699 -0.00944
C 29.52239 17.11236 -0.03735
C 29.4903 15.60907 -0.00971
C 30.74881 14.91238 0.01518
C 30.74168 13.50903 0.01908
C 29.48566 12.82309 0.07705
C 29.51877 11.34459 0.0103
C 30.75667 10.63671 0.02108
C 30.7791 9.19247 0.00716
C 29.51567 8.5173 0.00307
C 30.71407 6.39731 0.01713
C 33.19337 10.64344 0.00199
C 33.1698 9.23465 0.04381
C 31.9795 8.49521 0.02806
C 1.20758 17.75826 0.01223
C 0.03036 17.03908 0.00648
C 34.42571 15.56411 0.02114
C 1.2482 14.88583 -0.02957
C 1.24413 13.50931 0.00343
C 34.43243 12.77272 -0.02656
C 34.41635 11.34176 -0.02442
C 1.18779 10.69196 -0.00027
C 1.26238 9.193 -0.00583
C 34.39713 8.49623 -0.02302
C 34.40688 7.11637 -0.02849
C 1.19419 6.35124 0.02931
C 1.18976 4.97229 0.00628
C 34.42552 4.23209 -0.0345
C 0.01647 2.79361 -0.00931
C 1.2777 2.13542 -0.00939
C 1.25492 0.73155 -0.00468
C 1.27802 19.17606 -0.01678
C 34.42819 19.8385 0.01951
C 34.42717 21.30542 -0.02213
C 1.23899 22.00888 0.02712
C 31.93049 7.10935 0.01504
C 33.20471 6.38336 -0.00069
C 33.20147 4.97841 0.04926
C 31.96754 4.27065 -0.03838
C 31.9957 2.91319 0.00349
C 33.18817 2.11766 -0.00323
C 33.22525 0.71969 -0.00841
C 31.95074 0.0199 0.0001
C 27.05199 4.24775 0.03531
C 34.42638 32.64944 -0.02927
C 1.26401 30.55378 0.01027
C 0.00575 29.81217 0.01831
C 34.41753 28.39085 -0.01037
C 1.23105 27.67992 -0.00439
C 1.24461 26.27638 -0.00598
C 0.01729 25.61921 -0.05239
C 34.39324 24.10891 0.03076
C 1.19946 23.43201 0.00723
C 1.2258 31.96448 -0.01404
C 17.24892 15.609 -0.01185
C 28.25423 4.92807 0.01836
C 27.01477 7.12841 -0.01415
C 20.89463 10.6501 -0.0276
C 20.8802 9.24239 0.03005
C 19.63974 8.46885 -0.04078
C 19.66076 7.15017 0.02117
C 20.9242 6.43108 0.02737
C 20.94249 5.00279 -0.00498
C 19.68313 4.27201 0.00135
C 19.65042 2.81011 0.03102
C 20.84906 2.11772 0.02555
C 20.90471 0.72835 0.01423
C 19.71362 34.0362 -0.00285
C 22.14165 32.66098 -0.009
C 23.36487 17.74148 -0.01199
C 22.11185 17.09117 -0.00229
C 22.15488 15.6766 -0.00938
C 23.33524 14.93027 -0.0264
C 23.37465 13.50334 -0.01154
C 19.64947 11.38178 0.00768
C 22.1343 12.78274 0.00684
C 19.68192 12.74918 -0.00178
C 20.87617 14.88634 -0.02118
C 18.423 13.45857 0.01852
C 17.21338 12.77097 -0.00381
C 17.20871 11.38796 0.03046
C 18.46118 10.61424 0.0296
C 18.43313 9.19285 0.03374
C 17.18457 8.49724 -0.02845
C 17.21012 7.09933 -0.03213
C 18.47559 6.44178 0.02239
C 18.42897 4.93174 0.01153
C 17.15842 4.23297 0.02734
C 17.21614 2.83024 -0.0055
C 18.43456 2.11225 0.01515
C 18.41457 0.71896 -0.00225
C 17.21285 0.01703 0.00071
C 20.90858 17.72136 -0.01107
C 19.70533 17.05219 -0.01586
C 19.66165 15.6226 -0.01971
C 20.8949 13.4642 0.00733
C 22.11796 11.31369 -0.01052
C 23.37669 10.62917 -0.01679
C 23.36123 9.24388 0.00367
C 25.87344 4.94287 0.01094
C 24.599 4.28284 0.00235
C 24.5339 2.83304 0.01495
C 25.7869 2.12838 0.01259
C 25.83284 0.65961 0.01799
C 24.56541 34.0717 0.01699
C 27.08721 32.64436 -0.00416
C 28.27156 17.74056 0.01177
C 27.02066 17.03272 0.04266
C 27.01007 15.58303 0.01324
C 28.29341 14.89386 0.0014
C 28.28677 13.46206 0.00924
C 27.09964 12.72737 0.02326
C 27.05781 11.32175 0.00261
C 28.29983 10.61681 0.03265
C 28.27723 9.18108 -0.02049
C 27.07422 8.49029 -0.01854
C 25.79869 6.36946 0.02198
C 24.59506 7.13334 0.02611
C 24.62523 8.50105 -0.00621
C 25.87958 9.20704 0.00194
C 22.13903 8.51446 0.04306
C 22.12173 7.09704 0.00996
C 23.37777 6.39811 0.00195
C 23.3753 4.97095 -0.00802
C 22.17258 4.2952 -0.00218
C 22.10727 2.84009 -0.01654
C 23.3636 2.127 -0.00037
C 23.4146 0.71739 -0.0032
C 28.34845 6.41338 -0.03039
C 22.14421 0.01778 0.00622
C 25.83064 17.76045 -0.00942
C 24.60753 16.98383 0.00487
C 24.57013 15.61503 0.00826
C 25.82606 14.93532 -0.00294
C 25.81257 13.51387 0.00152
C 24.58989 12.78829 0.01257
C 24.58411 11.35542 0.02316
C 25.81151 10.65336 0.04185
C 24.5947 32.62724 -0.02815
C 2.50589 32.68084 -0.01303
