415
Graphene
C 34.35511 34.05202 0.01295
C 13.57301 17.82994 -0.01275
C 12.33038 17.11992 0.00985
C 12.31042 15.66765 -0.02245
C 13.53146 14.96299 -0.00428
C 13.49795 13.53328 0.03101
C 12.24488 12.70852 -0.01536
C 12.23365 11.26488 -0.02689
C 13.57156 10.64529 -0.01046
C 13.50239 0.42977 -0.00891
C 12.20164 0.00755 0.02819
C 13.56688 19.25852 -0.01111
C 14.75442 32.49457 0.00165
C 16.03154 30.43925 0.02894
C 14.79848 29.7098 -0.01789
C 14.77295 28.37501 0.00444
C 16.0516 27.64675 -0.00925
C 16.01627 26.25797 0.01877
C 14.75653 25.60195 0.01363
C 14.7942 24.12999 -0.02162
C 15.93763 23.42282 0.00415
C 15.99681 22.04565 -0.0014
C 14.73981 21.31328 0.02162
C 15.97362 31.93267 -0.02971
C 14.75086 19.91947 0.0076
C 12.2871 19.9726 0.02841
C 13.44429 22.07073 0.00406
C 9.80146 20.00432 -0.01118
C 11.04334 19.29296 -0.014
C 11.15871 17.86433 0.02147
C 9.86191 17.18288 0.00373
C 9.85579 15.74353 -0.00191
C 11.09198 14.97821 0.00438
C 11.07418 13.51969 0.01291
C 9.89442 12.93368 0.00093
C 9.83114 11.48439 0.00057
C 10.93599 10.60506 -0.01634
C 12.27221 21.33288 0.00943
C 11.00781 0.70426 -0.00334
C 12.23573 32.6374 0.01641
C 13.46644 31.92269 -0.00719
C 13.56063 30.46412 0.01364
C 12.28658 29.83108 -0.01062
C 12.31499 28.43475 -0.00033
C 13.57105 27.68801 0.03589
C 13.48833 26.30569 -0.02759
C 12.29182 25.61393 0.0402
C 12.24833 24.24202 0.00572
C 13.4651 23.50663 0.03592
C 9.67045 0.01113 0.02339
C 9.83628 21.41364 -0.00131
C 16.07071 19.20015 0.01241
C 14.7201 17.10542 0.01945
C 17.18806 15.63808 -0.02162
C 18.48225 14.87201 0.00889
C 18.46699 13.3939 -0.00481
C 17.25337 12.8098 0.00979
C 17.16217 11.38397 0.01443
C 18.3562 10.63773 0.03505
C 18.27876 9.1431 -0.02815
C 16.92261 8.34304 -0.04147
C 17.10176 6.91081 -0.05302
C 18.43478 6.3387 0.00213
C 17.22918 17.04263 -0.00619
C 18.56771 4.90397 -0.00066
C 17.00225 3.01385 0.00028
C 18.29644 2.21233 -0.02213
C 18.36139 0.75175 0.03698
C 17.15911 0.02911 -0.00109
C 19.60868 32.68726 -0.00491
C 20.83812 32.07589 0.03338
C 20.90089 30.62871 -0.0258
C 19.68142 29.85463 -0.0331
C 19.68942 28.39326 -0.00316
C 20.99512 27.66713 0.02188
C 17.35437 4.31888 -0.00289
C 15.97454 17.75239 -0.01454
C 18.48232 17.75743 0.01848
C 17.22676 19.88615 -0.03113
C 14.74822 15.68878 0.01416
C 16.04465 14.8887 0.03542
C 16.01889 13.41798 0.02299
C 14.73448 12.81453 0.00244
C 14.74566 11.43104 -0.01717
C 15.98165 10.71631 0.05265
C 15.85593 9.35852 -0.01952
C 15.82949 2.17109 -0.02813
C 15.97751 0.68829 0.00374
C 14.74292 33.94613 0.00052
C 18.42764 19.14843 0.02098
C 17.17003 32.65668 -0.03682
C 18.48428 30.54302 0.02058
C 17.25137 29.78324 -0.01957
C 17.27654 28.37748 -0.0108
C 18.48313 27.63888 -0.00368
C 18.38862 26.24742 -0.02696
C 17.21935 25.49416 -0.00114
C 17.22179 24.13481 0.00228
C 18.43846 23.33637 0.00798
C 18.47298 21.96128 0.00422
C 17.25671 21.23325 0.0351
C 18.41885 32.01273 0.01965
C 20.9052 26.25523 -0.01979
C 11.04848 22.11645 -0.02896
C 9.84135 24.23505 0.00488
C 2.27959 2.89912 -0.04999
C 3.5905 2.16425 0.04505
C 3.58917 0.79817 0.03284
C 2.39082 34.03483 -0.04307
C 4.92918 32.66927 0.03189
C 6.13625 31.98757 0.00031
C 6.11974 30.5851 -0.003
C 4.81906 29.86479 0.01402
C 4.90261 28.41574 0.02379
C 6.1669 27.71373 0.00907
C 2.38775 4.20944 -0.03291
C 6.16877 26.24955 0.00643
C 4.86196 24.24466 0.03267
C 6.13469 23.52652 0.02374
C 6.15571 22.08669 0.00402
C 4.84667 21.32508 0.0073
C 4.85685 19.95975 0.0174
C 6.17803 19.22727 0.03828
C 6.17909 17.83371 0.01226
C 4.95299 17.09242 -0.00279
C 4.97672 15.62336 0.01996
C 6.20133 14.95682 -0.03996
C 4.8942 25.59135 -0.01509
C 6.0975 13.55014 0.01465
C 3.56334 5.05502 0.02769
C 2.4269 7.14196 0.00208
C 3.58904 30.52711 0.01138
C 2.44448 29.80752 0.03278
C 2.38094 28.32474 -0.00177
C 3.67435 27.70628 0.04421
C 3.64345 26.23621 0.00088
C 2.4347 25.51124 0.00828
C 2.45109 24.14616 -0.02375
C 3.69406 23.50528 0.00558
C 3.63328 22.08736 -0.0059
C 2.40785 21.34245 -0.01386
C 3.64046 6.39316 0.01707
C 2.43914 19.89256 -0.02805
C 3.78877 17.76804 0.00245
C 2.4846 17.0758 0.02728
C 2.47497 15.65079 -0.00039
C 3.6838 14.88411 0.0064
C 3.66733 13.51463 0.00211
C 2.41753 12.76032 -0.00449
C 2.42596 11.38282 -0.01979
C 3.59704 10.65202 0.02784
C 3.63684 9.18767 -0.01977
C 2.47604 8.49793 -0.00561
C 3.6569 19.14967 0.00081
C 11.05858 23.50075 -0.01004
C 4.9101 12.73962 -0.00074
C 6.1384 10.60912 0.0086
C 7.37612 15.67151 0.01396
C 8.64101 14.98702 0.01849
C 8.67051 13.51605 -0.01142
C 7.38577 12.83909 -0.00562
C 7.29796 11.42047 -0.00494
C 8.53631 10.80105 0.00054
C 8.64194 9.39572 0.03007
C 7.48254 8.45182 -0.00095
C 7.34424 7.04111 0.01572
C 7.29728 4.44004 -0.04848
C 7.36609 17.11092 0.0127
C 7.35452 2.99165 -0.00892
C 8.46107 0.79092 -0.0008
C 7.33316 0.06619 0.0288
C 9.74878 32.67993 0.00393
C 11.03679 31.95579 0.00895
C 11.09081 30.49347 0.00685
C 9.80879 29.84072 0.02888
C 9.83037 28.4862 -0.00482
C 11.0352 27.80028 -0.01384
C 11.07639 26.36338 0.03693
C 9.78973 25.64902 0.01745
C 8.42157 2.13737 -0.01362
C 4.89441 11.33278 -0.00518
C 8.55741 17.7885 0.02635
C 7.37515 19.92517 -0.01303
C 6.23029 9.16205 -0.00643
C 4.97072 8.60357 0.017
C 4.81941 7.12364 -0.03113
C 6.02045 6.54372 -0.02566
C 6.02002 5.07928 -0.00094
C 4.84807 4.30256 0.02322
C 4.88339 2.90334 -0.00725
C 6.13354 2.26561 -0.05697
C 6.10664 0.85713 0.01087
C 4.86446 0.04396 -0.01343
C 8.6095 19.25785 -0.01378
C 7.31046 32.72584 0.00988
C 8.51775 30.62853 0.01305
C 7.30768 29.85899 -0.00077
C 7.37362 28.48226 0.03368
C 8.62131 27.82053 -0.02929
C 8.63269 26.34565 -0.00966
C 7.3735 25.59628 -0.03337
C 7.30771 24.17441 0.01227
C 8.59344 23.52845 0.00873
C 8.55994 22.0791 -0.00049
C 7.32446 21.33221 0.00848
C 8.57684 32.02717 0.0276
C 3.63774 31.90486 -0.00407
C 19.68868 25.55195 0.02691
C 20.92206 23.42289 0.01452
C 30.74083 10.57335 -0.00944
C 30.7796 9.17703 -0.03735
C 29.46996 8.47956 -0.00971
C 29.53766 7.03544 0.01518
C 30.74672 6.32503 0.01908
C 30.77863 4.91584 0.07705
C 29.43691 4.2468 0.0103
C 29.51086 2.85445 0.02108
C 30.74862 2.11645 0.00716
C 30.75227 0.65287 0.00307
C 29.49709 11.27525 -0.02155
C 29.41306 34.05938 0.00346
C 33.15286 31.88913 -0.01694
C 33.14121 30.48681 0.01428
C 31.92146 29.82027 -0.02142
C 31.93064 28.3578 0.0544
C 33.09916 27.64864 0.00026
C 33.15873 26.19529 0.00682
C 31.90098 25.48456 -0.01779
C 31.88416 24.12219 0.03794
C 33.14231 23.44795 0.01927
C 33.1864 21.93915 0.01574
C 31.96335 32.62317 0.01713
C 31.92428 21.24951 -0.02383
C 29.47535 12.72555 -0.01461
C 30.70159 14.86697 -0.0405
C 26.974 4.22989 0.01495
C 26.99653 2.81629 0.01259
C 28.23975 2.12234 0.01799
C 28.18908 0.73531 0.01699
C 26.82722 0.08242 -0.00416
C 29.49733 32.72002 0.01177
C 30.72864 31.98852 0.04266
C 30.71174 30.52732 0.01324
C 29.43099 29.82452 0.0014
C 29.49721 28.40709 0.00924
C 30.6908 13.42961 -0.01303
C 30.69253 27.67243 0.02326
C 29.49662 25.57847 0.03265
C 29.51392 24.10827 -0.02049
C 30.68053 23.45154 -0.01854
C 30.68747 21.9772 -0.01415
C 29.5153 21.33115 -0.03039
C 29.45197 19.89032 0.01836
C 30.67699 19.13716 0.03531
C 30.70881 17.7406 -0.00669
C 29.52475 17.06851 0.0101
C 29.46779 15.56786 0.01705
C 30.66869 26.29899 0.00261
C 28.22296 4.93401 0.00235
C 31.87656 19.87368 -0.01429
C 33.10499 17.74321 0.00594
C 1.24306 23.47695 0.00723
C 1.17927 22.07318 0.02712
C 34.36202 21.30724 -0.02213
C 34.41825 19.91538 0.01951
C 1.22811 19.19702 -0.01678
C 1.27603 17.73819 0.01223
C 34.41703 17.02504 0.00648
C 0.0414 15.66307 0.02114
C 1.24797 14.92017 -0.02957
C 1.21953 13.5607 0.00343
C 34.41753 24.16381 0.03076
C 34.39752 12.76992 -0.02656
C 1.21542 10.65923 -0.00027
C 1.18794 9.13947 -0.00583
C 34.36893 8.48094 -0.02302
C 34.40091 7.05146 -0.02849
C 1.20553 6.35974 0.02931
C 1.12957 4.93098 0.00628
C 34.37639 4.25322 -0.0345
C 34.39421 2.79667 -0.00931
C 1.1116 2.11019 -0.00939
C 1.1326 0.68331 -0.00468
C 34.43301 11.3862 -0.02442
C 33.21876 19.13968 -0.0136
C 34.42969 25.54622 -0.05239
C 1.15913 27.66232 -0.00439
C 31.91519 17.05413 -0.02474
C 31.90932 15.59123 0.00369
C 33.1905 15.02814 0.00455
C 33.22838 13.52613 -0.00644
C 31.93055 12.74705 -0.01839
C 32.00328 11.27244 0.00137
C 33.2014 10.63295 0.00199
C 33.20865 9.21067 0.04381
C 32.00527 8.49529 0.02806
C 31.93061 7.08315 0.01504
C 1.2948 26.27084 -0.00598
C 33.22895 6.37049 -0.00069
C 31.97582 4.22724 -0.03838
C 31.96711 2.78508 0.00349
C 33.17923 2.12497 -0.00323
C 33.16873 0.67061 -0.00841
C 31.95857 34.07492 0.0001
C 34.34505 32.57517 -0.02927
C 1.16014 31.8981 -0.01404
C 1.1685 30.50433 0.01027
C 34.37578 29.77016 0.01831
C 34.3642 28.35741 -0.01037
C 33.19867 4.92987 0.04926
C 19.67759 24.10433 -0.01581
C 28.31282 6.32321 0.01094
C 27.04599 8.41185 0.02611
C 23.35852 26.28518 -0.01721
C 22.16895 25.51248 -0.02422
C 22.16658 24.10947 0.01277
C 23.41781 23.45853 0.00096
C 23.38865 21.97284 -0.01527
C 22.19342 21.25361 0.01087
C 22.14412 19.84596 0.00199
C 23.39793 19.12363 0.01511
C 23.39091 17.76238 -0.00478
C 22.15586 17.06556 -0.01662
C 23.47219 27.70446 -0.01154
C 22.16154 15.66811 -0.01185
C 23.41106 13.46378 0.01852
C 22.12377 12.8018 -0.00381
C 22.15079 11.37786 0.03046
C 23.33481 10.62467 0.0296
C 23.28453 9.16301 0.03374
C 22.0742 8.40801 -0.02845
C 22.05092 6.88109 -0.03213
C 23.35142 6.32701 0.02239
C 22.04261 0.07551 0.01153
C 24.49827 32.70837 0.02734
C 23.4033 14.90713 0.01126
C 25.7688 32.00963 -0.0055
C 22.21239 28.37301 0.0106
C 23.34432 30.56658 0.00742
C 20.87391 21.96458 0.04892
C 19.68449 21.16467 -0.00111
C 19.68392 19.8483 -0.03557
C 20.95649 19.15103 0.03754
C 20.97262 17.73738 0.01739
C 19.64346 16.97933 0.00755
C 19.7796 15.62286 -0.0054
C 20.95096 14.90415 0.00667
C 20.99559 13.53722 0.00143
C 19.68072 12.75269 -0.017
C 22.11387 29.8504 -0.01594
C 19.70772 11.32266 0.00364
C 20.81631 9.20704 -0.02957
C 19.55527 8.5085 -0.04422
C 19.63567 7.10259 0.00654
C 20.79766 6.31285 -0.00703
C 19.76608 4.20397 -0.04076
C 19.59347 2.77853 -0.00652
C 20.82252 0.88084 0.0058
C 19.63462 0.05142 -0.00865
C 22.11356 32.73086 0.00675
C 23.31691 31.97645 -0.00311
C 20.91056 10.63222 -0.00831
C 26.98029 6.96368 0.02198
C 25.84572 30.59693 0.01515
C 24.64346 28.42359 0.00071
C 28.22868 32.08326 -0.01679
C 28.2917 30.66492 0.00367
C 27.09855 29.89585 0.04306
C 27.08455 28.46003 0.00996
C 28.22823 27.73453 0.00195
C 28.28196 26.31321 -0.00802
C 27.09573 25.58511 -0.00218
C 27.06041 24.18603 -0.01654
C 28.27657 23.42606 -0.00037
C 28.32126 22.02082 -0.0032
C 26.97946 32.79407 -0.01052
C 27.11706 21.27696 0.00622
C 28.27123 19.17067 -0.00942
C 28.29569 17.68882 0.00487
C 27.04361 17.00716 0.00826
C 27.01104 15.52003 -0.00294
C 28.22685 14.81467 0.00152
C 28.26124 13.41846 0.01257
C 27.12361 12.66207 0.02316
C 27.04287 11.29414 0.04185
C 28.27695 10.59104 0.00194
C 28.23611 9.14623 -0.00621
C 27.08027 19.89466 -0.02815
C 24.60592 29.92174 -0.00225
C 24.21862 0.03943 0.00684
C 25.83582 2.11219 -0.0264
C 25.8131 27.67758 -0.01107
C 25.84296 26.2908 -0.01586
C 24.62378 25.57987 -0.01971
C 24.58552 24.19379 -0.02118
C 25.85289 23.45569 0.00733
C 25.77798 22.00478 -0.00178
C 24.59501 21.26224 0.00768
C 24.63784 19.89797 -0.0276
C 25.87771 19.17513 0.03005
C 25.84461 17.70483 -0.04078
C 25.49511 0.77589 -0.01154
C 24.63576 17.04671 0.02117
C 25.7808 14.85783 -0.00498
C 25.88942 13.45554 0.00135
C 24.66571 12.73017 0.03102
C 24.56111 11.29877 0.02555
C 25.86337 10.6425 0.01423
C 25.82112 9.18575 -0.00285
C 24.5991 8.46665 -0.009
C 24.58392 6.99162 -0.01199
C 25.76154 6.31508 -0.00229
C 25.76319 4.87528 -0.00938
C 24.63116 15.62342 0.02737
C 2.34482 32.65915 -0.01299
