348
Graphene
C 34.40814 34.0489 0.01295
C 13.54983 27.69961 0.00422
C 13.52379 26.25969 0.0351
C 12.27463 25.64187 -0.03113
C 12.28506 24.22328 0.02098
C 13.47534 23.4355 0.01848
C 13.47492 21.98863 -0.00619
C 12.22983 21.27224 -0.02162
C 12.23737 19.85472 0.00889
C 13.49061 19.17195 -0.00481
C 13.51832 17.70381 0.00979
C 12.39006 16.93335 0.01443
C 12.2363 34.06672 0.03505
C 14.70797 32.63305 -0.02815
C 15.97028 31.927 -0.04147
C 15.9454 30.52377 -0.05302
C 14.75554 29.78483 0.00213
C 14.74617 28.41424 -0.00066
C 12.27427 28.40528 0.00798
C 12.34126 29.83794 0.00228
C 13.53651 30.51748 -0.00114
C 13.53435 31.87301 -0.02696
C 9.84849 32.61277 -0.01454
C 11.01589 31.85417 0.01945
C 11.01687 30.44503 0.01416
C 9.78489 29.78713 0.03542
C 9.85776 28.43465 0.02299
C 11.06928 27.71056 0.00244
C 11.04558 26.31624 -0.01717
C 9.7984 25.58525 0.05265
C 15.96179 27.69251 -0.00289
C 9.81424 24.14538 -0.01952
C 11.07482 22.04535 0.00374
C 9.77163 21.33102 0.00052
C 9.83168 19.92404 -0.03682
C 11.0283 19.10149 0.01965
C 11.08444 17.56348 0.02058
C 9.79183 17.0775 -0.01957
C 10.06754 34.04775 -0.0108
C 12.28657 32.60549 -0.00368
C 11.05866 23.48622 -0.02813
C 15.97198 26.25002 0.00028
C 14.72393 25.53013 -0.02213
C 14.7267 24.14007 0.03698
C 17.13971 21.3229 -0.00831
C 17.09765 19.8867 -0.02957
C 18.39403 19.13011 -0.04422
C 18.47312 17.69051 0.00654
C 17.22802 16.94614 -0.00703
C 17.36415 15.63948 -0.04076
C 18.42417 14.68039 -0.00652
C 17.40868 13.80604 0.0058
C 18.41147 22.02416 0.00364
C 16.98935 2.67232 -0.00865
C 18.43228 0.72102 -0.00311
C 17.22633 34.07664 0.00742
C 19.70513 32.63573 -0.01594
C 20.90585 31.90371 0.0106
C 20.92455 30.5602 -0.01154
C 19.67866 29.8219 -0.01721
C 19.6229 28.40739 -0.02422
C 20.85127 27.71024 0.01277
C 18.35381 2.19305 0.00675
C 7.50849 0.08681 0.01241
C 18.45315 23.38809 -0.017
C 17.11516 25.53994 0.00667
C 15.99332 23.46217 -0.00109
C 15.90736 22.08145 -0.00491
C 14.69322 21.31592 0.03338
C 14.759 19.92173 -0.0258
C 15.90815 19.13616 -0.0331
C 15.99891 17.79028 -0.00316
C 14.82598 17.01742 0.02188
C 15.02725 15.55612 -0.01979
C 17.25842 24.11219 0.00143
C 16.14931 14.75818 0.02691
C 14.87952 34.0367 0.01452
C 17.18413 32.64878 0.04892
C 18.44533 31.90836 -0.00111
C 18.44804 30.48082 -0.03557
C 17.25192 29.7937 0.03754
C 17.18337 28.36123 0.01739
C 18.36932 27.7056 0.00755
C 18.37098 26.25246 -0.0054
C 16.04004 0.71739 -0.01581
C 20.79875 26.27081 0.00096
C 8.92821 0.68807 0.0076
C 7.39652 2.91567 -0.0014
C 2.47129 7.08943 -0.01362
C 3.69908 6.44644 -0.0008
C 3.62808 4.94798 0.0288
C 2.43448 4.21428 0.00393
C 2.43939 2.75166 0.00895
C 3.75027 2.16532 0.00685
C 3.77605 0.72236 0.02888
C 2.48572 34.06983 -0.00482
C 4.95757 32.71468 -0.01384
C 6.14943 31.95081 0.03693
C 6.10251 30.48561 0.01745
C 4.82443 29.8569 0.00488
C 4.88602 28.41644 -0.01004
C 6.1414 27.69271 -0.02896
C 6.14299 26.29314 -0.00131
C 4.87262 25.60073 -0.01118
C 4.88555 24.18637 -0.014
C 2.52299 8.49807 -0.00892
C 3.70984 9.20616 -0.04848
C 3.63228 10.68311 0.01572
C 2.49573 11.3801 -0.00095
C 3.66127 30.51074 -0.02929
C 2.38909 29.81156 -0.00966
C 2.413 28.37318 -0.03337
C 3.64813 27.71841 0.01227
C 3.60549 26.32605 0.00873
C 2.33695 25.56719 -0.00049
C 2.41375 24.15424 0.00848
C 3.67263 23.52403 -0.01303
C 6.16674 23.48949 0.02147
C 3.67408 22.05038 -0.01378
C 2.39561 19.92058 0.0127
C 3.58122 19.14794 0.01396
C 3.57553 17.76508 0.01849
C 2.36693 17.05489 -0.01142
C 2.39146 15.61174 -0.00562
C 3.68059 14.90347 -0.00494
C 3.64791 13.51644 0.00054
C 2.42781 12.75218 0.03007
C 2.4071 21.32561 0.02635
C 6.13624 22.0446 0.00373
C 4.91028 21.39137 -0.00191
C 4.90378 19.86593 0.00438
C 7.31636 29.76446 -0.02245
C 7.34697 28.3864 -0.00428
C 8.57109 27.73937 0.03101
C 8.56046 26.34514 -0.01536
C 7.34545 25.55719 -0.02689
C 7.38109 24.20651 -0.01046
C 8.609 23.50597 -0.00891
C 8.57837 22.06627 0.02819
C 8.57119 30.51731 0.00985
C 7.38875 21.32724 0.00165
C 8.56207 19.21807 0.02894
C 8.5774 17.87143 -0.01789
C 7.32332 17.20615 0.00444
C 7.28814 15.78556 -0.00925
C 7.46705 8.54809 0.01877
C 7.47647 7.14201 0.01363
C 8.7148 6.36048 -0.02162
C 7.42197 4.42299 0.00415
C 7.2898 19.90666 -0.02971
C 8.52849 2.09084 0.02162
C 8.57648 31.99987 -0.01275
C 4.98471 0.09331 0.02841
C 6.08243 19.19847 0.01291
C 6.07199 17.851 0.00093
C 4.8816 17.05686 0.00057
C 4.97517 15.6499 -0.01634
C 6.27668 14.90633 -0.00334
C 6.1232 13.49856 0.02339
C 4.87605 12.81522 0.01641
C 4.95059 11.36392 -0.00719
C 7.39174 32.70001 -0.01111
C 6.0775 10.62787 0.01364
C 4.98059 8.52713 -0.00033
C 4.94965 7.09595 0.03589
C 6.1934 6.41894 -0.02759
C 6.11816 5.04544 0.0402
C 4.89208 4.25539 0.00572
C 4.94632 2.88703 0.03592
C 6.19239 2.15806 0.00406
C 6.25979 0.73552 0.00943
C 6.35375 9.26155 -0.01062
C 19.61539 25.59842 -0.01527
C 19.62996 24.14121 0.01087
C 20.82725 23.42764 0.00199
C 33.16986 30.55776 0.01428
C 31.88138 29.8155 -0.02142
C 31.96831 28.35598 0.0544
C 33.13145 27.65667 0.00026
C 33.18345 26.28369 0.00682
C 31.94396 25.62317 -0.01779
C 31.94987 24.20822 0.03794
C 33.21841 23.47893 0.01927
C 33.20687 21.9996 0.01574
C 31.99487 21.35069 -0.02383
C 31.94908 19.95052 -0.01429
C 33.18737 19.2404 -0.0136
C 33.18934 17.77946 0.00594
C 31.94266 17.09861 -0.02474
C 31.90744 15.63138 0.00369
C 33.11135 14.94919 0.00455
C 33.14085 13.52683 -0.00644
C 33.22993 31.9768 -0.01694
C 31.93498 32.70418 0.01713
C 29.53045 0.02867 0.00346
C 30.72413 0.77803 0.00307
C 29.50275 19.87591 0.01836
C 30.69473 19.26951 0.03531
C 30.69608 17.82654 -0.00669
C 29.49612 17.01359 0.0101
C 29.4504 15.63491 0.01705
C 30.68455 14.88013 -0.0405
C 30.64731 13.41047 -0.01303
C 29.37141 12.68114 -0.01461
C 31.87868 12.81182 -0.01839
C 29.65155 11.29412 -0.02155
C 30.87368 9.29312 -0.03735
C 29.72973 8.38154 -0.00971
C 29.53954 7.19624 0.01518
C 30.72934 6.3493 0.01908
C 30.69238 4.94085 0.07705
C 29.50205 4.21145 0.0103
C 29.49423 2.85399 0.02108
C 30.72207 2.17664 0.00716
C 30.8611 10.70744 -0.00944
C 32.02716 11.33814 0.00137
C 33.26113 10.65532 0.00199
C 33.20093 9.21619 0.04381
C 1.16478 19.20984 -0.01678
C 1.16898 17.76612 0.01223
C 34.42128 17.02157 0.00648
C 34.37274 15.63519 0.02114
C 1.14853 14.89137 -0.02957
C 1.17999 13.51003 0.00343
C 34.33327 12.76796 -0.02656
C 0.00052 11.42474 -0.02442
C 34.39622 19.9142 0.01951
C 1.27156 10.68841 -0.00027
C 0.04429 8.45949 -0.02302
C 0.02903 7.05679 -0.02849
C 1.26012 6.36032 0.02931
C 1.2201 4.95089 0.00628
C 4e-05 4.3091 -0.0345
C 0.01313 2.88993 -0.00931
C 1.1838 2.08393 -0.00939
C 1.25939 0.64366 -0.00468
C 1.26752 9.21168 -0.00583
C 29.54425 21.29842 -0.03039
C 0.01866 21.34848 -0.02213
C 1.24855 23.46084 0.00723
C 32.04171 8.46294 0.02806
C 31.94743 7.07179 0.01504
C 33.23174 6.40867 -0.00069
C 33.18132 4.99198 0.04926
C 31.94009 4.29849 -0.03838
C 31.96921 2.91424 0.00349
C 33.17549 2.14955 -0.00323
C 33.1768 0.69425 -0.00841
C 1.203 22.07505 0.02712
C 31.93573 0.0346 0.0001
C 1.22332 32.01812 -0.01404
C 1.2277 30.5519 0.01027
C 34.36747 29.80909 0.01831
C 34.36811 28.41244 -0.01037
C 1.1642 27.67465 -0.00439
C 1.17081 26.31126 -0.00598
C 34.4063 25.5769 -0.05239
C 0.03145 24.15059 0.03076
C 34.42882 32.67876 -0.02927
C 30.69741 21.97645 -0.01415
C 30.71766 23.41406 -0.01854
C 29.50516 24.15746 -0.02049
C 22.12304 21.27147 -0.02118
C 22.15227 19.83233 0.00733
C 23.39891 19.09927 -0.00178
C 23.3013 17.69733 0.00768
C 22.07849 16.95903 -0.0276
C 22.01983 15.45441 0.03005
C 23.30117 2.1389 -0.04078
C 23.2614 0.75871 0.02117
C 23.37843 22.0315 -0.01971
C 22.16657 34.05197 0.02737
C 25.75469 31.98015 0.00135
C 25.8332 30.50593 0.03102
C 24.56528 29.73958 0.02555
C 24.54833 28.41619 0.01423
C 25.79154 27.70713 -0.00285
C 25.79757 26.30869 -0.009
C 24.55118 25.5371 -0.01199
C 24.58542 24.18017 -0.00229
C 24.56014 32.71861 -0.00498
C 25.82586 23.42085 -0.00938
C 23.36378 23.41084 -0.01586
C 22.04245 25.60531 0.00071
C 20.92341 22.03902 0.01511
C 19.72371 21.28597 -0.00478
C 19.62053 19.83787 -0.01662
C 20.88476 19.0985 -0.01185
C 20.89693 17.64182 0.01126
C 19.64841 16.88978 0.01852
C 19.66756 15.52263 -0.00381
C 19.61657 2.66024 0.03046
C 22.0925 24.12402 -0.01107
C 20.71755 2.07765 0.0296
C 19.66377 34.06299 -0.02845
C 22.1396 32.60766 -0.03213
C 23.35442 31.93981 0.02239
C 23.39784 30.48195 0.01153
C 22.11057 29.76034 0.02734
C 22.11689 28.40445 -0.0055
C 23.33419 27.72695 0.01515
C 23.26611 26.294 -0.00225
C 20.94504 0.60624 0.03374
C 3.6598 32.00898 0.03368
C 25.77293 22.04058 -0.0264
C 24.55388 19.89814 0.00684
C 28.29902 19.17355 -0.00621
C 28.26437 17.69766 0.02611
C 27.03451 16.95701 0.02198
C 27.08749 15.56116 0.01094
C 28.30016 14.91603 0.00235
C 28.33859 13.5344 0.01495
C 27.03544 2.84363 0.01259
C 28.23976 2.11162 0.01799
C 27.06365 19.86276 0.00194
C 28.25867 0.70335 0.01699
C 29.45992 32.72753 0.01177
C 30.73259 31.99675 0.04266
C 30.71173 30.63013 0.01324
C 29.52449 29.83005 0.0014
C 29.49541 28.4073 0.00924
C 30.71898 27.72216 0.02326
C 30.70489 26.35138 0.00261
C 29.53239 25.64859 0.03265
C 26.95064 0.0794 -0.00416
C 24.60439 21.33442 -0.01154
C 27.08139 21.35952 0.04185
C 28.30092 23.46882 0.01257
C 25.76244 19.14558 -0.01052
C 25.82819 17.69167 -0.01679
C 24.55029 17.01906 0.00367
C 24.63865 15.63161 0.04306
C 25.78928 14.99013 0.00996
C 24.45891 2.84227 0.00195
C 25.74245 2.39028 -0.00802
C 25.70943 0.81288 -0.00218
C 28.31581 22.03486 0.02316
C 24.47349 0.06497 -0.01654
C 28.3024 31.966 -0.0032
C 28.29184 30.5485 0.00622
C 27.08927 29.77748 -0.02815
C 27.04915 28.40629 -0.00942
C 28.24512 27.69907 0.00487
C 28.25894 26.29142 0.00826
C 27.03219 25.57273 -0.00294
C 27.03422 24.12642 0.00152
C 26.98594 32.68806 -0.00037
C 2.43864 32.65921 -0.00077
