325
Graphene
C 34.4235 0.03927 0.01295
C 9.85139 24.16748 -0.00066
C 11.1467 23.45534 -0.00289
C 11.25797 21.99863 0.00028
C 9.94632 21.32078 -0.02213
C 9.89824 19.85428 0.03698
C 11.13737 19.10136 -0.00109
C 11.02947 17.74526 -0.00491
C 9.81227 25.5752 0.00213
C 9.81264 17.00664 0.03338
C 11.10133 14.80826 -0.0331
C 11.0686 13.43814 -0.00316
C 9.84118 12.75704 0.02188
C 9.86375 11.39179 -0.01979
C 11.06485 10.65933 0.02691
C 11.04065 9.1983 -0.01581
C 9.80709 8.54582 0.01452
C 9.82408 15.55737 -0.0258
C 9.8164 7.13367 0.04892
C 11.07407 26.29554 -0.05302
C 9.85505 28.37252 -0.02815
C 7.39031 11.35919 -0.02696
C 8.6142 10.67364 -0.00114
C 8.58493 9.28107 0.00228
C 7.35189 8.53079 0.00798
C 7.31831 7.18373 0.00422
C 8.6034 6.48622 0.0351
C 8.56176 5.04494 -0.03113
C 11.02981 27.64162 -0.04147
C 7.34506 4.33179 0.02098
C 8.59647 2.15223 -0.00619
C 8.59737 0.71506 -0.02162
C 7.36742 34.07985 0.00889
C 9.8044 32.63383 -0.00481
C 11.02348 31.92499 0.00979
C 10.99857 30.54885 0.01443
C 9.76241 29.79946 0.03505
C 7.39493 2.90566 0.01848
C 11.04934 6.43667 -0.00111
C 11.03553 4.91912 -0.03557
C 9.84866 4.2825 0.03754
C 13.56217 15.01889 -0.01154
C 13.54995 13.57307 -0.01721
C 12.35932 12.77559 -0.02422
C 12.35544 11.33888 0.01277
C 13.56931 10.67199 0.00096
C 13.48947 9.2977 -0.01527
C 12.28522 8.46127 0.01087
C 12.30033 15.63583 0.0106
C 12.26028 7.1248 0.00199
C 13.54989 4.93026 -0.00478
C 12.27025 4.21288 -0.01662
C 12.182 2.79492 -0.01185
C 13.45406 2.12863 0.01126
C 13.48709 0.72895 0.01852
C 12.26247 0.03008 -0.00381
C 14.68118 32.64932 0.03046
C 13.47616 6.41847 0.01511
C 12.24828 17.00904 -0.01594
C 13.43997 17.77484 0.00742
C 13.54823 19.19205 -0.00311
C 9.82444 2.8186 0.01739
C 10.97623 2.13067 0.00755
C 11.05173 0.76024 -0.0054
C 9.83605 34.07564 0.00667
C 12.27691 32.69262 0.00143
C 13.46042 31.98499 -0.017
C 13.48872 30.60518 0.00364
C 12.24324 29.80899 -0.00831
C 12.23841 28.32638 -0.02957
C 13.53861 27.67883 -0.04422
C 13.62504 26.29462 0.00654
C 12.34442 25.5878 -0.00703
C 12.38952 24.21871 -0.04076
C 13.51362 23.46313 -0.00652
C 13.50806 22.12421 0.0058
C 12.45956 21.29967 -0.00865
C 12.40899 19.93997 0.00675
C 7.37579 12.75797 -0.00368
C 8.58921 13.38879 -0.0108
C 8.53394 14.77249 -0.01957
C 7.3247 15.47612 0.02058
C 2.4081 8.52305 0.00093
C 2.38018 7.11885 0.00057
C 3.64588 6.4129 -0.01634
C 3.67136 4.9664 -0.00334
C 2.42561 4.26135 0.02339
C 2.42784 2.81293 0.01641
C 3.72949 2.12413 -0.00719
C 3.57543 9.19649 0.01291
C 3.66844 0.67458 0.01364
C 4.92789 32.66812 -0.00033
C 6.17755 32.02331 0.03589
C 6.17948 30.56794 -0.02759
C 4.93685 29.85956 0.0402
C 4.89342 28.4073 0.00572
C 6.07163 27.72477 0.03592
C 6.11537 26.30673 0.00406
C 2.4513 0.02754 -0.01062
C 3.66729 10.55835 0.00438
C 2.46758 11.27638 -0.00191
C 2.42435 12.68262 0.00373
C 3.69746 30.58168 -0.0008
C 2.51303 29.81166 0.0288
C 2.46314 28.44802 0.00393
C 3.69987 27.75586 0.00895
C 3.66821 26.38105 0.00685
C 2.44527 25.66367 0.02888
C 2.43557 24.27739 -0.00482
C 3.6848 23.52038 -0.01384
C 3.70264 22.11566 0.03693
C 2.42473 21.34799 0.01745
C 2.42831 19.93597 0.00488
C 3.72212 19.18343 -0.01004
C 3.69949 17.74419 -0.02896
C 2.44915 17.02755 -0.00131
C 2.49303 15.5211 -0.01118
C 3.70469 14.88806 -0.014
C 3.66055 13.42808 0.02147
C 4.91339 25.60453 0.00943
C 15.93952 31.98295 0.0296
C 4.94799 24.21494 0.02841
C 6.13228 22.07633 -0.01275
C 7.41348 32.67212 0.0076
C 8.58155 31.95149 0.01241
C 8.58923 30.48528 -0.01454
C 7.35123 29.80596 0.01945
C 7.36484 28.41875 0.01416
C 8.59102 27.62906 0.03542
C 8.62992 26.22678 0.02299
C 4.95864 0.01026 0.02162
C 7.34922 25.50463 0.00244
C 8.63139 23.49116 0.05265
C 8.67389 22.07304 -0.01952
C 7.41374 21.35379 -0.02813
C 7.45654 19.86865 0.00374
C 8.64805 19.08981 0.00052
C 8.6453 17.71065 -0.03682
C 7.34643 17.02274 0.01965
C 7.37738 24.13695 -0.01717
C 6.1857 0.75244 -0.0014
C 6.11928 2.1989 0.00415
C 4.926 2.85908 -0.02162
C 4.90427 21.32714 0.00985
C 4.96494 19.93951 -0.02245
C 6.13214 19.22625 -0.00428
C 6.09822 17.78018 0.03101
C 4.91261 16.99753 -0.01536
C 4.94268 15.66523 -0.02689
C 6.11295 14.88838 -0.01046
C 6.14902 13.43038 -0.00891
C 4.85937 12.7045 0.02819
C 4.85188 11.3179 0.00165
C 6.13088 10.6696 -0.02971
C 6.10806 9.22836 0.02894
C 4.84077 8.53264 -0.01789
C 4.89666 7.078 0.00444
C 6.14506 6.39822 -0.00925
C 6.12794 5.01505 0.01877
C 4.91336 4.3166 0.01363
C 6.18367 23.43014 -0.01111
C 3.69098 31.9495 -0.01362
C 15.94662 30.5765 0.03374
C 14.75983 28.36437 -0.03213
C 31.97002 32.75464 0.00682
C 33.26055 32.0018 -0.01779
C 33.22088 30.62321 0.03794
C 31.97276 29.95496 0.01927
C 31.93908 28.54572 0.01574
C 33.14647 27.74407 -0.02383
C 33.11077 26.31546 -0.01429
C 29.40306 0.09258 0.00026
C 31.87169 25.54115 -0.0136
C 33.23024 23.47936 -0.02474
C 33.20286 22.06214 0.00369
C 31.99902 21.34714 0.00455
C 31.91282 19.92748 -0.00644
C 33.0735 19.26142 -0.01839
C 33.1606 17.79141 0.00137
C 31.85283 17.05914 0.00199
C 32.03151 24.19267 0.00594
C 31.92017 15.69815 0.04381
C 30.64593 0.73236 0.0544
C 29.45397 2.92598 0.01428
C 27.04022 29.6297 -0.01303
C 27.18038 28.25785 -0.01461
C 28.51653 27.52506 -0.02155
C 26.92366 2.69174 -0.00944
C 28.14753 2.31648 -0.03735
C 28.14121 0.74773 -0.00971
C 26.98274 0.05017 0.01518
C 30.64736 2.13498 -0.02142
C 29.48143 32.77419 0.01908
C 30.70202 30.65519 0.0103
C 29.53852 29.97036 0.02108
C 29.54388 28.52278 0.00716
C 30.75038 27.85362 0.00307
C 30.68514 26.36415 0.00346
C 29.28689 25.9735 0.01713
C 30.73383 17.99698 -0.01694
C 30.73908 32.10384 0.07705
C 33.11582 14.87795 0.02806
C 33.23182 13.5411 0.01504
C 33.30553 6.2924 -0.00069
C 34.42328 16.98903 0.00648
C 34.35768 15.62864 0.02114
C 1.18961 14.87311 -0.02957
C 1.20638 13.45354 0.00343
C 34.41707 12.68267 -0.02656
C 0.09398 11.36101 -0.02442
C 1.23521 10.66148 -0.00027
C 1.20369 17.70564 0.01223
C 1.17283 9.22661 -0.00583
C 34.23933 7.22915 -0.02849
C 1.06868 6.42455 0.02931
C 1.13801 5.04278 0.00628
C 34.34438 4.28589 -0.0345
C 34.42533 2.86934 -0.00931
C 1.2182 2.12563 -0.00939
C 1.24073 0.69548 -0.00468
C 34.33878 8.63034 -0.02302
C 1.18912 19.18794 -0.01678
C 34.39194 19.90897 0.01951
C 34.41427 21.30586 -0.02213
C 33.04155 4.95909 0.04926
C 31.8562 4.14308 -0.03838
C 31.94799 2.83482 0.00349
C 33.18359 2.15505 -0.00323
C 33.17677 0.74319 -0.00841
C 31.8939 0.1068 0.0001
C 0.05675 32.68434 -0.02927
C 1.25463 31.95678 -0.01404
C 1.23909 30.51487 0.01027
C 34.38881 29.80888 0.01831
C 34.36008 28.44509 -0.01037
C 1.18352 27.73702 -0.00439
C 1.22645 26.35564 -0.00598
C 34.39993 25.65638 -0.05239
C 34.42422 24.17514 0.03076
C 1.21828 23.50336 0.00723
C 1.15211 22.05511 0.02712
C 28.2685 30.53769 -0.0405
C 28.24341 31.97854 0.01705
C 27.00393 32.68522 0.0101
C 24.57081 34.00453 -0.00669
C 17.21528 32.61035 0.03102
C 18.50817 31.91335 0.02555
C 18.4983 30.49781 0.01423
C 17.17743 29.80087 -0.00285
C 17.13805 28.35617 -0.009
C 18.34672 27.65337 -0.01199
C 16.97765 17.0309 -0.00229
C 14.67135 34.0552 0.00135
C 17.24063 15.62565 -0.00938
C 18.37696 13.33191 -0.01154
C 17.06762 12.77493 0.00684
C 17.16271 11.36244 -0.01052
C 18.24133 10.51924 -0.01679
C 18.44815 9.13635 0.00367
C 17.1886 8.5023 0.04306
C 17.13259 7.06027 0.00996
C 18.45965 14.67806 -0.0264
C 15.95441 0.67424 -0.00498
C 15.92024 2.07943 0.02737
C 14.66641 2.82478 0.02117
C 15.97849 27.70278 0.02239
C 15.96439 26.37285 0.01153
C 14.80951 25.60264 0.02734
C 15.92262 17.81379 -0.0055
C 14.69063 17.07545 0.01515
C 14.77373 15.65751 -0.00225
C 15.98882 14.987 0.00071
C 15.94033 13.54545 -0.01107
C 14.79179 12.8314 -0.01586
C 14.84687 11.42164 -0.01971
C 16.00311 10.67655 -0.02118
C 15.93956 9.26874 0.00733
C 14.71147 8.52081 -0.00178
C 14.73447 7.08971 0.00768
C 15.97476 6.35662 -0.0276
C 16.03485 4.99533 0.03005
C 14.78711 4.25587 -0.04078
C 18.43831 6.44821 0.00195
C 14.71232 29.83654 -0.02845
C 18.44485 4.95762 -0.00802
C 17.12308 2.79037 -0.01654
C 22.08221 28.18675 0.01699
C 23.39748 27.78099 -0.00416
C 22.11743 4.10684 0.01177
C 22.09116 2.6374 0.04266
C 23.31659 2.06018 0.01324
C 23.33546 0.6517 0.0014
C 22.14938 34.01694 0.00924
C 22.12559 29.66728 0.01799
C 24.61455 32.55614 0.02326
C 25.81827 30.43953 0.03265
C 24.61706 29.69597 -0.02049
C 24.6723 28.13851 -0.01854
C 25.93659 27.6604 -0.01415
C 24.40703 2.98576 -0.03039
C 25.63254 2.25039 0.01836
C 25.70202 0.73481 0.03531
C 25.82644 31.92784 0.00261
C 23.36729 30.42576 0.01259
C 23.35557 31.86163 0.01495
C 22.18122 32.61937 0.00235
C 18.40336 2.04437 -0.00037
C 18.43678 0.64404 -0.0032
C 17.12968 34.01583 0.00622
C 19.7432 32.63194 -0.02815
C 20.9394 31.92301 -0.00942
C 20.87902 30.43807 0.00487
C 19.65444 29.65579 0.00826
C 19.60079 28.0845 -0.00294
C 20.86912 27.60998 0.00152
C 19.5828 15.52166 0.01257
C 19.51002 7.37224 0.02316
C 21.01256 4.77563 0.04185
C 19.64057 4.22008 0.00194
C 19.60922 2.78138 -0.00621
C 20.85355 2.02971 0.02611
C 20.86701 0.61016 0.02198
C 19.6969 34.03783 0.01094
C 17.2161 4.23892 -0.00218
C 2.48766 32.61474 -0.00892
