390
Graphene
C 34.35709 34.07242 0.01295
C 9.83339 2.96162 0.01363
C 11.00328 2.22334 -0.02162
C 11.10986 0.74301 0.00415
C 9.86335 0.11123 -0.0014
C 12.32399 32.68089 0.02162
C 13.5492 32.07159 0.0076
C 13.61024 30.59179 0.01241
C 12.34036 29.90692 -0.01454
C 12.29516 28.38367 0.01945
C 9.80717 4.40578 0.01877
C 13.45869 27.60996 0.01416
C 12.23372 25.55254 0.02299
C 12.22598 24.09655 0.00244
C 13.47585 23.3657 -0.01717
C 13.37975 21.97317 0.05265
C 12.18514 21.24892 -0.01952
C 12.26888 19.81158 -0.02813
C 13.44065 19.15836 0.00374
C 13.58611 17.74616 0.00052
C 12.26453 17.00678 -0.03682
C 13.53637 26.2571 0.03542
C 12.26305 15.58009 0.01965
C 11.06521 5.0315 -0.00925
C 9.87805 7.09759 -0.01789
C 9.85138 28.41734 0.0402
C 11.05946 27.78315 0.00572
C 11.07867 26.35462 0.03592
C 9.85795 25.57608 0.00406
C 9.77738 24.15448 0.00943
C 10.96154 23.39623 0.02841
C 11.00953 22.01222 -0.01111
C 9.81465 21.30174 -0.01275
C 9.84393 19.86652 0.00985
C 11.18699 6.4502 0.00444
C 11.07976 19.11784 -0.02245
C 9.82114 17.0088 0.03101
C 9.76629 15.58694 -0.01536
C 11.04315 14.91148 -0.02689
C 11.01455 13.47178 -0.01046
C 9.82638 12.76051 -0.00891
C 9.88414 11.33018 0.02819
C 11.06627 10.69523 0.00165
C 11.12579 9.29967 -0.02971
C 9.96414 8.52955 0.02894
C 11.0962 17.7393 -0.00428
C 13.52841 14.84343 0.02058
C 13.42743 13.46288 -0.01957
C 12.21373 12.7958 -0.0108
C 14.74296 16.93285 0.03698
C 14.81648 15.53741 -0.00109
C 16.09758 14.84851 -0.00491
C 15.81639 13.36143 0.03338
C 14.67873 12.72677 -0.0258
C 14.76838 2.9442 -0.0331
C 15.83874 2.24473 -0.00316
C 16.00098 0.75099 0.02188
C 14.71846 0.02752 -0.01979
C 15.95905 17.70365 -0.02213
C 17.19374 32.6418 0.02691
C 18.41461 30.45921 0.01452
C 17.22057 29.76455 0.04892
C 17.19609 28.39104 -0.00111
C 18.44359 27.6628 -0.03557
C 18.42717 26.25827 0.03754
C 17.23133 25.56917 0.01739
C 17.23131 24.10554 0.00755
C 18.4573 23.44196 -0.0054
C 18.41271 21.99139 0.00667
C 18.41829 31.97765 -0.01581
C 15.97192 19.10342 0.00028
C 14.75295 19.73499 -0.00289
C 14.74224 21.19073 -0.00066
C 12.42775 11.38413 -0.00368
C 13.63811 10.78141 -0.02696
C 12.40978 8.59783 -0.00114
C 12.32586 7.32732 0.00228
C 13.67508 4.91102 0.00798
C 12.41577 4.32496 0.00422
C 12.18612 2.92401 0.0351
C 13.50559 2.25276 -0.03113
C 13.57405 0.77596 0.02098
C 12.32216 0.09292 0.01848
C 14.71806 32.69282 -0.00619
C 15.98105 31.93704 -0.02162
C 16.01104 30.47218 0.00889
C 14.80258 29.7933 -0.00481
C 14.72766 28.37446 0.00979
C 15.97462 27.7243 0.01443
C 16.02771 26.29388 0.03505
C 14.74725 25.53348 -0.02815
C 14.66285 24.08668 -0.04147
C 15.9333 23.39652 -0.05302
C 15.93623 21.96197 0.00213
C 9.84788 29.80728 -0.02759
C 11.04892 30.53335 0.03589
C 11.01107 31.97577 -0.00033
C 9.78947 32.7506 -0.01062
C 2.37543 4.31697 -0.00518
C 2.35472 2.912 0.0086
C 3.61945 2.20997 -0.00643
C 3.63931 0.76168 0.017
C 2.41913 0.00821 -0.03113
C 4.85172 32.71478 -0.02566
C 6.08478 31.94048 -0.00094
C 6.15298 30.5827 0.02322
C 4.87183 29.93968 -0.00725
C 3.62661 5.06645 -0.00074
C 4.82354 28.54619 -0.05697
C 6.10869 26.37573 -0.01343
C 4.83886 25.57444 0.00988
C 4.7972 24.13949 0.0276
C 6.0995 23.51243 0.01305
C 6.20173 22.13175 -0.00077
C 4.96966 21.4201 0.03368
C 4.91458 19.9298 -0.02929
C 6.103 19.16301 -0.00966
C 6.11755 17.70429 -0.03337
C 6.09571 27.79033 0.01087
C 3.60057 6.42 0.01465
C 2.35799 7.12737 -0.03996
C 2.42967 8.59294 0.01996
C 3.66974 30.61208 -0.03291
C 2.43875 29.84783 -0.04999
C 2.39457 28.4004 0.04505
C 3.66928 27.76006 0.03284
C 3.65595 26.26842 -0.04307
C 2.46908 25.6097 0.03189
C 2.41027 24.17098 0.00031
C 3.55961 23.38528 -0.003
C 3.65545 21.99675 0.01402
C 2.39182 21.2859 0.02379
C 2.46804 19.89313 0.00907
C 3.69212 19.16425 0.00643
C 3.71459 17.78472 -0.01509
C 2.52335 17.07693 0.03267
C 2.46946 15.6328 0.02374
C 3.69547 14.89387 0.00402
C 3.67233 13.42788 0.0073
C 2.42284 12.83309 0.0174
C 2.42593 11.41738 0.03828
C 3.59676 10.64352 0.01226
C 3.71087 9.2213 -0.00279
C 4.90021 17.06757 0.01227
C 17.13826 21.25463 0.00143
C 4.91614 15.59713 0.00873
C 6.14355 13.51369 0.00848
C 7.30263 19.94984 0.01745
C 8.55537 19.17711 0.00488
C 8.69914 17.8551 -0.01004
C 7.4195 17.0984 -0.02896
C 7.34826 15.57133 -0.00131
C 8.49834 14.7876 -0.01118
C 8.60214 13.38838 -0.014
C 7.31324 12.82728 0.02147
C 7.36508 11.37839 0.00373
C 7.35832 21.34214 0.03693
C 8.61897 10.61744 -0.00191
C 7.36563 8.5635 0.01291
C 7.34469 7.15445 0.00093
C 8.60135 6.53695 0.00057
C 8.60445 5.12758 -0.01634
C 7.30979 4.35496 -0.00334
C 7.25967 2.93048 0.02339
C 8.61153 2.22352 0.01641
C 8.59136 0.82698 -0.00719
C 7.36417 0.06892 0.01364
C 8.5814 9.25921 0.00438
C 8.59322 22.03794 -0.01384
C 8.56191 23.40428 -0.00482
C 7.3884 24.22994 0.02888
C 4.87789 12.75995 -0.01303
C 4.85032 11.3384 -0.01378
C 6.1522 10.70357 0.02635
C 6.11246 9.26244 0.0127
C 4.8841 8.59768 0.01396
C 4.8795 7.16742 0.01849
C 6.15379 6.44711 -0.01142
C 6.12163 5.05533 -0.00562
C 4.82448 4.44611 -0.00494
C 4.81299 2.91084 0.00054
C 6.05583 2.21505 0.03007
C 6.08314 0.79618 -0.00095
C 4.89569 0.09223 0.01572
C 7.34739 32.72365 -0.04848
C 8.59062 32.09957 -0.00892
C 8.64381 30.63839 -0.01362
C 7.35818 29.88887 -0.0008
C 7.35301 28.45666 0.0288
C 8.60392 27.7099 0.00393
C 8.59226 26.3233 0.00895
C 7.42487 25.6161 0.00685
C 6.12076 14.89355 -0.00049
C 17.18552 19.84233 -0.017
C 18.32914 19.09918 0.00364
C 18.37995 17.73118 -0.00831
C 30.68534 4.9429 0.07705
C 29.47236 4.34157 0.0103
C 29.44587 2.88774 0.02108
C 30.68295 2.1136 0.00716
C 30.66557 0.6653 0.00307
C 29.44452 34.00428 0.00346
C 31.96902 32.65109 0.01713
C 33.11599 31.81261 -0.01694
C 33.15878 30.46045 0.01428
C 30.64492 6.37157 0.01908
C 31.9213 29.82006 -0.02142
C 33.12822 27.67883 0.00026
C 33.13408 26.24846 0.00682
C 31.92035 25.49935 -0.01779
C 31.91705 24.09742 0.03794
C 33.10886 23.39313 0.01927
C 33.20403 21.99526 0.01574
C 32.02294 21.20071 -0.02383
C 32.04593 19.80242 -0.01429
C 33.28767 19.11382 -0.0136
C 31.88209 28.35632 0.0544
C 29.43633 7.14211 0.01518
C 29.48321 8.60062 -0.00971
C 30.69215 9.23166 -0.03735
C 30.69449 31.95418 0.04266
C 30.72123 30.49556 0.01324
C 29.48157 29.76415 0.0014
C 29.52907 28.3607 0.00924
C 30.67212 27.5792 0.02326
C 30.6532 26.13577 0.00261
C 29.36709 25.50494 0.03265
C 29.52946 23.95541 -0.02049
C 30.77434 23.36192 -0.01854
C 30.83214 21.95608 -0.01415
C 29.56121 21.36425 -0.03039
C 29.43858 19.87457 0.01836
C 30.72841 19.17826 0.03531
C 30.77865 17.76163 -0.00669
C 29.55234 17.06335 0.0101
C 29.52759 15.69178 0.01705
C 30.71283 14.89161 -0.0405
C 30.66192 13.50093 -0.01303
C 29.49134 12.7827 -0.01461
C 29.41816 11.35542 -0.02155
C 30.69634 10.72692 -0.00944
C 33.26516 17.75437 0.00594
C 29.53003 32.64583 0.01177
C 32.00669 17.0428 -0.02474
C 33.20313 15.00714 0.00455
C 0.03366 21.37142 -0.02213
C 0.05882 19.88747 0.01951
C 1.21959 19.17872 -0.01678
C 1.2807 17.72678 0.01223
C 0.01645 17.0727 0.00648
C 0.00432 15.59525 0.02114
C 1.17019 14.94121 -0.02957
C 1.20859 13.55349 0.00343
C 0.00078 12.87351 -0.02656
C 1.24438 22.04824 0.02712
C 34.38157 11.3966 -0.02442
C 1.21201 9.28291 -0.00583
C 34.36923 8.61063 -0.02302
C 34.38554 7.17311 -0.02849
C 1.18706 6.44009 0.02931
C 1.16632 4.99876 0.00628
C 34.36748 4.33802 -0.0345
C 34.38407 2.85832 -0.00931
C 1.13208 2.12353 -0.00939
C 1.15391 0.67562 -0.00468
C 1.17355 10.67978 -0.00027
C 1.25447 23.41599 0.00723
C 34.41868 24.10706 0.03076
C 34.37278 25.56951 -0.05239
C 33.1599 13.59254 -0.00644
C 31.91871 12.80272 -0.01839
C 31.94359 11.35658 0.00137
C 33.15474 10.67162 0.00199
C 33.12528 9.29846 0.04381
C 31.84339 8.57758 0.02806
C 31.86022 7.14549 0.01504
C 33.11228 6.45699 -0.00069
C 33.12694 5.02018 0.04926
C 31.89515 4.29442 -0.03838
C 31.84591 2.82081 0.00349
C 33.15793 2.16772 -0.00323
C 33.18024 0.76186 -0.00841
C 31.92775 34.07587 0.0001
C 34.31905 32.65606 -0.02927
C 1.12939 31.96944 -0.01404
C 1.17642 30.54552 0.01027
C 34.43281 29.81196 0.01831
C 34.36844 28.35159 -0.01037
C 1.1252 27.72013 -0.00439
C 1.18085 26.30291 -0.00598
C 31.97585 15.68029 0.00369
C 3.65058 31.95486 0.02769
C 27.05509 0.04358 -0.00416
C 28.21101 2.22282 0.01799
C 19.70384 0.13699 0.01126
C 22.13985 32.61983 0.01852
C 23.34885 31.98777 -0.00381
C 23.37697 30.61329 0.03046
C 22.14688 29.89396 0.0296
C 22.15121 28.47452 0.03374
C 23.32179 27.74527 -0.02845
C 23.32396 26.41453 -0.03213
C 22.25755 25.39713 0.02239
C 21.01961 0.75379 -0.01185
C 22.12792 23.94352 0.01153
C 22.08361 19.89095 -0.0055
C 23.29638 19.11154 0.01515
C 23.3034 17.6222 -0.00225
C 22.0795 16.92967 0.00071
C 22.07053 15.62563 -0.01107
C 23.30366 14.85595 -0.01586
C 23.12365 13.5061 -0.01971
C 23.21718 2.04881 -0.02118
C 23.40249 0.67029 0.00733
C 22.14521 21.24865 0.02734
C 21.20075 13.3 -0.01662
C 20.91965 14.78619 -0.00478
C 19.76053 15.49314 0.01511
C 17.23932 16.93441 -0.02957
C 17.33429 15.46573 -0.04422
C 18.56057 14.83882 0.00654
C 18.36949 0.74927 -0.00703
C 17.14585 34.0716 -0.04076
C 19.68378 32.74442 -0.00652
C 20.85549 31.99854 0.0058
C 20.859 30.58537 -0.00865
C 19.65388 29.77185 0.00675
C 19.7052 28.33136 -0.00311
C 20.94554 27.61169 0.00742
C 21.03305 26.14175 -0.01594
C 19.69854 25.56683 0.0106
C 19.64901 24.18638 -0.01154
C 20.86644 23.43293 -0.01721
C 20.84961 21.9367 -0.02422
C 19.57863 21.23597 0.01277
C 19.61706 19.86123 0.00096
C 20.76555 19.15461 -0.01527
C 20.80559 17.71319 0.01087
C 19.64406 16.98093 0.00199
C 22.15461 0.01676 -0.00178
C 28.2864 0.71014 0.01699
C 24.66109 32.65712 0.00768
C 25.81611 30.51684 0.03005
C 27.00383 28.32618 -0.00037
C 28.23146 27.63679 -0.0032
C 28.15478 26.28347 0.00622
C 27.07188 19.87685 -0.02815
C 28.29627 19.17977 -0.00942
C 28.27 17.769 0.00487
C 27.03021 17.06019 0.00826
C 26.98554 15.59715 -0.00294
C 28.20252 14.9898 0.00152
C 27.04709 29.85872 -0.01654
C 28.20491 13.51679 0.01257
C 26.84919 11.33535 0.04185
C 28.18293 10.64385 0.00194
C 28.24453 9.24796 -0.00621
C 27.12386 8.5282 0.02611
C 27.0192 7.0998 0.02198
C 28.19576 6.33229 0.01094
C 28.16584 4.96798 0.00235
C 26.98442 4.34019 0.01495
C 26.95381 2.88575 0.01259
C 26.94453 12.77196 0.02316
C 28.28827 30.53925 -0.00218
C 28.28548 31.98786 -0.00802
C 27.04651 32.69797 0.00195
C 24.59989 29.87466 -0.04078
C 24.66342 28.47886 0.02117
C 25.76884 27.59823 0.02737
C 24.387 19.74179 -0.00498
C 25.78657 19.29935 0.00135
C 25.82372 17.83879 0.03102
C 24.60018 17.04308 0.02555
C 24.59146 15.54468 0.01423
C 25.7888 14.88169 -0.00285
C 25.7151 13.47774 -0.009
C 24.34158 12.8261 -0.01199
C 24.54328 11.37471 -0.00229
C 25.64027 10.57499 -0.00938
C 25.82273 9.05152 -0.0264
C 25.72013 6.52436 -0.01154
C 25.69753 5.0312 0.00684
C 24.59355 4.20647 -0.01052
C 24.46691 2.79405 -0.01679
C 25.74311 2.14035 0.00367
C 25.8227 0.70833 0.04306
C 24.64434 34.05247 0.00996
C 25.85105 31.92097 -0.0276
C 2.3976 32.66073 0.01707
