409
Graphene
C 34.38158 34.02242 0.01295
C 13.58593 5.14884 -0.01536
C 12.32131 4.43564 -0.02689
C 12.34929 2.93883 -0.01046
C 13.53569 2.11697 -0.00891
C 13.52476 0.70087 0.02819
C 12.17078 0.07449 0.00165
C 14.69711 32.68822 -0.02971
C 15.91845 31.95415 0.02894
C 16.01807 30.47456 -0.01789
C 14.74868 29.84835 0.00444
C 14.78421 28.46369 -0.00925
C 16.07663 27.68977 0.01877
C 15.99091 26.18018 0.01363
C 14.7622 25.50567 -0.02162
C 14.74934 24.05213 0.00415
C 15.92514 23.36793 -0.0014
C 15.90968 21.90581 0.02162
C 14.61288 21.26095 0.0076
C 14.63927 19.87825 0.01241
C 15.77565 19.13931 -0.01454
C 14.96608 7.11306 0.01945
C 13.63724 6.63852 0.03101
C 12.32191 7.25139 -0.00428
C 12.11277 19.98754 -0.02245
C 12.16584 21.36563 0.00985
C 9.72703 19.96647 0.00438
C 10.98298 19.33897 0.01291
C 9.69752 8.71764 0.00093
C 9.86841 7.24091 0.00057
C 11.18472 6.44879 -0.01634
C 11.11938 5.0856 -0.00334
C 9.91448 4.4039 0.02339
C 9.87019 2.95609 0.01641
C 11.10192 2.30784 -0.00719
C 11.0492 0.82195 0.01364
C 16.1117 6.3231 0.01416
C 9.79204 0.11484 -0.01062
C 13.52626 31.96118 0.03589
C 13.46671 30.54575 -0.02759
C 12.22049 29.83972 0.0402
C 12.27503 28.42694 0.00572
C 13.44882 27.64516 0.03592
C 13.4703 26.20768 0.00406
C 12.27075 25.56565 0.00943
C 12.35531 24.11452 0.02841
C 13.52532 23.44003 -0.01111
C 13.42671 22.00331 -0.01275
C 12.26489 32.755 -0.00033
C 9.78947 21.31027 -0.00191
C 16.02358 4.95437 0.03542
C 14.72539 2.95462 0.00244
C 18.452 2.09532 0.01443
C 18.41605 0.70139 0.03505
C 17.25488 34.0585 -0.02815
C 19.6384 32.60553 -0.04147
C 20.91988 31.97992 -0.05302
C 20.94815 30.51674 0.00213
C 19.7111 29.85541 -0.00066
C 19.64527 28.38748 -0.00289
C 20.83719 27.70615 0.00028
C 20.86559 26.3207 -0.02213
C 19.64403 25.54086 0.03698
C 19.56165 24.09434 -0.00109
C 20.79057 23.46232 -0.00491
C 20.81659 22.02665 0.03338
C 19.53857 21.2439 -0.0258
C 19.6753 19.82834 -0.0331
C 20.86625 19.03095 -0.00316
C 20.85064 17.62721 0.02188
C 19.63171 16.86769 -0.01979
C 19.80431 15.3867 0.02691
C 21.01882 14.9187 -0.01581
C 17.2686 2.85534 0.00979
C 17.24377 4.26261 -0.00481
C 18.47652 4.9707 0.00889
C 18.47855 6.37642 -0.02162
C 15.97219 2.17499 -0.01717
C 16.02237 0.71689 0.05265
C 14.79594 0.06359 -0.01952
C 17.25842 32.63993 -0.02813
C 18.42414 31.8599 0.00374
C 18.46676 30.53552 0.00052
C 17.24596 29.79391 -0.03682
C 17.28891 28.37254 0.01965
C 18.42423 27.63045 0.02058
C 18.42288 26.20237 -0.01957
C 14.70876 4.36484 0.02299
C 17.19896 25.48181 -0.0108
C 18.31326 23.31491 -0.02696
C 18.29838 21.87252 -0.00114
C 17.11223 21.17758 0.00228
C 17.03904 19.77865 0.00798
C 18.48078 18.97583 0.00422
C 18.45908 17.657 0.0351
C 18.48124 10.75596 -0.03113
C 18.19844 9.34198 0.02098
C 17.02249 8.51759 0.01848
C 17.24793 7.11148 -0.00619
C 17.11829 24.0819 -0.00368
C 10.98539 22.08711 0.00373
C 11.07136 23.55922 0.02147
C 9.8126 24.18961 -0.014
C 2.42698 2.83447 -0.003
C 3.67914 2.16067 0.01402
C 3.66491 0.72857 0.02379
C 2.38106 0.02884 0.00907
C 4.83081 32.74082 0.00643
C 6.10656 32.0568 -0.01509
C 6.06171 30.64893 0.03267
C 4.78791 29.88483 0.02374
C 4.80181 28.45982 0.00402
C 6.05752 27.78468 0.0073
C 6.12625 26.36303 0.0174
C 4.90039 25.6754 0.03828
C 4.82683 24.22867 0.01226
C 6.11978 23.43182 -0.00279
C 6.10957 22.04787 0.01996
C 4.94887 21.29924 -0.03996
C 4.92151 19.84246 0.01465
C 6.17401 19.08019 -0.00074
C 6.17754 17.72395 -0.00518
C 4.90803 17.05952 0.0086
C 4.81358 15.64688 -0.00643
C 2.42538 4.26155 0.00031
C 3.61482 5.05619 0.03189
C 3.63658 6.42416 -0.04307
C 2.46769 7.15109 0.03284
C 3.61143 30.57673 -0.02375
C 2.41514 29.81309 0.00558
C 2.37777 28.34938 -0.0059
C 3.58783 27.67819 -0.01386
C 3.69845 26.31162 -0.02805
C 2.41403 25.5677 0.00081
C 2.48182 24.22763 0.00245
C 3.63856 23.53458 0.02728
C 3.62024 22.09404 -0.00039
C 2.40299 21.28775 0.0064
C 6.03691 14.96615 0.017
C 2.37176 19.88025 0.00211
C 3.66147 17.80885 -0.01979
C 2.40403 17.05305 0.02784
C 2.48343 15.64639 -0.01977
C 3.64024 14.87909 -0.00561
C 3.65629 13.41398 0.00208
C 2.40712 12.79887 0.01707
C 2.44207 11.3412 0.02769
C 3.61838 10.69358 -0.03291
C 3.71459 9.21955 -0.04999
C 2.50618 8.54106 0.04505
C 3.61901 19.23176 -0.00449
C 6.10716 13.56278 -0.03113
C 4.93965 12.77188 -0.02566
C 4.86562 11.39734 -0.00094
C 7.46363 16.9079 0.00054
C 7.30864 15.51092 0.03007
C 7.26594 12.63385 -0.00095
C 7.33557 11.36857 0.01572
C 8.5939 9.31456 -0.04848
C 7.30648 8.61692 -0.00892
C 7.38788 7.25531 -0.01362
C 8.61714 6.55656 -0.0008
C 8.63556 5.1399 0.0288
C 7.37628 4.35718 0.00393
C 8.42078 17.83185 -0.00494
C 7.39777 3.00395 0.00895
C 8.55971 0.88203 0.02888
C 7.36089 0.16798 -0.00482
C 9.82696 32.83911 -0.01384
C 11.01583 31.98776 0.03693
C 11.02444 30.54213 0.01745
C 9.71237 29.90288 0.00488
C 9.766 28.52006 -0.01004
C 11.04501 27.76001 -0.02896
C 11.00146 26.30092 -0.00131
C 9.80704 25.59264 -0.01118
C 8.59361 2.24152 0.00685
C 21.02353 13.52883 0.01452
C 8.57581 19.14402 -0.00562
C 7.35502 21.32469 0.01849
C 6.03816 10.61736 0.02322
C 6.08787 9.26011 -0.00725
C 4.92187 8.54241 -0.05697
C 4.89631 7.15395 0.01087
C 6.19098 6.50104 -0.01343
C 6.14385 5.03036 0.00988
C 4.87113 4.35652 0.0276
C 4.82471 2.92314 0.01305
C 6.13152 2.24124 -0.00077
C 6.06982 0.80178 0.03368
C 7.28416 19.87792 -0.01142
C 4.83143 0.09718 -0.02929
C 8.56231 32.04564 -0.03337
C 8.56832 30.6797 0.01227
C 7.27905 29.95081 0.00873
C 7.25949 28.57699 -0.00049
C 8.54017 27.78216 0.00848
C 8.64747 26.33295 -0.01303
C 7.43187 25.63434 -0.01378
C 7.34735 24.19517 0.02635
C 8.59604 23.41908 0.0127
C 8.57642 22.05753 0.01396
C 7.27189 32.77128 -0.00966
C 3.55585 32.02119 0.00828
C 19.74092 13.00964 0.04892
C 20.83846 10.73245 -0.03557
C 29.51322 8.46724 -0.00971
C 29.53987 7.0596 0.01518
C 30.68315 6.29787 0.01908
C 30.69384 4.89241 0.07705
C 29.53336 4.18858 0.0103
C 29.54504 2.71327 0.02108
C 30.73354 2.0558 0.00716
C 30.71624 0.67636 0.00307
C 29.49095 34.03969 0.00346
C 31.98027 32.69847 0.01713
C 33.09017 31.87832 -0.01694
C 33.08391 30.52127 0.01428
C 31.91067 29.79671 -0.02142
C 31.9038 28.35875 0.0544
C 33.17883 27.69679 0.00026
C 33.16796 26.27057 0.00682
C 31.8928 25.58669 -0.01779
C 31.90513 24.09777 0.03794
C 33.1975 23.45423 0.01927
C 33.16435 21.97624 0.01574
C 31.88783 21.28932 -0.02383
C 30.74751 9.13401 -0.03735
C 30.77025 10.5966 -0.00944
C 29.51896 11.2814 -0.02155
C 29.5021 12.68423 -0.01461
C 28.28194 2.09115 0.01799
C 28.31571 0.69636 0.01699
C 27.10056 34.03136 -0.00416
C 29.53596 32.61992 0.01177
C 30.69859 31.93487 0.04266
C 30.73584 30.47854 0.01324
C 29.47352 29.80742 0.0014
C 29.48743 28.34529 0.00924
C 30.7241 27.66708 0.02326
C 30.66604 26.26876 0.00261
C 31.91793 19.83544 -0.01429
C 29.51308 25.5327 0.03265
C 30.68579 23.43575 -0.01854
C 30.75074 22.04372 -0.01415
C 29.43607 21.32673 -0.03039
C 29.51857 19.85572 0.01836
C 30.7437 19.12836 0.03531
C 30.65384 17.74335 -0.00669
C 29.45238 17.07288 0.0101
C 29.54102 15.56386 0.01705
C 30.74177 14.86218 -0.0405
C 30.68522 13.45293 -0.01303
C 29.45432 24.17963 -0.02049
C 27.07731 2.75741 0.01259
C 33.15693 19.16377 -0.0136
C 31.86648 16.98173 -0.02474
C 1.19815 21.98176 0.02712
C 34.42058 21.2825 -0.02213
C 34.3943 19.92916 0.01951
C 1.14113 19.25495 -0.01678
C 1.10076 17.79834 0.01223
C 34.33256 17.02066 0.00648
C 34.42098 15.60943 0.02114
C 1.17322 14.96824 -0.02957
C 1.15592 13.54542 0.00343
C 34.42755 12.82802 -0.02656
C 34.3948 11.35596 -0.02442
C 1.16693 10.64227 -0.00027
C 1.18484 9.24688 -0.00583
C 34.40877 8.44844 -0.02302
C 34.39684 7.02353 -0.02849
C 1.23608 6.36472 0.02931
C 1.1949 4.92868 0.00628
C 34.38723 4.23355 -0.0345
C 34.38774 2.81327 -0.00931
C 1.18013 2.15359 -0.00939
C 1.13103 0.76033 -0.00468
C 1.28202 23.47501 0.00723
C 0.05615 24.14904 0.03076
C 34.41232 25.5433 -0.05239
C 1.17561 26.2161 -0.00598
C 31.95994 15.66094 0.00369
C 33.22992 14.97607 0.00455
C 33.18199 13.51523 -0.00644
C 31.86565 12.71683 -0.01839
C 31.9728 11.32004 0.00137
C 33.24978 10.6511 0.00199
C 33.19426 9.2078 0.04381
C 31.91568 8.48064 0.02806
C 31.92909 7.01406 0.01504
C 33.14897 6.36108 -0.00069
C 33.15017 17.71891 0.00594
C 33.19777 4.95731 0.04926
C 31.92907 2.76126 0.00349
C 33.14374 2.12676 -0.00323
C 33.19755 0.74729 -0.00841
C 31.96578 0.03331 0.0001
C 34.35956 32.58101 -0.02927
C 1.15321 31.89688 -0.01404
C 1.18688 30.50726 0.01027
C 34.38029 29.79847 0.01831
C 34.342 28.39324 -0.01037
C 1.11162 27.70753 -0.00439
C 31.98866 4.27419 -0.03838
C 27.06582 4.21895 0.01495
C 28.22982 4.86997 0.00235
C 28.26177 6.26911 0.01094
C 22.21642 15.68224 0.00096
C 23.37371 14.87563 -0.01527
C 23.41571 13.48076 0.01087
C 22.22165 12.71851 0.00199
C 22.0545 11.34178 0.01511
C 23.29689 10.66114 -0.00478
C 23.36671 9.18654 -0.01662
C 22.10391 8.53684 -0.01185
C 22.0883 7.15268 0.01126
C 23.43724 6.39387 0.01852
C 23.33719 4.99398 -0.00381
C 22.09017 4.29245 0.03046
C 22.12781 2.82847 0.0296
C 23.38219 2.08742 0.03374
C 23.3269 0.62318 -0.02845
C 22.09387 34.04453 -0.03213
C 24.63749 32.64396 0.02239
C 25.83474 31.90162 0.01153
C 25.89583 30.46404 0.02734
C 24.61508 29.74235 -0.0055
C 24.58675 28.33487 0.01515
C 22.14326 17.04433 0.01277
C 23.35623 17.78639 -0.02422
C 23.31407 19.22516 -0.01721
C 22.06313 19.88223 -0.01154
C 20.78724 9.32854 0.03754
C 19.55179 8.60919 0.01739
C 19.64947 7.18939 0.00755
C 20.86108 6.46673 -0.0054
C 20.89317 4.98227 0.00667
C 19.67896 4.27723 0.00143
C 19.7029 2.84501 -0.017
C 20.8966 2.08641 0.00364
C 20.88559 0.70903 -0.00831
C 19.6487 34.03601 -0.02957
C 25.84346 27.65014 -0.00225
C 22.11702 32.6312 -0.04422
C 23.41163 30.54161 -0.00703
C 22.07562 29.7514 -0.04076
C 22.12447 28.37707 -0.00652
C 23.28619 27.68767 0.0058
C 23.39225 26.24076 -0.00865
C 22.12902 25.55617 0.00675
C 22.05429 24.13552 -0.00311
C 23.3001 23.39367 0.00742
C 23.29995 21.96881 -0.01594
C 22.033 21.33227 0.0106
C 23.40377 31.88955 0.00654
C 25.84198 26.19716 0.00071
C 24.61222 25.56826 -0.01107
C 24.58295 24.17004 -0.01586
C 27.08926 29.82054 0.04306
C 27.07897 28.4081 0.00996
C 28.26123 27.66365 0.00195
C 28.28594 26.23243 -0.00802
C 27.04396 25.55982 -0.00218
C 27.02019 24.15276 -0.01654
C 28.19242 23.45677 -0.00037
C 28.1644 22.033 -0.0032
C 26.98896 21.30902 0.00622
C 27.06008 19.94023 -0.02815
C 28.33002 30.58038 0.00367
C 28.24857 19.16736 -0.00942
C 27.05239 17.06483 0.00826
C 27.08687 15.6319 -0.00294
C 28.26298 14.8994 0.00152
C 28.23888 13.41128 0.01257
C 27.06566 12.71087 0.02316
C 27.05097 11.28419 0.04185
C 28.23469 10.59537 0.00194
C 28.23782 9.14668 -0.00621
C 27.05341 8.43234 0.02611
C 27.09855 7.01063 0.02198
C 28.22958 17.78058 0.00487
C 19.58772 11.51454 -0.00111
C 28.27437 31.98425 -0.01679
C 24.58128 0.03282 0.00684
C 25.8157 23.39499 -0.01971
C 25.74212 22.01604 -0.02118
C 24.59651 21.28017 0.00733
C 24.52097 19.94244 -0.00178
C 25.76183 19.15823 0.00768
C 25.78507 17.71812 -0.0276
C 24.57181 17.09921 0.03005
C 24.60486 15.70529 -0.04078
C 25.8618 14.84958 0.02117
C 25.80533 13.41879 0.02737
C 27.13454 32.67151 -0.01052
C 24.58414 12.76599 -0.00498
C 25.83927 10.5056 0.03102
C 25.8528 9.15155 0.02555
C 24.59502 8.47759 0.01423
C 24.54952 7.07784 -0.00285
C 25.76981 6.28711 -0.009
C 25.77211 4.89982 -0.01199
C 24.56342 4.17596 -0.00229
C 24.53497 2.76091 -0.00938
C 25.87788 2.06628 -0.0264
C 25.80361 0.62719 -0.01154
C 24.61551 11.30974 0.00135
C 2.34889 32.71647 0.00088
