377
Graphene
C 34.35038 34.0574 0.01295
C 12.22235 21.36443 0.03542
C 12.32646 19.93001 0.02299
C 13.51856 19.2696 0.00244
C 13.59245 17.85925 -0.01717
C 12.37177 17.0505 0.05265
C 12.17736 15.72838 -0.01952
C 12.27661 2.71034 -0.02813
C 13.39029 1.86305 0.00374
C 13.60365 0.66428 0.00052
C 12.32559 34.00511 -0.03682
C 14.8695 32.62735 0.01965
C 16.08898 31.95532 0.02058
C 16.01174 30.50532 -0.01957
C 14.75378 29.80859 -0.0108
C 14.73109 28.29439 -0.00368
C 15.88358 27.62969 -0.02696
C 15.88967 26.22963 -0.00114
C 14.72013 25.475 0.00228
C 14.70286 24.05435 0.00798
C 13.58314 22.04441 0.01416
C 13.48172 23.38468 0.01945
C 12.23029 24.19263 -0.01454
C 12.30066 25.54516 0.01241
C 9.8619 21.32947 -0.00428
C 9.85222 19.94918 0.03101
C 11.05002 19.24247 -0.01536
C 11.15788 17.79266 -0.02689
C 9.90218 17.04364 -0.01046
C 9.88287 15.59362 -0.00891
C 11.13428 14.97394 0.02819
C 9.87011 12.846 0.00165
C 9.93325 4.33494 -0.02971
C 16.05351 23.38064 0.00422
C 9.88491 2.95737 0.02894
C 11.03738 0.72924 0.00444
C 9.82066 0.00372 -0.00925
C 12.39431 32.5508 0.01877
C 13.62108 31.93303 0.01363
C 13.60316 30.56006 -0.02162
C 12.31738 29.80873 0.00415
C 12.24772 28.46042 -0.0014
C 13.52241 27.67406 0.02162
C 13.48253 26.24636 0.0076
C 10.97835 2.14218 -0.01789
C 11.0609 22.00486 -0.02245
C 16.0791 21.97866 0.0351
C 14.79047 19.92762 0.02098
C 19.58851 32.64585 -0.01979
C 20.83237 31.94985 0.02691
C 20.9215 30.46138 -0.01581
C 19.6541 29.77059 0.01452
C 19.63754 28.42086 0.04892
C 20.93673 27.69496 -0.00111
C 20.90812 26.25747 -0.03557
C 19.65221 25.61946 0.03754
C 19.63738 24.09656 0.01739
C 20.905 23.3968 0.00755
C 20.96689 21.90884 -0.0054
C 19.6964 21.25028 0.00667
C 19.61956 19.8467 0.00143
C 20.9303 19.08047 -0.017
C 20.86349 17.64674 0.00364
C 19.5967 16.90515 -0.00831
C 19.73819 15.55851 -0.02957
C 21.00504 14.97879 -0.04422
C 19.65106 2.75331 0.00654
C 17.13571 0.06849 0.02188
C 18.29905 0.80947 -0.00316
C 18.36172 2.16914 -0.0331
C 17.24248 17.03241 -0.0258
C 15.932 19.22428 0.01848
C 15.98972 17.60273 -0.00619
C 14.73394 17.10072 -0.02162
C 15.95423 0.8174 0.00889
C 14.82422 34.07018 -0.00481
C 17.25191 32.67532 0.00979
C 18.42056 31.95014 0.01443
C 18.45693 30.50285 0.03505
C 17.25025 29.72522 -0.02815
C 14.784 21.39989 -0.03113
C 17.19342 28.29358 -0.04147
C 18.42524 26.22674 0.00213
C 17.17928 25.52832 -0.00066
C 17.20058 24.15407 -0.00289
C 18.47461 23.45277 0.00028
C 18.4855 21.99061 -0.02213
C 17.2626 21.27605 0.03698
C 17.25837 19.83423 -0.00109
C 18.44385 19.1216 -0.00491
C 18.44829 17.63323 0.03338
C 18.41407 27.67091 -0.05302
C 11.06166 23.43398 0.00985
C 9.80504 24.15939 -0.01275
C 9.83203 25.57273 -0.01111
C 3.68585 0.74723 0.00988
C 2.42579 0.03394 0.0276
C 4.86399 32.71834 0.01305
C 6.06909 31.99709 -0.00077
C 6.16979 30.55938 0.03368
C 4.96414 29.88342 -0.02929
C 4.87379 28.42956 -0.00966
C 6.10912 27.7141 -0.03337
C 6.09739 26.33632 0.01227
C 4.84399 25.62024 0.00873
C 4.89536 24.14419 -0.00049
C 6.09202 23.54361 0.00848
C 6.06951 22.05867 -0.01303
C 4.81007 21.37155 -0.01378
C 4.84676 19.97906 0.02635
C 6.12269 19.27352 0.0127
C 6.15364 17.91166 0.01396
C 6.14846 10.61821 0.01849
C 6.2628 9.22063 -0.01142
C 3.71726 2.1796 -0.01343
C 2.379 2.8441 0.01087
C 2.37851 4.19344 -0.05697
C 3.65563 5.03413 -0.00725
C 3.68891 30.5324 0.03267
C 2.46547 29.85514 0.02374
C 2.40806 28.47316 0.00402
C 3.604 27.70661 0.0073
C 3.64031 26.36706 0.0174
C 2.42343 25.65881 0.03828
C 2.46858 24.16416 0.01226
C 3.65007 23.3863 -0.00279
C 3.61401 21.99229 0.01996
C 4.98554 8.46324 -0.00562
C 2.43113 21.29952 -0.03996
C 3.68107 19.23029 -0.00074
C 3.52267 17.93872 -0.00518
C 2.4623 17.2273 0.0086
C 2.5811 11.30154 -0.00643
C 3.61536 10.52439 0.017
C 3.79314 9.14931 -0.03113
C 2.48606 8.52368 -0.02566
C 2.43146 7.10642 -0.00094
C 3.6606 6.44339 0.02322
C 2.42492 19.90926 0.01465
C 4.96938 7.07847 -0.00494
C 6.15463 6.41377 0.00054
C 6.14158 5.05125 0.03007
C 7.31466 12.85264 0.00438
C 7.22839 11.40225 0.01291
C 8.39779 10.66669 0.00093
C 8.75221 9.38097 0.00057
C 7.60717 8.58896 -0.01634
C 7.43374 7.11017 -0.00334
C 8.39743 6.27059 0.02339
C 8.63894 4.9297 0.01641
C 7.36288 4.22545 -0.00719
C 8.7287 13.50115 -0.00191
C 7.36538 2.85808 0.01364
C 8.60816 0.73137 -0.00033
C 7.30948 0.10232 0.03589
C 9.8076 32.72467 -0.02759
C 11.1542 31.9556 0.0402
C 11.12225 30.54809 0.00572
C 9.85344 29.83454 0.03592
C 9.82421 28.45157 0.00406
C 11.0276 27.72693 0.00943
C 11.06442 26.31055 0.02841
C 8.60841 2.18938 -0.01062
C 20.86618 2.25392 -0.00703
C 8.57911 14.93574 0.00373
C 7.27888 17.0763 -0.014
C 4.88193 4.36909 -0.00095
C 4.86553 2.95214 0.01572
C 6.13509 2.21029 -0.04848
C 6.08602 0.84964 -0.00892
C 4.83434 0.08635 -0.01362
C 7.33692 32.75139 -0.0008
C 8.54121 31.97064 0.0288
C 8.61643 30.57594 0.00393
C 7.38085 29.89062 0.00895
C 7.51173 15.67023 0.02147
C 7.34724 28.43058 0.00685
C 8.58816 26.30862 -0.00482
C 7.3762 25.6334 -0.01384
C 7.37907 24.19048 0.03693
C 8.54488 23.51316 0.01745
C 8.5455 22.11213 0.00488
C 7.34714 21.33089 -0.01004
C 7.39826 19.92521 -0.02896
C 8.58516 19.21316 -0.00131
C 8.63621 17.86597 -0.01118
C 8.54925 27.72849 0.02888
C 3.72017 31.91772 -0.01509
C 20.75845 0.81644 -0.04076
C 22.04632 32.6074 0.0058
C 29.54467 4.25101 0.00716
C 29.46105 2.84558 0.00307
C 30.68156 2.20288 0.00346
C 30.67267 0.65908 0.01713
C 29.52467 34.03616 -0.01694
C 31.95744 32.66486 0.01428
C 33.18974 32.00767 -0.02142
C 33.13844 30.56493 0.0544
C 31.91494 29.78412 0.00026
C 31.96538 28.39226 0.00682
C 33.18744 27.66352 -0.01779
C 33.22253 26.27569 0.03794
C 31.97662 25.54359 0.01927
C 31.86225 24.13357 0.01574
C 33.16462 23.4109 -0.02383
C 33.12237 22.04579 -0.01429
C 32.00112 21.30002 -0.0136
C 31.99015 19.84184 0.00594
C 33.27017 19.10919 -0.02474
C 30.6812 4.97197 0.02108
C 30.73133 6.38773 0.0103
C 29.5394 7.11133 0.07705
C 29.50284 8.51398 0.01908
C 29.50064 29.81022 0.02326
C 29.51624 28.35594 0.00261
C 30.80062 27.73808 0.03265
C 30.71626 26.27577 -0.02049
C 29.496 25.53907 -0.01854
C 29.46372 24.06752 -0.01415
C 30.66026 23.42972 -0.03039
C 30.79556 21.94008 0.01836
C 29.50799 21.28384 0.03531
C 33.20225 17.74437 0.00369
C 29.56154 19.81973 -0.00669
C 30.68505 17.7265 0.01705
C 29.4431 17.02702 -0.0405
C 29.52252 15.63804 -0.01303
C 30.74089 14.93514 -0.01461
C 30.79697 13.46975 -0.02155
C 29.55482 12.7526 -0.00944
C 29.46855 11.33818 -0.03735
C 30.74056 10.6301 -0.00971
C 30.73311 9.14578 0.01518
C 30.75113 19.13573 0.0101
C 30.71381 30.57171 0.00924
C 31.88568 17.03101 0.00455
C 33.22367 14.92221 -0.01839
C 1.19734 22.00998 0.01951
C 34.38677 21.30602 -0.01678
C 34.41759 19.93282 0.01223
C 1.12675 19.15651 0.00648
C 1.21855 17.74263 0.02114
C 0.00055 16.99261 -0.02957
C 34.42326 15.62174 0.00343
C 0.04522 12.85498 -0.02656
C 0.01285 11.46186 -0.02442
C 1.33165 10.76994 -0.00027
C 1.27312 9.27279 -0.00583
C 0.00448 8.59208 -0.02302
C 34.429 7.12002 -0.02849
C 1.25027 6.44051 0.02931
C 1.22921 4.94825 0.00628
C 34.37579 4.25841 -0.0345
C 34.33904 2.84882 -0.00931
C 1.21888 2.12224 -0.00939
C 1.21646 0.65543 -0.00468
C 1.21288 23.47603 -0.02213
C 34.39767 24.12989 0.02712
C 0.01421 25.60995 0.00723
C 1.22244 26.28866 0.03076
C 33.27156 13.49513 0.00137
C 32.05777 12.75965 0.00199
C 31.94917 11.36517 0.04381
C 33.23585 10.68028 0.02806
C 33.2208 9.22816 0.01504
C 31.95857 8.45013 -0.00069
C 31.98257 7.12077 0.04926
C 33.24559 6.42164 -0.03838
C 33.18483 4.96975 0.00349
C 31.9596 15.58242 -0.00644
C 31.89786 4.24056 -0.00323
C 33.19205 2.14572 0.0001
C 33.17955 0.74571 -0.02927
C 31.93992 34.0769 -0.01404
C 34.42721 32.66906 0.01027
C 1.22878 31.93277 0.01831
C 1.26243 30.55236 -0.01037
C 34.40125 29.88866 -0.00439
C 34.39528 28.46804 -0.00598
C 1.14188 27.69864 -0.05239
C 31.90536 2.91685 -0.00841
C 30.73452 32.00937 0.0014
C 29.50327 32.6194 0.01324
C 27.05856 0.05289 0.04266
C 22.07239 2.9188 -0.02845
C 23.38991 2.12224 -0.03213
C 23.34096 0.64665 0.02239
C 21.99392 34.07938 0.01153
C 24.55316 32.63011 0.02734
C 25.88238 31.95792 -0.0055
C 25.81584 30.58575 0.01515
C 24.62288 29.78085 -0.00225
C 24.64007 28.35012 0.00071
C 25.8544 27.59311 -0.01107
C 25.8048 26.20398 -0.01586
C 24.59191 25.44903 -0.01971
C 24.5939 24.0143 -0.02118
C 25.76246 23.36543 0.00733
C 25.81522 21.98604 -0.00178
C 24.64735 21.2178 0.00768
C 24.5741 19.8273 -0.0276
C 25.75699 19.16129 0.03005
C 25.776 17.81132 -0.04078
C 22.15084 4.25597 0.03374
C 23.21382 5.01409 0.0296
C 23.44719 6.30547 0.03046
C 23.17842 9.20675 -0.00381
C 23.31524 31.92967 -0.00865
C 23.34489 30.4408 0.00675
C 22.15652 29.68643 -0.00311
C 22.16239 28.32772 0.00742
C 23.41003 27.65973 -0.01594
C 23.35608 26.20009 0.0106
C 22.14501 25.50157 -0.01154
C 22.1293 24.11212 -0.01721
C 23.37936 23.38172 -0.02422
C 24.58839 17.03698 0.02117
C 23.42038 21.98727 0.01277
C 22.05957 19.85091 -0.01527
C 23.3234 19.1179 0.01087
C 23.33564 17.71239 0.00199
C 22.08898 16.95731 0.01511
C 22.21743 15.58112 -0.00478
C 23.3866 14.89987 -0.01662
C 23.38841 13.46874 -0.01185
C 22.14028 12.81898 0.01126
C 23.37834 10.57744 0.01852
C 22.16692 21.21195 0.00096
C 24.58417 15.62099 0.02737
C 25.79861 14.8661 -0.00498
C 25.78043 13.52678 0.00135
C 27.05856 21.28447 -0.00942
C 26.91763 19.86864 0.00487
C 28.24747 19.18639 0.00826
C 28.23107 17.83298 -0.00294
C 27.01121 17.07271 0.00152
C 27.04655 15.63075 0.01257
C 28.29124 14.989 0.02316
C 28.33302 13.5671 0.04185
C 27.12348 12.81666 0.00194
C 28.32383 21.96437 -0.02815
C 26.98376 11.40631 -0.00621
C 28.23996 9.24071 0.02198
C 26.98158 8.54071 0.01094
C 27.06707 7.10514 0.00235
C 28.26195 6.40701 0.01495
C 28.32455 5.06836 0.01259
C 27.0007 4.28287 0.01799
C 27.10449 2.88354 0.01699
C 28.25244 2.14798 -0.00416
C 28.24133 0.7574 0.01177
C 28.30593 10.67205 0.02611
C 19.53616 0.08227 -0.00652
C 28.307 23.33954 0.00622
C 27.06526 25.46325 -0.00037
C 24.56399 12.73543 0.03102
C 24.57712 11.35162 0.02555
C 25.76614 10.67772 0.01423
C 25.76428 9.21706 -0.00285
C 24.42406 8.61321 -0.009
C 24.53249 7.12476 -0.01199
C 25.78335 6.3525 -0.00229
C 25.83692 4.9507 -0.00938
C 24.63476 4.1929 -0.0264
C 27.02429 24.08573 -0.0032
C 24.55465 2.80653 -0.01154
C 25.78972 0.77813 -0.01052
C 24.5611 34.00716 -0.01679
C 26.99644 32.65842 0.00367
C 28.2457 31.8906 0.04306
C 28.22701 30.52996 0.00996
C 27.01667 29.78936 0.00195
C 27.0202 28.33587 -0.00802
C 28.31316 27.67224 -0.00218
C 28.26622 26.27304 -0.01654
C 25.81629 2.13799 0.00684
C 2.46078 32.62163 0.00643
