343
Graphene
C 0.01516 0.02244 0.01295
C 13.57737 26.22847 0.01848
C 12.27013 25.61776 -0.00619
C 12.29138 24.1851 -0.02162
C 13.52632 23.4292 0.00889
C 12.29331 4.31596 -0.00481
C 12.30377 2.85623 0.00979
C 13.49665 2.1156 0.01443
C 13.48123 0.68716 0.03505
C 12.26782 33.98868 -0.02815
C 14.76826 32.66007 -0.04147
C 16.02649 31.99335 -0.05302
C 16.00393 30.4933 0.00213
C 14.77124 29.80152 -0.00066
C 14.7912 28.37964 -0.00289
C 16.00007 27.74881 0.00028
C 16.01317 26.2433 -0.02213
C 14.76008 25.51255 0.03698
C 13.48543 27.64908 0.02098
C 12.33434 28.32157 -0.03113
C 12.26744 29.77801 0.0351
C 13.47563 30.57536 0.00422
C 11.10677 30.48955 0.02299
C 9.8277 29.84994 0.00244
C 9.79031 28.44692 -0.01717
C 11.09552 27.7002 0.05265
C 11.07233 26.26549 -0.01952
C 9.84345 25.56075 -0.02813
C 9.85126 24.1359 0.00374
C 11.04555 23.43287 0.00052
C 14.76105 24.07277 -0.00109
C 11.08757 22.02996 -0.03682
C 11.10451 4.98893 0.02058
C 9.80887 4.27688 -0.01957
C 9.82825 2.89532 -0.0108
C 11.09129 2.08132 -0.00368
C 11.08537 0.67251 -0.02696
C 9.86081 0.01603 -0.00114
C 12.35521 32.6584 0.00228
C 13.50762 31.90533 0.00798
C 9.86425 21.35835 0.01965
C 11.07401 31.92111 0.03542
C 15.93441 23.39654 -0.00491
C 14.7815 2.8422 -0.0258
C 19.72425 29.80139 -0.00703
C 19.69898 28.40945 -0.04076
C 20.94923 27.70842 -0.00652
C 20.88144 26.33221 0.0058
C 19.65493 25.57323 -0.00865
C 19.67326 24.09178 0.00675
C 20.90052 23.39828 -0.00311
C 20.92993 22.05344 0.00742
C 20.94599 4.89871 -0.01594
C 19.66777 4.27043 0.0106
C 19.6554 2.86878 -0.01154
C 20.9004 2.11442 -0.01721
C 20.92336 0.7563 -0.02422
C 19.68104 34.04314 0.01277
C 22.12248 32.63987 0.00096
C 23.35795 31.94964 -0.01527
C 23.40024 30.47411 0.01087
C 20.86642 30.55467 0.00654
C 20.8823 31.94676 -0.04422
C 19.69269 32.63945 -0.02957
C 17.24741 34.06749 -0.00831
C 15.973 2.14379 -0.0331
C 15.92973 0.72723 -0.00316
C 14.71989 0.00893 0.02188
C 17.1927 32.69495 -0.01979
C 18.44375 32.00322 0.02691
C 18.43903 30.54755 -0.01581
C 17.24544 29.79388 0.01452
C 17.24201 28.38436 0.04892
C 14.74138 4.26673 0.03338
C 18.47264 27.72288 -0.00111
C 17.26729 25.5779 0.03754
C 17.22544 24.11795 0.01739
C 18.44349 23.39217 0.00755
C 18.40973 4.91493 -0.0054
C 17.22681 4.27339 0.00667
C 17.25601 2.85259 0.00143
C 18.43174 2.13274 -0.017
C 18.43158 0.74377 0.00364
C 18.40882 26.27213 -0.03557
C 22.13589 29.79591 0.00199
C 9.78103 32.67913 0.01416
C 8.6162 0.70581 -0.01454
C 2.4889 7.09818 0.00685
C 3.67313 6.3628 0.02888
C 3.67622 4.92183 -0.00482
C 2.41522 4.22051 -0.01384
C 2.47729 2.81607 0.03693
C 3.65122 2.10059 0.01745
C 3.68672 0.70502 0.00488
C 2.47266 0.01472 -0.01004
C 4.89111 32.73822 -0.02896
C 6.16946 31.9407 -0.00131
C 6.14242 30.52038 -0.01118
C 4.89314 29.82948 -0.014
C 4.92132 28.44298 0.02147
C 6.16636 27.65929 0.00373
C 6.14152 26.30746 -0.00191
C 4.92324 25.57726 0.00438
C 4.88244 24.15222 0.01291
C 2.46306 8.53559 0.00895
C 3.69208 9.29356 0.00393
C 3.713 10.61782 0.0288
C 2.4546 11.41068 -0.0008
C 3.70904 30.54154 -0.00049
C 2.45875 29.82614 0.00848
C 2.43173 28.45109 -0.01303
C 3.7088 27.74046 -0.01378
C 3.70035 26.24658 0.02635
C 2.44836 25.5639 0.0127
C 2.42781 24.15851 0.01396
C 3.72181 23.40792 0.01849
C 6.20523 23.4495 0.00093
C 3.69162 22.01 -0.01142
C 2.52578 19.83155 -0.00494
C 3.71854 19.15507 0.00054
C 3.6462 17.7178 0.03007
C 2.44073 17.09525 -0.00095
C 2.43469 15.63287 0.01572
C 3.68622 14.88689 -0.04848
C 3.68063 13.50118 -0.00892
C 2.4794 12.77997 -0.01362
C 2.42531 21.256 -0.00562
C 7.40744 34.078 0.01945
C 6.08647 21.97077 0.00057
C 4.92071 19.95096 -0.00334
C 7.36984 29.8707 -0.01046
C 7.40085 28.40567 -0.00891
C 8.65281 27.71444 0.02819
C 8.61309 26.22101 0.00165
C 7.41099 25.58896 -0.02971
C 7.3976 24.17453 0.02894
C 8.60178 23.47454 -0.01789
C 8.58921 22.00099 0.00444
C 7.33697 21.25136 -0.00925
C 7.36207 19.87039 0.01877
C 7.42022 8.51895 0.01363
C 7.39163 7.06001 -0.02162
C 8.58052 6.41172 0.00415
C 8.62421 5.03255 -0.0014
C 7.35668 4.27197 0.02162
C 7.42686 2.81463 0.0076
C 8.65235 2.12179 0.01241
C 8.62519 30.55958 -0.02689
C 8.56167 31.86001 -0.01536
C 7.36468 32.64678 0.03101
C 4.86877 0.03799 -0.00428
C 6.1245 19.13625 0.02339
C 6.15373 17.76369 0.01641
C 4.93975 17.07347 -0.00719
C 4.90072 15.65878 0.01364
C 6.18688 14.87424 -0.01062
C 6.11603 13.55539 -0.00033
C 4.90474 12.79542 0.03589
C 4.94451 11.36437 -0.02759
C 4.90947 21.30905 -0.01634
C 6.15433 10.66188 0.0402
C 4.91887 8.57014 0.03592
C 4.90211 7.11371 0.00406
C 6.1045 6.41164 0.00943
C 6.17132 4.97703 0.02841
C 4.91842 4.29536 -0.01111
C 4.91699 2.89364 -0.01275
C 6.18006 2.17327 0.00985
C 6.11218 0.78453 -0.02245
C 6.134 9.26155 0.00572
C 3.73255 31.98752 0.00873
C 22.08018 28.39251 0.01511
C 23.35382 26.29961 -0.01662
C 31.99426 29.79464 -0.02142
C 32.004 28.37741 0.0544
C 33.19194 27.73413 0.00026
C 33.16798 26.31108 0.00682
C 31.9877 25.55407 -0.01779
C 31.94083 24.1439 0.03794
C 33.18658 23.44898 0.01927
C 33.21439 21.97796 0.01574
C 32.01142 21.29461 -0.02383
C 31.92928 19.92214 -0.01429
C 33.17894 19.19075 -0.0136
C 33.22433 17.80433 0.00594
C 31.9971 17.01226 -0.02474
C 31.99233 15.61197 0.00369
C 33.17861 14.8809 0.00455
C 33.23417 13.47137 -0.00644
C 31.94477 12.8118 -0.01839
C 33.14348 30.52647 0.01428
C 33.16593 31.94988 -0.01694
C 31.93042 32.60965 0.01713
C 29.52394 0.02029 0.00346
C 30.69906 19.15532 0.03531
C 30.7601 17.76752 -0.00669
C 29.49787 17.01502 0.0101
C 29.50791 15.6039 0.01705
C 30.77063 14.93922 -0.0405
C 30.77475 13.49716 -0.01303
C 29.52498 12.82657 -0.01461
C 29.51552 11.35133 -0.02155
C 31.95566 11.34455 0.00137
C 30.74091 10.62991 -0.00944
C 29.46038 8.56127 -0.00971
C 29.55641 7.09566 0.01518
C 30.75975 6.37175 0.01908
C 30.79205 4.95562 0.07705
C 29.48695 4.27394 0.0103
C 29.51541 2.86974 0.02108
C 30.75788 2.12133 0.00716
C 30.73843 0.69179 0.00307
C 30.73795 9.24103 -0.03735
C 30.74184 22.01921 0.01836
C 33.21654 10.67723 0.00199
C 31.98263 8.45896 0.02806
C 1.24924 17.71357 0.01223
C 0.01433 17.02903 0.00648
C 34.41532 15.63771 0.02114
C 1.22666 14.8732 -0.02957
C 1.19197 13.50848 0.00343
C 0.04152 12.71853 -0.02656
C 34.38425 11.3329 -0.02442
C 1.19275 10.69866 -0.00027
C 1.20851 9.20698 -0.00583
C 34.39354 8.54899 -0.02302
C 34.41827 7.10859 -0.02849
C 1.22499 6.32791 0.02931
C 1.24313 4.93931 0.00628
C 0.00019 4.25903 -0.0345
C 0.0561 2.81563 -0.00931
C 1.2526 2.08323 -0.00939
C 1.25518 0.7164 -0.00468
C 1.27346 19.15915 -0.01678
C 34.40651 19.87701 0.01951
C 0.00404 21.2811 -0.02213
C 1.2078 22.02855 0.02712
C 31.9469 7.12095 0.01504
C 33.21362 6.44907 -0.00069
C 33.19487 4.97557 0.04926
C 32.00865 4.30623 -0.03838
C 31.9491 2.88411 0.00349
C 33.20145 2.12308 -0.00323
C 33.19969 0.68282 -0.00841
C 32.00861 0.03142 0.0001
C 33.2077 9.23415 0.04381
C 34.40314 32.62484 -0.02927
C 1.22752 30.55055 0.01027
C 34.42614 29.83152 0.01831
C 0.03174 28.46437 -0.01037
C 1.19909 27.60779 -0.00439
C 1.21075 26.25002 -0.00598
C 34.41871 25.58289 -0.05239
C 0.03769 24.15233 0.03076
C 1.18046 23.41957 0.00723
C 1.19201 31.97318 -0.01404
C 23.35266 27.65914 -0.00478
C 30.74557 23.44122 -0.03039
C 29.50733 25.5279 -0.01854
C 24.5653 25.61053 0.00768
C 24.59428 24.19578 -0.0276
C 25.81702 23.43415 0.03005
C 25.78883 21.98803 -0.04078
C 24.5474 21.28777 0.02117
C 24.56821 19.89446 0.02737
C 25.85764 19.21601 -0.00498
C 25.85527 17.74496 0.00135
C 24.608 16.99633 0.03102
C 24.54797 15.65527 0.02555
C 25.82575 14.94033 0.01423
C 25.8195 13.52528 -0.00285
C 24.58113 12.75869 -0.009
C 24.58972 11.36944 -0.01199
C 25.80151 10.69809 -0.00229
C 25.85914 9.24907 -0.00938
C 24.60522 8.53373 -0.0264
C 25.80158 26.22022 -0.00178
C 25.79119 27.68984 0.00733
C 24.56634 28.40795 -0.02118
C 24.58673 29.88857 -0.01971
C 22.12849 25.50936 -0.01185
C 22.15871 24.09495 0.01126
C 23.31593 23.39873 0.01852
C 23.36851 22.01646 -0.00381
C 22.15424 21.28369 0.03046
C 22.12438 19.81705 0.0296
C 23.30974 19.16079 0.03374
C 22.15218 7.08402 -0.02845
C 24.60749 7.08812 -0.01154
C 23.3362 6.40276 -0.03213
C 22.1798 4.225 0.01153
C 22.11627 2.80971 0.02734
C 23.37981 2.13595 -0.0055
C 23.34326 0.70647 0.01515
C 22.13573 34.04017 -0.00225
C 24.56397 32.66923 0.00071
C 25.79601 31.92932 -0.01107
C 25.83913 30.52238 -0.01586
C 23.41187 4.98618 0.02239
C 29.49313 24.18211 -0.01415
C 25.76184 6.38696 0.00684
C 24.57111 4.23745 -0.01679
C 28.28158 9.18047 0.02198
C 27.04317 8.51978 0.01094
C 27.09037 7.08717 0.00235
C 28.29875 6.37946 0.01495
C 28.21036 4.98848 0.01259
C 27.00826 4.20565 0.01799
C 27.06378 2.82211 0.01699
C 28.289 2.1073 -0.00416
C 28.29151 0.67312 0.01177
C 27.10255 34.03065 0.04266
C 29.53951 32.65566 0.01324
C 30.73063 31.94014 0.0014
C 30.7642 30.45986 0.00924
C 29.50107 29.77835 0.02326
C 29.48109 28.4104 0.00261
C 30.77686 27.62268 0.03265
C 30.80448 26.19569 -0.02049
C 28.27575 10.63166 0.02611
C 27.04931 11.36782 -0.00621
C 27.07115 12.77979 0.00194
C 28.28949 13.46022 0.04185
C 24.61755 2.86087 0.00367
C 25.81522 2.13471 0.04306
C 25.82182 0.72624 0.00996
C 24.6287 34.07932 0.00195
C 27.1029 32.67683 -0.00802
C 28.31543 32.00151 -0.00218
C 28.28538 30.56549 -0.01654
C 27.08555 29.75323 -0.00037
C 25.80655 4.94367 -0.01052
C 27.09114 28.41907 -0.0032
C 28.26672 26.29935 -0.02815
C 27.03629 25.54885 -0.00942
C 27.05197 24.1407 0.00487
C 28.24606 23.4575 0.00826
C 28.26965 17.74819 -0.00294
C 27.08807 17.0515 0.00152
C 27.05283 15.67749 0.01257
C 28.26786 14.85849 0.02316
C 28.2922 27.72759 0.00622
C 2.49001 32.66814 0.01227
