356
Graphene
C 0.05432 0.04665 0.01295
C 9.788 11.27013 -0.0108
C 11.08611 10.67378 -0.00368
C 11.03995 9.29444 -0.02696
C 9.85972 8.55507 -0.00114
C 9.88425 7.10214 0.00228
C 11.08861 6.41896 0.00798
C 11.02561 4.91675 0.00422
C 9.76719 4.22783 0.0351
C 9.86861 12.69363 -0.01957
C 9.87776 2.8043 -0.03113
C 11.13991 0.67574 0.01848
C 9.89448 34.05877 -0.00619
C 12.33955 32.61982 -0.02162
C 13.55807 31.96916 0.00889
C 13.49888 30.55456 -0.00481
C 12.31766 29.79116 0.00979
C 12.27005 28.32097 0.01443
C 13.47943 27.63077 0.03505
C 11.1458 2.09213 0.02098
C 13.43114 26.20471 -0.02815
C 10.96206 13.49628 0.02058
C 9.79981 16.90795 -0.03682
C 7.28685 4.39887 -0.02162
C 7.28581 2.93826 0.00415
C 8.55703 2.17804 -0.0014
C 8.66515 0.73234 0.02162
C 7.42809 0.0648 0.0076
C 9.87278 32.6412 0.01241
C 11.09122 31.98979 -0.01454
C 11.09699 30.5243 0.01945
C 9.90829 15.72059 0.01965
C 9.84247 29.86514 0.01416
C 11.00347 27.71092 0.02299
C 11.00914 26.31078 0.00244
C 9.85103 25.51235 -0.01717
C 9.82624 24.0951 0.05265
C 11.14481 23.39389 -0.01952
C 11.18295 22.01423 -0.02813
C 9.91686 21.23255 0.00374
C 9.76847 19.90557 0.00052
C 9.87183 28.44346 0.03542
C 12.19009 25.50984 -0.04147
C 12.35658 24.05504 -0.05302
C 13.63469 23.49461 0.00213
C 15.96623 6.42627 0.00667
C 15.96541 5.05393 0.00143
C 14.7578 4.36052 -0.017
C 14.76659 2.87104 0.00364
C 15.94636 2.10114 -0.00831
C 15.98774 0.66358 -0.02957
C 14.74889 0.01369 -0.04422
C 17.219 32.61299 0.00654
C 14.71144 7.11359 -0.0054
C 18.47357 31.968 -0.00703
C 17.24745 29.82121 -0.00652
C 17.24557 28.42586 0.0058
C 18.43391 27.66584 -0.00865
C 18.3989 26.22747 0.00675
C 17.24503 25.57433 -0.00311
C 17.11144 8.49828 0.00742
C 17.17932 7.12976 -0.01594
C 18.39187 6.36586 0.0106
C 18.47201 30.51067 -0.04076
C 14.74871 8.63847 0.00755
C 16.1397 9.12236 0.01739
C 14.63601 24.17056 0.03754
C 12.22232 11.36742 -0.00066
C 13.42304 9.34224 -0.00289
C 12.24844 8.58089 0.00028
C 12.31142 7.11184 -0.02213
C 13.53199 6.3537 0.03698
C 13.49708 5.01647 -0.00109
C 12.24995 4.29982 -0.00491
C 12.3452 2.86476 0.03338
C 13.54976 2.1831 -0.0258
C 13.54233 0.76246 -0.0331
C 12.37646 34.00999 -0.00316
C 14.76687 32.67235 0.02188
C 15.95992 31.97392 -0.01979
C 16.03275 30.51304 0.02691
C 14.71228 29.86711 -0.01581
C 14.67036 28.40546 0.01452
C 15.95199 27.76084 0.04892
C 15.95614 26.22104 -0.00111
C 14.71952 25.55353 -0.03557
C 8.55783 4.99338 0.01363
C 18.41905 4.9658 -0.01154
C 8.61458 6.4163 0.01877
C 7.3722 8.49363 0.00444
C 2.43989 7.08145 -0.00562
C 3.67667 6.40582 -0.00494
C 3.63988 4.95066 0.00054
C 2.45437 4.25711 0.03007
C 2.47561 2.8767 -0.00095
C 3.73541 2.14854 0.01572
C 3.72652 0.70045 -0.04848
C 2.45862 34.04746 -0.00892
C 2.37872 8.51921 -0.01142
C 4.96979 32.69213 -0.01362
C 6.11664 30.53039 0.0288
C 4.8845 29.81475 0.00393
C 4.86524 28.43605 0.00895
C 6.10265 27.71986 0.00685
C 6.12074 26.3361 0.02888
C 4.93053 25.57233 -0.00482
C 4.9665 24.15728 -0.01384
C 6.14946 23.43595 0.03693
C 6.1731 31.94281 -0.0008
C 6.17063 22.04378 0.01745
C 3.60826 9.26422 0.01849
C 2.44578 11.43309 0.0127
C 3.67025 30.47349 -0.05697
C 2.40626 29.80809 0.01087
C 2.43062 28.43263 -0.01343
C 3.70502 27.69997 0.00988
C 3.74098 26.26771 0.0276
C 2.47778 25.55911 0.01305
C 2.54098 24.15992 -0.00077
C 3.73826 23.4503 0.03368
C 3.62297 10.73093 0.01396
C 3.6045 22.10169 -0.02929
C 2.47673 19.92756 -0.03337
C 3.71172 19.20985 0.01227
C 3.66988 17.74008 0.00873
C 2.4773 17.01328 -0.00049
C 2.48608 15.56541 0.00848
C 3.69962 14.88709 -0.01303
C 3.67849 13.46712 -0.01378
C 2.42227 12.83558 0.02635
C 2.40995 21.35635 -0.00966
C 4.90187 21.35593 0.00488
C 4.97063 19.92394 -0.01004
C 6.14117 19.14558 -0.02896
C 8.64683 27.72539 0.00406
C 8.65753 26.31639 0.00943
C 7.40119 25.59752 0.02841
C 7.38117 24.189 -0.01111
C 8.56957 23.34674 -0.01275
C 8.60148 21.97882 0.00985
C 7.38757 21.26985 -0.02245
C 7.37305 19.84985 -0.00428
C 7.38685 28.41404 0.03592
C 8.61482 19.19531 0.03101
C 7.37482 17.04601 -0.02689
C 7.45442 15.57907 -0.01046
C 8.74474 14.9141 -0.00891
C 8.60553 13.48278 0.02819
C 7.35663 12.72423 0.00165
C 7.32711 11.30549 -0.02971
C 8.57157 10.61633 0.02894
C 8.56335 9.15023 -0.01789
C 8.65825 17.77724 -0.01536
C 7.37443 29.853 0.00572
C 8.58292 30.53527 0.0402
C 8.6409 31.95095 -0.02759
C 6.10435 17.73472 -0.00131
C 4.89536 17.1162 -0.01118
C 4.99364 15.65382 -0.014
C 6.22047 14.92091 0.02147
C 6.16776 13.49099 0.00373
C 4.91139 12.79671 -0.00191
C 4.83799 11.41759 0.00438
C 6.13553 10.65825 0.01291
C 6.1533 9.25034 0.00093
C 4.90842 8.63467 0.00057
C 4.90045 7.15701 -0.01634
C 6.118 6.50466 -0.00334
C 6.08841 5.10799 0.02339
C 4.89584 4.32768 0.01641
C 4.84737 2.9231 -0.00719
C 6.08132 2.16517 0.01364
C 6.15644 0.71176 -0.01062
C 4.95922 0.03522 -0.00033
C 7.43194 32.64949 0.03589
C 7.3991 7.09976 -0.00925
C 17.20705 4.28829 -0.01721
C 17.19355 2.86136 -0.02422
C 18.3659 2.08639 0.01277
C 31.9853 32.67774 0.01713
C 33.16228 31.93152 -0.01694
C 33.19181 30.50521 0.01428
C 31.93894 29.87121 -0.02142
C 31.93285 28.44246 0.0544
C 33.2336 27.74113 0.00026
C 33.24817 26.28369 0.00682
C 32.01051 25.54679 -0.01779
C 29.47111 34.06178 0.00346
C 31.96507 24.12318 0.03794
C 33.16182 22.02877 0.01574
C 31.85216 21.3183 -0.02383
C 31.89374 19.89242 -0.01429
C 33.11324 19.16348 -0.0136
C 33.17858 17.74897 0.00594
C 31.95797 17.03179 -0.02474
C 31.98981 15.66494 0.00369
C 33.20736 14.90554 0.00455
C 33.1566 23.43062 0.01927
C 33.15624 13.47962 -0.00644
C 30.70877 0.7246 0.00307
C 29.53274 2.89115 0.02108
C 30.63244 23.38755 -0.01415
C 30.69851 21.99882 -0.03039
C 29.46079 19.92551 0.01836
C 30.64441 19.24485 0.03531
C 30.68529 17.76445 -0.00669
C 29.61933 16.97464 0.0101
C 29.55479 15.6184 0.01705
C 30.79824 14.91176 -0.0405
C 30.72096 2.15521 0.00716
C 30.7268 13.50207 -0.01303
C 29.47821 11.32766 -0.02155
C 30.73215 10.68563 -0.00944
C 30.73648 9.20072 -0.03735
C 29.54621 8.53999 -0.00971
C 29.53742 7.02336 0.01518
C 30.78308 6.34475 0.01908
C 30.75593 4.95028 0.07705
C 29.53639 4.34974 0.0103
C 29.54299 12.72064 -0.01461
C 31.96665 12.74748 -0.01839
C 31.97731 11.34041 0.00137
C 33.23283 10.5835 0.00199
C 1.18567 19.14093 -0.01678
C 1.22282 17.72242 0.01223
C 34.36623 17.083 0.00648
C 34.42798 15.60061 0.02114
C 1.21615 14.87272 -0.02957
C 1.21343 13.46763 0.00343
C 0.00828 12.82143 -0.02656
C 0.03231 11.34205 -0.02442
C 34.38601 19.8207 0.01951
C 1.27056 10.6658 -0.00027
C 0.0343 8.4927 -0.02302
C 34.42086 7.07923 -0.02849
C 1.21026 6.36138 0.02931
C 1.24338 4.9478 0.00628
C 34.41456 4.34326 -0.0345
C 34.42754 2.88404 -0.00931
C 1.23108 2.17456 -0.00939
C 1.2602 0.77558 -0.00468
C 1.20618 9.27994 -0.00583
C 34.40855 21.29053 -0.02213
C 1.20848 22.04647 0.02712
C 1.26955 23.48346 0.00723
C 33.24091 9.15274 0.04381
C 31.92992 8.53725 0.02806
C 31.97903 7.10296 0.01504
C 33.17996 6.4338 -0.00069
C 33.19957 5.01216 0.04926
C 31.94223 4.21527 -0.03838
C 31.94134 2.75388 0.00349
C 33.22007 2.13829 -0.00323
C 33.25526 0.73538 -0.00841
C 31.94235 34.0628 0.0001
C 34.38603 32.68448 -0.02927
C 1.18108 31.8972 -0.01404
C 1.16316 30.52088 0.01027
C 34.43101 29.83481 0.01831
C 0.02262 28.40312 -0.01037
C 1.22491 27.77003 -0.00439
C 1.2144 26.28356 -0.00598
C 34.42668 25.51259 -0.05239
C 0.00488 24.13147 0.03076
C 29.40948 24.17277 -0.01854
C 29.48397 25.61104 -0.02049
C 30.77338 26.21405 0.03265
C 30.81396 27.60512 0.00261
C 23.33414 30.574 -0.01107
C 22.13016 29.87945 -0.01586
C 22.10725 28.43812 -0.01971
C 23.31855 27.73987 -0.02118
C 23.35148 26.19278 0.00733
C 22.13009 25.61289 -0.00178
C 23.52623 10.70826 0.00768
C 23.32599 9.26839 -0.0276
C 23.35404 31.93888 0.00071
C 22.08517 8.55883 0.03005
C 23.39533 6.43872 0.02117
C 22.02225 2.95487 0.02737
C 23.2479 2.1012 -0.00498
C 23.3604 0.64775 0.00135
C 22.06402 0.01436 0.03102
C 24.64664 32.70204 0.02555
C 25.82446 31.92931 0.01423
C 25.72264 30.50833 -0.00285
C 22.15412 7.09432 -0.04078
C 22.10564 32.63987 -0.00225
C 19.66312 34.00781 0.01515
C 20.85669 0.71343 -0.0055
C 18.46375 0.65589 0.00096
C 17.24066 34.02816 -0.01527
C 19.67697 32.63772 0.01087
C 20.8961 31.89292 0.00199
C 20.91392 30.47025 0.01511
C 19.67621 29.74326 -0.00478
C 19.65697 28.33825 -0.01662
C 20.92288 27.70218 -0.01185
C 20.94398 26.23277 0.01126
C 19.70312 25.53019 0.01852
C 19.48376 24.21727 -0.00381
C 20.71471 9.08805 0.03046
C 19.74918 8.39327 0.0296
C 19.58692 7.06013 0.03374
C 20.93111 6.27265 -0.02845
C 20.88195 4.86977 -0.03213
C 19.6496 4.17851 0.02239
C 19.52066 2.78055 0.01153
C 20.9447 2.19676 0.02734
C 24.52309 29.76167 -0.009
C 3.71729 31.93061 -0.00725
C 24.52785 28.37187 -0.01199
C 25.79818 26.17552 -0.00938
C 27.05214 12.71365 0.04185
C 27.03719 11.32625 0.00194
C 28.27147 10.61286 -0.00621
C 28.28151 9.21699 0.02611
C 27.15391 8.4701 0.02198
C 27.13263 7.07131 0.01094
C 28.328 6.29166 0.00235
C 28.27121 4.93614 0.01495
C 28.22225 13.55127 0.02316
C 27.0486 4.22221 0.01259
C 28.35302 2.15596 0.01699
C 28.25589 0.72713 -0.00416
C 27.06081 0.03961 0.01177
C 29.52243 32.64066 0.04266
C 30.79512 31.95991 0.01324
C 30.74996 30.59334 0.0014
C 29.54647 29.81708 0.00924
C 29.48981 28.33108 0.02326
C 27.07388 2.85734 0.01799
C 28.39237 14.87926 0.01257
C 27.07584 25.68592 0.00152
C 28.24997 26.25397 -0.00294
C 24.5966 25.70711 -0.0264
C 24.47725 11.32236 -0.01154
C 25.81836 10.66359 0.00684
C 25.88729 9.25091 -0.01052
C 24.55435 8.60722 -0.01679
C 24.57968 7.05458 0.00367
C 25.87987 6.44729 0.04306
C 25.86572 5.00263 0.00996
C 24.72074 4.25787 0.00195
C 24.54328 2.87357 -0.00802
C 25.82276 2.14984 -0.00218
C 25.89249 0.77563 -0.01654
C 24.66441 0.01443 -0.00037
C 27.02495 32.6777 -0.0032
C 28.31687 31.91975 0.00622
C 28.25203 30.5082 -0.02815
C 26.93603 29.80978 -0.00942
C 26.95044 28.42763 0.00487
C 28.20617 27.70122 0.00826
C 25.81777 27.64094 -0.00229
C 2.50423 32.59413 0.02322
