395
Graphene
C 0.00449 0.03633 0.01295
C 14.74341 17.25332 0.00444
C 14.59238 15.87114 -0.00925
C 15.69821 14.99853 0.01877
C 15.82048 13.5432 0.01363
C 15.88868 10.61261 -0.02162
C 15.76179 9.43606 0.00415
C 15.81289 6.37726 -0.0014
C 15.90028 4.92229 0.02162
C 14.67416 4.24018 0.0076
C 16.0134 17.89248 -0.01789
C 14.70274 2.77661 0.01241
C 15.99447 0.70376 0.01945
C 14.73799 0.09138 0.01416
C 17.21425 32.64778 0.03542
C 18.53195 31.90424 0.02299
C 18.49144 30.57817 0.00244
C 17.20731 29.97871 -0.01717
C 17.24038 28.50377 0.05265
C 18.40636 27.76849 -0.01952
C 18.47868 26.27977 -0.02813
C 16.02096 2.08009 -0.01454
C 16.01363 19.25183 0.02894
C 14.71362 19.95988 -0.02971
C 14.68673 21.36826 0.00165
C 12.21004 20.01868 -0.01062
C 13.37276 19.2694 -0.00033
C 13.47553 17.93094 0.03589
C 12.41133 17.05733 -0.02759
C 13.45759 4.82475 0.0402
C 12.37185 4.23919 0.00572
C 12.28164 2.86731 0.03592
C 13.52222 2.09147 0.00406
C 13.56536 0.71927 0.00943
C 12.37318 0.01149 0.02841
C 14.78828 32.63469 -0.01111
C 16.01473 32.02019 -0.01275
C 15.9483 30.53708 0.00985
C 14.70744 29.85014 -0.02245
C 14.76002 28.44137 -0.00428
C 16.02976 27.75671 0.03101
C 15.94547 26.39715 -0.01536
C 14.83064 25.62967 -0.02689
C 14.7079 24.20092 -0.01046
C 15.91164 23.47116 -0.00891
C 15.8825 22.06984 0.02819
C 17.219 25.66887 0.00374
C 17.1078 24.18924 0.00052
C 18.39714 23.48716 -0.03682
C 18.36621 22.15736 0.01965
C 19.74753 28.41841 -0.00289
C 21.04185 27.62356 0.00028
C 20.94493 26.25754 -0.02213
C 19.74336 25.56026 0.03698
C 19.61388 24.1271 -0.00109
C 20.87926 23.46353 -0.00491
C 20.8519 21.99559 0.03338
C 19.62857 21.36161 -0.0258
C 19.59615 19.82415 -0.0331
C 20.83979 19.21203 -0.00316
C 20.8584 17.80988 0.02188
C 19.61157 17.11597 -0.01979
C 19.54543 15.76077 0.02691
C 20.7342 14.94028 -0.01581
C 20.75351 13.49497 0.01452
C 19.55895 12.7305 0.04892
C 19.57757 11.32885 -0.00111
C 20.77855 10.53664 -0.03557
C 20.77239 9.12079 0.03754
C 19.52051 8.44294 0.01739
C 19.55433 7.05724 0.00755
C 19.74485 29.81492 -0.00066
C 12.1813 21.41111 0.01364
C 20.98983 30.50643 0.00213
C 19.79245 32.62401 -0.04147
C 17.15059 21.35895 0.02058
C 17.17812 19.97769 -0.01957
C 18.35565 19.19968 -0.0108
C 18.40069 17.81938 -0.00368
C 17.22488 17.05938 -0.02696
C 17.09002 15.71192 -0.00114
C 18.29859 15.0084 0.00228
C 18.33425 13.46515 0.00798
C 17.03916 12.83105 0.00422
C 17.04185 11.34388 0.0351
C 18.33921 10.61911 -0.03113
C 18.29115 9.27372 0.02098
C 16.97825 8.58565 0.01848
C 17.04903 7.16688 -0.00619
C 18.37028 6.40343 -0.02162
C 18.41653 4.96606 0.00889
C 17.13693 4.24247 -0.00481
C 17.22402 2.82911 0.00979
C 18.35033 2.0451 0.01443
C 18.48141 0.53362 0.03505
C 17.26951 33.99463 -0.02815
C 20.9926 31.94799 -0.05302
C 20.80316 6.3517 -0.0054
C 13.47116 22.09976 -0.00719
C 12.15764 24.15479 0.02339
C 4.9375 32.7294 -0.00279
C 6.20482 31.98395 0.01996
C 6.14835 30.61442 -0.03996
C 4.9299 29.87693 0.01465
C 4.78519 28.4413 -0.00074
C 6.05515 27.75761 -0.00518
C 6.03259 26.34108 0.0086
C 4.82388 25.6272 -0.00643
C 4.8768 24.18995 0.017
C 2.40733 0.01146 0.01226
C 6.16213 23.45288 -0.03113
C 4.86897 21.2473 -0.00094
C 4.88898 19.90696 0.02322
C 6.13487 19.16578 -0.00725
C 6.17483 17.70412 -0.05697
C 4.8962 17.04578 0.01087
C 4.75996 15.6376 -0.01343
C 4.78528 4.32085 0.00988
C 4.73945 2.93885 0.0276
C 6.01944 2.27292 0.01305
C 6.14546 22.10476 -0.02566
C 3.67595 0.67079 0.03828
C 3.59252 2.18007 0.0174
C 2.28796 2.83204 0.0073
C 3.61704 30.54329 -0.01977
C 2.39671 29.92496 -0.00561
C 2.35448 28.53235 0.00208
C 3.572 27.75063 0.01707
C 3.66771 26.30907 0.02769
C 2.5203 25.52258 -0.03291
C 2.43358 24.12598 -0.04999
C 3.69615 23.42193 0.04505
C 3.65564 21.8978 0.03284
C 2.40627 21.32703 -0.04307
C 2.36797 19.81446 0.03189
C 3.65232 19.14314 0.00031
C 3.68628 17.72312 -0.003
C 2.43125 16.99925 0.01402
C 2.48206 15.4976 0.02379
C 3.72121 14.87938 0.00907
C 1.89013 12.04841 0.00643
C 2.39804 8.50733 -0.01509
C 2.46105 7.29361 0.03267
C 3.63248 4.86394 0.02374
C 2.36907 4.25574 0.00402
C 6.09466 0.88757 -0.00077
C 4.89409 0.04999 0.03368
C 7.37293 32.75451 -0.02929
C 8.62357 32.20986 -0.00966
C 9.75622 25.66216 0.00685
C 9.71433 24.20534 0.02888
C 10.95429 23.53615 -0.00482
C 10.98121 22.08657 -0.01384
C 9.807 21.3498 0.03693
C 9.7832 19.89054 0.01745
C 11.02912 19.29729 0.00488
C 11.15367 17.6893 -0.01004
C 9.90026 17.07009 -0.02896
C 9.82882 2.91525 -0.00131
C 11.11983 2.18816 -0.01118
C 11.07646 0.74112 -0.014
C 9.81361 0.09201 0.02147
C 12.3081 32.62471 0.00373
C 13.56553 31.98678 -0.00191
C 13.48895 30.53576 0.00438
C 12.22221 29.87469 0.01291
C 12.21793 28.4624 0.00093
C 13.45313 27.78749 0.00057
C 13.53942 26.30648 -0.01634
C 12.19235 25.57681 -0.00334
C 10.94679 26.3768 0.00895
C 13.42417 23.47207 0.01641
C 10.97588 27.7793 0.00393
C 9.81337 29.9346 -0.0008
C 8.54471 30.6869 -0.03337
C 7.31728 29.8805 0.01227
C 7.35608 28.50345 0.00873
C 8.53412 27.83891 -0.00049
C 8.54698 26.35715 0.00848
C 7.30286 25.60004 -0.01303
C 7.32852 24.19084 -0.01378
C 8.54479 23.51326 0.02635
C 8.54778 22.08939 0.0127
C 7.33946 21.31808 0.01396
C 7.26047 19.86091 0.01849
C 8.55511 19.18615 -0.01142
C 8.61623 17.69791 -0.00562
C 7.44078 17.09205 -0.00494
C 7.30815 2.9098 0.00054
C 8.58932 2.36142 0.03007
C 8.64738 0.81566 -0.00095
C 7.31969 0.18572 0.01572
C 9.84717 32.79857 -0.04848
C 11.08891 31.96462 -0.00892
C 11.0599 30.58938 -0.01362
C 9.79384 28.49422 0.0288
C 3.67878 32.03413 0.02784
C 20.82577 4.94671 0.00667
C 19.61419 2.7324 -0.017
C 30.63729 6.44449 0.01908
C 30.7181 4.92951 0.07705
C 29.44451 4.21899 0.0103
C 29.4486 2.86362 0.02108
C 30.70729 2.12311 0.00716
C 30.76129 0.65467 0.00307
C 29.55643 34.05431 0.00346
C 31.98383 32.71873 0.01713
C 33.22728 32.00719 -0.01694
C 29.46013 7.09344 0.01518
C 33.22762 30.54969 0.01428
C 32.03322 28.37771 0.0544
C 33.22804 27.61671 0.00026
C 33.20238 26.21441 0.00682
C 31.94379 25.49594 -0.01779
C 32.00224 24.09031 0.03794
C 33.22475 23.38558 0.01927
C 33.14221 21.94614 0.01574
C 31.97237 21.28843 -0.02383
C 32.02087 19.82182 -0.01429
C 31.98017 29.83773 -0.02142
C 29.47598 8.54111 -0.00971
C 30.6632 9.26954 -0.03735
C 30.71046 10.63957 -0.00944
C 29.49737 32.64133 0.01177
C 30.86452 32.00281 0.04266
C 30.75067 30.56828 0.01324
C 29.62092 29.66352 0.0014
C 29.56689 28.32858 0.00924
C 30.80178 27.59868 0.02326
C 30.71362 26.20833 0.00261
C 29.51222 25.4527 0.03265
C 29.5619 24.09011 -0.02049
C 30.79974 23.40983 -0.01854
C 30.73484 22.00214 -0.01415
C 29.56495 21.28608 -0.03039
C 29.51917 19.8327 0.01836
C 30.77976 19.14559 0.03531
C 30.74193 17.73355 -0.00669
C 29.42829 16.97147 0.0101
C 29.41851 15.55594 0.01705
C 30.71312 14.88827 -0.0405
C 30.63171 13.45334 -0.01303
C 29.32783 12.77802 -0.01461
C 29.44928 11.35785 -0.02155
C 33.19488 19.06657 -0.0136
C 33.13108 17.66537 0.00594
C 31.94479 17.05389 -0.02474
C 31.91262 15.58721 0.00369
C 1.18899 22.01931 0.02712
C 34.41016 21.20051 -0.02213
C 34.42363 19.8547 0.01951
C 1.24086 19.16575 -0.01678
C 1.17518 17.70638 0.01223
C 34.4026 16.9673 0.00648
C 34.3724 15.60088 0.02114
C 1.20356 14.73581 -0.02957
C 1.15262 13.32774 0.00343
C 34.27892 12.81754 -0.02656
C 34.2877 11.51112 -0.02442
C 1.20236 10.86653 -0.00027
C 1.34044 9.49765 -0.00583
C 34.42946 8.68434 -0.02302
C 34.38009 7.25029 -0.02849
C 1.25192 6.49005 0.02931
C 1.15825 5.02483 0.00628
C 34.36876 4.29838 -0.0345
C 34.35771 2.89657 -0.00931
C 1.11748 2.09687 -0.00939
C 1.21192 0.69681 -0.00468
C 1.18629 23.40329 0.00723
C 27.14651 34.0591 -0.00416
C 34.42154 24.13977 0.03076
C 1.23041 26.31561 -0.00598
C 33.1266 14.91195 0.00455
C 33.08543 13.52609 -0.00644
C 31.84828 12.81539 -0.01839
C 31.9263 11.37424 0.00137
C 33.17655 10.74484 0.00199
C 33.16499 9.31628 0.04381
C 31.9775 8.53995 0.02806
C 31.86682 7.23439 0.01504
C 33.1685 6.52296 -0.00069
C 33.16272 5.06649 0.04926
C 31.98191 4.22797 -0.03838
C 31.97224 2.86838 0.00349
C 33.2566 2.14141 -0.00323
C 33.24015 0.72151 -0.00841
C 31.99802 0.04468 0.0001
C 34.3955 32.76653 -0.02927
C 1.16571 32.01023 -0.01404
C 1.1706 30.60132 0.01027
C 34.41149 29.84641 0.01831
C 34.38868 28.43247 -0.01037
C 1.19428 27.73845 -0.00439
C 34.42953 25.59652 -0.05239
C 19.65388 4.186 0.00143
C 28.3565 0.67173 0.01699
C 26.97368 2.83734 0.01259
C 23.13664 9.21706 -0.01662
C 21.95146 8.45696 -0.01185
C 22.01932 7.06079 0.01126
C 23.21548 6.38659 0.01852
C 23.30676 4.92733 -0.00381
C 22.07125 4.20618 0.03046
C 22.08386 2.81302 0.0296
C 23.30185 2.15866 0.03374
C 23.42549 0.74173 -0.02845
C 23.23068 10.65082 -0.00478
C 22.14981 33.99574 -0.03213
C 25.88462 31.89149 0.01153
C 25.89709 30.5249 0.02734
C 24.65339 29.85421 -0.0055
C 24.71843 28.41185 0.01515
C 25.92954 27.64487 -0.00225
C 25.86565 26.31997 0.00071
C 24.68274 25.54571 -0.01107
C 24.64209 24.10801 -0.01586
C 25.79268 23.38006 -0.01971
C 24.60474 32.60069 0.02239
C 22.00379 11.31802 0.01511
C 22.0119 12.72794 0.00199
C 23.26853 13.40297 0.01087
C 20.88194 2.10927 0.00364
C 20.9235 0.64354 -0.00831
C 19.7516 34.01763 -0.02957
C 22.21791 32.60467 -0.04422
C 23.40765 31.86574 0.00654
C 23.40358 30.4522 -0.00703
C 22.24671 29.7251 -0.04076
C 22.27385 28.34394 -0.00652
C 23.47957 27.74511 0.0058
C 23.38356 26.26706 -0.00865
C 22.14094 25.54726 0.00675
C 22.17342 24.1405 -0.00311
C 23.411 23.41213 0.00742
C 23.36403 22.01935 -0.01594
C 22.15016 21.24161 0.0106
C 22.15143 19.8853 -0.01154
C 23.2894 19.13601 -0.01721
C 23.33615 17.70834 -0.02422
C 22.12412 17.04021 0.01277
C 21.98932 15.54485 0.00096
C 23.23878 14.86931 -0.01527
C 25.80373 21.92795 -0.02118
C 24.51927 21.30033 0.00733
C 24.54315 19.80512 -0.00178
C 25.8041 19.23726 0.00768
C 27.06045 25.5592 -0.00218
C 27.07415 24.15646 -0.01654
C 28.29983 23.40564 -0.00037
C 28.31896 21.98674 -0.0032
C 27.12201 21.32607 0.00622
C 27.09719 19.97112 -0.02815
C 28.23325 19.20089 -0.00942
C 28.21224 17.76291 0.00487
C 26.981 17.071 0.00826
C 26.96083 15.66504 -0.00294
C 28.15225 14.88684 0.00152
C 28.06549 13.44637 0.01257
C 26.93636 12.66637 0.02316
C 26.98539 11.26858 0.04185
C 28.19786 10.59215 0.00194
C 28.17524 9.20439 -0.00621
C 26.92168 8.50941 0.02611
C 26.93344 7.11556 0.02198
C 28.20723 6.37538 0.01094
C 28.20442 4.95947 0.00235
C 26.90288 4.2638 0.01495
C 28.27756 26.19468 -0.00802
C 28.24246 2.10535 0.01799
C 28.36326 27.65254 0.00195
C 27.16854 29.85403 0.04306
C 25.7676 17.749 -0.0276
C 24.57573 16.97108 0.03005
C 24.47275 15.57231 -0.04078
C 25.69879 14.87039 0.02117
C 25.73017 13.41879 0.02737
C 24.51807 12.74575 -0.00498
C 24.45454 11.3708 0.00135
C 25.7008 10.63139 0.03102
C 25.63161 9.21293 0.02555
C 24.41415 8.57461 0.01423
C 24.46048 7.09751 -0.00285
C 25.68414 6.47034 -0.009
C 25.73196 4.98804 -0.01199
C 24.48963 4.25811 -0.00229
C 24.55209 2.85753 -0.00938
C 25.72836 2.14627 -0.0264
C 25.85903 0.71956 -0.01154
C 24.61393 34.0355 0.00684
C 27.0739 32.65527 -0.01052
C 28.35428 31.89918 -0.01679
C 28.39083 30.45314 0.00367
C 27.12772 28.45403 0.00996
C 2.3798 32.67449 -0.01979
