431
Graphene
C 0.01454 0.02244 0.01295
C 13.58577 4.96061 -0.01062
C 12.25422 4.34004 -0.00033
C 12.30049 2.89732 0.03589
C 13.54192 2.11529 -0.02759
C 13.56568 0.75974 0.0402
C 12.32416 0.03059 0.00572
C 14.69244 32.65079 0.03592
C 15.92967 31.92821 0.00406
C 15.95158 30.40584 0.00943
C 14.72859 29.78642 0.02841
C 14.80921 28.4304 -0.01111
C 16.02573 27.65946 -0.01275
C 16.04182 26.25383 0.00985
C 14.80311 25.56423 -0.02245
C 14.72602 24.2337 -0.00428
C 15.97465 23.38684 0.03101
C 15.97388 21.92542 -0.01536
C 14.67265 21.2525 -0.02689
C 14.80538 19.79781 -0.01046
C 15.94919 19.13285 -0.00891
C 15.97477 17.77067 0.02819
C 14.77638 17.01594 0.00165
C 14.73025 15.67897 -0.02971
C 13.45115 6.45283 0.01364
C 15.99797 14.95856 0.02894
C 12.31169 7.15543 -0.00719
C 13.56263 9.25821 0.02339
C 11.09172 2.15341 0.00393
C 11.06527 0.73732 0.00895
C 9.85759 0.00286 0.00685
C 12.3199 32.69648 0.02888
C 13.52241 32.02353 -0.00482
C 13.49548 30.54602 -0.01384
C 12.27452 29.88573 0.03693
C 12.32043 28.34523 0.01745
C 13.5499 27.68092 0.00488
C 13.56418 26.31175 -0.01004
C 12.37435 25.55337 -0.02896
C 12.28306 24.11332 -0.00131
C 13.48559 23.43995 -0.01118
C 13.55201 21.955 -0.014
C 13.46239 19.15572 0.02147
C 13.55652 17.7665 0.00373
C 12.37208 17.0686 -0.00191
C 12.30305 15.65744 0.00438
C 13.5587 14.94487 0.01291
C 13.48485 13.59161 0.00093
C 12.27624 12.8155 0.00057
C 12.27951 11.2989 -0.01634
C 13.53455 10.62744 -0.00334
C 12.31844 8.59685 0.01641
C 9.85156 2.83349 0.0288
C 15.93112 13.52019 -0.01789
C 14.73764 11.39665 -0.00925
C 17.24096 15.58637 -0.00114
C 18.51376 14.9812 0.00228
C 18.43994 13.463 0.00798
C 17.21839 12.79144 0.00422
C 17.22474 11.34581 0.0351
C 18.48749 10.59055 -0.03113
C 18.3945 9.20057 0.02098
C 17.18861 8.49434 0.01848
C 17.2368 7.05245 -0.00619
C 18.46762 6.359 -0.02162
C 18.42926 5.01146 0.00889
C 17.16942 4.25567 -0.00481
C 17.15529 2.85245 0.00979
C 18.36784 2.19208 0.01443
C 18.41849 0.75909 0.03505
C 17.18787 0.0061 -0.02815
C 19.73029 32.6517 -0.04147
C 20.92467 31.94816 -0.05302
C 20.91827 30.55603 0.00213
C 19.67872 29.85694 -0.00066
C 19.72976 28.41172 -0.00289
C 20.93466 27.70002 0.00028
C 20.92944 26.21658 -0.02213
C 17.19701 17.00562 -0.02696
C 14.73205 12.79112 0.00444
C 18.48994 17.77903 -0.00368
C 17.18709 19.87449 -0.01957
C 15.95229 10.66256 0.01877
C 15.94266 9.24014 0.01363
C 14.75115 8.50535 -0.02162
C 14.6867 7.10508 0.00415
C 15.97973 6.41789 -0.0014
C 16.01778 4.96445 0.02162
C 14.73939 4.236 0.0076
C 14.74313 2.76179 0.01241
C 15.93894 2.0938 -0.01454
C 15.98477 0.67422 0.01945
C 14.7055 34.07177 0.01416
C 17.24241 32.63171 0.03542
C 18.52421 31.97252 0.02299
C 18.4204 30.59287 0.00244
C 17.24437 29.77138 -0.01717
C 17.20178 28.40502 0.05265
C 18.43333 27.69312 -0.01952
C 18.45931 26.29815 -0.02813
C 17.22921 25.49096 0.00374
C 17.18626 24.14142 0.00052
C 18.39768 23.44479 -0.03682
C 18.40414 22.01651 0.01965
C 17.20456 21.29563 0.02058
C 18.42238 19.22692 -0.0108
C 19.70415 25.49209 0.03698
C 9.82644 4.30754 -0.0008
C 11.08982 6.41825 -0.00892
C 3.69652 0.72399 0.00081
C 2.40394 0.08005 0.00245
C 4.93679 32.69257 0.02728
C 6.13108 31.9237 -0.00039
C 6.10146 30.51741 0.0064
C 4.86813 29.83012 0.00211
C 4.97549 28.33166 -0.00449
C 6.22591 27.70157 -0.01979
C 6.13726 26.2381 0.02784
C 4.97954 25.53615 -0.01977
C 4.94866 24.11143 -0.00561
C 6.06323 23.39998 0.00208
C 4.88226 21.44629 0.01707
C 4.98874 19.93196 0.02769
C 6.21287 19.1268 -0.03291
C 6.13144 17.78349 -0.04999
C 4.96966 16.99731 0.04505
C 4.89201 15.55554 0.03284
C 6.19316 14.86936 -0.04307
C 6.06407 13.43811 0.03189
C 4.88124 12.84801 0.00031
C 4.86078 11.41784 -0.003
C 6.10521 10.66987 0.01402
C 3.76725 2.1921 -0.02805
C 6.14664 9.16731 0.02379
C 2.52785 2.88696 -0.01386
C 3.68854 6.45149 0.00558
C 3.67672 30.56301 -0.03672
C 2.43128 29.80763 0.01913
C 2.41702 28.34318 0.00267
C 3.68124 27.6744 0.00787
C 3.73708 26.27812 0.02426
C 2.46921 25.5312 0.01218
C 2.46009 24.16956 -0.01471
C 3.67527 23.49877 -0.02827
C 3.65951 22.02735 0.01078
C 2.51458 21.27965 -0.00112
C 2.54531 19.85986 0.03345
C 3.74222 19.18559 0.00748
C 3.66306 17.60615 0.00662
C 2.42036 16.99733 -0.0154
C 2.40241 15.61426 -0.01299
C 3.62066 14.83735 -0.00407
C 3.69572 13.47963 0.01138
C 2.4614 12.79715 0.03278
C 2.4442 11.38608 -0.00177
C 3.71394 10.60257 0.04421
C 3.67747 9.27034 0.00088
C 2.4377 8.56029 0.00828
C 2.49525 7.11697 -0.02375
C 2.41911 4.26403 -0.0059
C 11.06359 4.99172 -0.01362
C 4.93772 8.56932 0.00907
C 6.11414 6.36404 -0.01509
C 7.35727 2.89268 -0.00077
C 8.65069 2.13497 0.03368
C 8.63064 0.76585 -0.02929
C 7.383 0.03797 -0.00966
C 9.86394 32.71541 -0.03337
C 11.0283 32.05332 0.01227
C 11.04735 30.59382 0.00873
C 9.85333 29.84765 -0.00049
C 9.78663 28.41259 0.00848
C 11.07119 27.73682 -0.01303
C 11.08292 26.26746 -0.01378
C 9.89203 25.5489 0.02635
C 11.06705 17.79935 0.0127
C 9.81383 17.13637 0.01396
C 9.86487 15.63101 0.01849
C 11.01938 14.91887 -0.01142
C 11.0134 13.52472 -0.00562
C 9.83882 12.72826 -0.00494
C 9.85917 11.32198 0.00054
C 11.02835 10.69031 0.03007
C 11.03609 9.25551 -0.00095
C 9.87358 8.5761 0.01572
C 9.85337 7.05647 -0.04848
C 7.33678 4.30132 0.01305
C 4.85024 7.09391 0.00643
C 8.60347 4.9975 0.0276
C 7.34127 7.14607 -0.01343
C 6.05553 4.94635 0.03267
C 4.90955 2.85313 0.02374
C 6.11927 2.10209 0.00402
C 6.1595 0.75669 0.0073
C 4.86793 0.01177 0.0174
C 7.38175 32.70263 0.03828
C 8.60271 31.93617 0.01226
C 8.59383 30.53016 -0.00279
C 7.35109 29.8524 0.01996
C 7.43418 28.40759 -0.03996
C 8.62467 27.74435 0.01465
C 8.5995 26.20992 -0.00074
C 7.34262 25.58267 -0.00518
C 8.57681 17.74066 0.0086
C 7.33954 17.11123 -0.00643
C 7.42991 15.61706 0.017
C 8.64205 14.86985 -0.03113
C 8.66783 13.44355 -0.02566
C 7.3587 12.79826 -0.00094
C 7.36636 11.38264 0.02322
C 8.62456 10.6512 -0.00725
C 8.58619 9.22718 -0.05697
C 7.36483 8.50869 0.01087
C 8.56525 6.42863 0.00988
C 3.74331 32.00488 -0.04306
C 19.68746 24.0409 -0.00109
C 20.94362 21.94644 0.03338
C 30.766 13.51828 -0.01303
C 29.50718 12.82324 -0.01461
C 29.52987 11.32206 -0.02155
C 30.69948 10.65515 -0.00944
C 30.78831 9.1725 -0.03735
C 29.4629 8.48261 -0.00971
C 29.47241 7.12199 0.01518
C 30.708 6.37724 0.01908
C 30.70062 5.00613 0.07705
C 29.4939 4.264 0.0103
C 29.5253 2.76444 0.02108
C 30.78441 2.12269 0.00716
C 30.74915 0.73927 0.00307
C 29.5776 34.05354 0.00346
C 31.96055 32.573 0.01713
C 33.21731 31.94845 -0.01694
C 33.23827 30.50079 0.01428
C 31.93789 29.80374 -0.02142
C 31.99275 28.37153 0.0544
C 33.21697 27.71066 0.00026
C 33.18873 26.29087 0.00682
C 31.9855 25.63464 -0.01779
C 31.96095 24.15514 0.03794
C 30.78874 14.9614 -0.0405
C 33.1587 23.45773 0.01927
C 29.52319 15.61445 0.01705
C 30.72799 17.72406 -0.00669
C 27.09573 8.56782 0.02611
C 27.09568 7.09898 0.02198
C 28.25915 6.34576 0.01094
C 28.27329 4.99118 0.00235
C 27.05797 4.28836 0.01495
C 27.09291 2.90207 0.01259
C 28.23955 2.0403 0.01799
C 28.2472 0.65728 0.01699
C 27.03283 34.05283 -0.00416
C 29.58356 32.65168 0.01177
C 30.67524 31.89602 0.04266
C 30.68079 30.51752 0.01324
C 29.49132 29.76783 0.0014
C 29.50103 28.38522 0.00924
C 30.74242 27.63153 0.02326
C 30.73056 26.31279 0.00261
C 29.50746 25.58823 0.03265
C 29.5189 24.12779 -0.02049
C 30.75256 23.41584 -0.01854
C 30.71075 21.99329 -0.01415
C 29.46653 21.31495 -0.03039
C 29.52771 19.89562 0.01836
C 30.78793 19.11686 0.03531
C 29.50965 17.01838 0.0101
C 28.25375 9.2891 -0.00621
C 33.21858 22.03602 0.01574
C 31.97018 19.93927 -0.01429
C 34.3964 24.16534 0.03076
C 1.1836 23.44096 0.00723
C 1.23109 22.05662 0.02712
C 0.01928 21.3079 -0.02213
C 0.03189 19.8871 0.01951
C 1.21739 19.1372 -0.01678
C 1.19618 17.7393 0.01223
C 34.39573 17.05712 0.00648
C 34.40769 15.67823 0.02114
C 1.21957 14.85015 -0.02957
C 1.23512 13.44237 0.00343
C 34.37594 12.76343 -0.02656
C 34.40809 11.37259 -0.02442
C 1.24915 10.65888 -0.00027
C 1.14432 9.17719 -0.00583
C 34.37582 8.51849 -0.02302
C 0.01804 7.09496 -0.02849
C 1.20271 6.34826 0.02931
C 1.20615 4.96565 0.00628
C 0.02738 4.19164 -0.0345
C 0.03144 2.80167 -0.00931
C 1.29045 2.15572 -0.00939
C 1.20507 0.71488 -0.00468
C 0.00743 25.51553 -0.05239
C 31.95951 21.29421 -0.02383
C 1.2051 26.24584 -0.00598
C 0.01624 28.39817 -0.01037
C 33.25145 19.15702 -0.0136
C 33.17665 17.79158 0.00594
C 31.8989 17.03 -0.02474
C 31.94354 15.59962 0.00369
C 33.21178 14.83406 0.00455
C 33.16701 13.48002 -0.00644
C 32.00824 12.75867 -0.01839
C 31.97707 11.35323 0.00137
C 33.09214 10.64783 0.00199
C 33.12641 9.17503 0.04381
C 31.97258 8.50124 0.02806
C 31.97574 7.07235 0.01504
C 33.23639 6.33959 -0.00069
C 33.26087 4.9128 0.04926
C 32.00947 4.2661 -0.03838
C 31.97092 2.84462 0.00349
C 33.22373 2.04891 -0.00323
C 33.16382 0.66226 -0.00841
C 31.93882 0.00921 0.0001
C 0.06379 32.60484 -0.02927
C 1.32435 31.90997 -0.01404
C 1.20407 30.48828 0.01027
C 34.42912 29.80531 0.01831
C 1.23826 27.68628 -0.00439
C 20.91688 23.37575 -0.00491
C 28.34311 10.67595 0.00194
C 27.01492 12.75488 0.02316
C 23.38097 26.28335 -0.00865
C 22.19219 25.54466 0.00675
C 22.20319 24.14765 -0.00311
C 23.40328 23.4605 0.00742
C 23.36565 22.04591 -0.01594
C 22.17953 21.219 0.0106
C 22.10628 19.87593 -0.01154
C 23.3736 19.18978 -0.01721
C 23.32325 17.81523 -0.02422
C 22.09412 17.03077 0.01277
C 22.11992 15.63741 0.00096
C 23.30872 14.92546 -0.01527
C 23.37281 13.4771 0.01087
C 22.16999 12.79515 0.00199
C 22.10778 11.4144 0.01511
C 23.35233 10.62717 -0.00478
C 23.38055 9.28541 -0.01662
C 22.18469 8.5161 -0.01185
C 22.18291 7.06538 0.01126
C 23.31056 6.32225 0.01852
C 23.38155 4.9789 -0.00381
C 22.13015 4.23009 0.03046
C 22.29037 2.88187 0.0296
C 23.34402 27.71408 0.0058
C 23.39723 2.11151 0.03374
C 22.17102 28.39135 -0.00652
C 23.28414 30.55309 -0.00703
C 19.59606 21.31274 -0.0258
C 19.61433 19.88701 -0.0331
C 20.85601 19.17008 -0.00316
C 20.9285 17.71747 0.02188
C 19.59911 17.01311 -0.01979
C 19.67708 15.63435 0.02691
C 20.85378 14.92165 -0.01581
C 20.86938 13.46443 0.01452
C 19.63846 12.79687 0.04892
C 19.67158 11.35281 -0.00111
C 20.8995 10.63468 -0.03557
C 20.8982 9.21835 0.03754
C 19.69481 8.42518 0.01739
C 19.71285 7.07678 0.00755
C 20.91185 6.36454 -0.0054
C 20.92328 4.9667 0.00667
C 19.75435 4.34415 0.00143
C 19.68958 2.86525 -0.017
C 20.88207 2.08119 0.00364
C 20.89874 0.69615 -0.00831
C 19.66956 0.05422 -0.02957
C 22.09193 32.68553 -0.04422
C 23.35494 31.94027 0.00654
C 22.16659 29.84602 -0.04076
C 27.08765 11.36234 0.04185
C 23.33857 0.71235 -0.02845
C 24.56667 32.61533 0.02239
C 24.59402 2.88792 -0.00938
C 25.84158 2.15538 -0.0264
C 25.79098 0.69858 -0.01154
C 24.56045 34.07232 0.00684
C 27.05956 32.61154 -0.01052
C 28.26475 31.9331 -0.01679
C 28.30776 30.52409 0.00367
C 27.07094 29.80773 0.04306
C 27.04651 28.46589 0.00996
C 28.31777 27.72834 0.00195
C 28.248 26.27758 -0.00802
C 27.05819 25.55809 -0.00218
C 27.06142 24.17763 -0.01654
C 28.2869 23.47626 -0.00037
C 28.2938 21.98541 -0.0032
C 27.03543 21.24959 0.00622
C 27.12365 19.8772 -0.02815
C 28.26653 19.20872 -0.00942
C 28.2923 17.76031 0.00487
C 27.05767 17.08089 0.00826
C 27.05349 15.61162 -0.00294
C 28.29344 14.83892 0.00152
C 28.21718 13.43743 0.01257
C 24.65202 4.26352 -0.00229
C 22.11819 34.06087 -0.03213
C 25.77285 4.99505 -0.01199
C 24.56706 7.07914 -0.00285
C 25.77099 31.9418 0.01153
C 25.8269 30.50388 0.02734
C 24.50817 29.73784 -0.0055
C 24.55035 28.38651 0.01515
C 25.80761 27.75263 -0.00225
C 25.82948 26.33794 0.00071
C 24.5725 25.47498 -0.01107
C 24.63181 24.12847 -0.01586
C 25.83458 23.49319 -0.01971
C 25.80206 22.02002 -0.02118
C 24.59021 21.33973 0.00733
C 24.60098 19.84543 -0.00178
C 25.84114 19.1382 0.00768
C 25.82195 17.74057 -0.0276
C 24.57437 17.04963 0.03005
C 24.57833 15.59363 -0.04078
C 25.85114 14.94367 0.02117
C 25.83519 13.5017 0.02737
C 24.62109 12.83146 -0.00498
C 24.57031 11.36183 0.00135
C 25.77896 10.68614 0.03102
C 25.78973 9.18821 0.02555
C 24.51659 8.49384 0.01423
C 25.77186 6.39262 -0.009
C 2.4641 32.68355 -0.00012
