393
Graphene
C 34.42532 34.06552 0.01295
C 9.83888 0.04984 0.01877
C 12.26084 32.74281 0.01363
C 13.54891 31.97252 -0.02162
C 13.58845 30.62842 0.00415
C 12.39994 29.82872 -0.0014
C 12.26734 28.47789 0.02162
C 12.10458 25.50882 0.0076
C 12.40629 24.15684 0.01241
C 13.36711 23.27912 -0.01454
C 11.11651 0.73107 -0.00925
C 13.5623 21.85638 0.01945
C 12.33626 19.932 0.03542
C 13.51154 19.18142 0.02299
C 13.46815 17.77417 0.00244
C 12.26425 17.06601 -0.01717
C 12.29613 15.6662 0.05265
C 13.53764 14.85874 -0.01952
C 13.54669 13.37265 -0.02813
C 12.25659 12.69905 0.00374
C 12.2781 11.28442 0.00052
C 12.34089 21.25015 0.01416
C 11.03496 2.15452 0.00444
C 9.85151 2.90742 -0.01789
C 9.85536 4.34723 0.02894
C 11.09426 26.39803 0.03589
C 9.85307 25.61269 -0.02759
C 9.80813 24.17793 0.0402
C 11.04349 23.45496 0.00572
C 11.0749 21.99963 0.03592
C 9.75571 21.34792 0.00406
C 9.80727 19.93482 0.00943
C 11.0978 19.24323 0.02841
C 11.03369 17.88283 -0.01111
C 9.78438 17.01385 -0.01275
C 9.84979 15.66007 0.00985
C 11.11017 14.89786 -0.02245
C 11.15681 13.41922 -0.00428
C 9.89433 12.78435 0.03101
C 9.80013 11.4162 -0.01536
C 10.9972 10.56206 -0.02689
C 10.95558 9.20729 -0.01046
C 9.78227 8.53278 -0.00891
C 9.85303 7.11349 0.02819
C 11.09201 6.3699 0.00165
C 11.08384 4.95295 -0.02971
C 13.44505 10.60325 -0.03682
C 11.11898 27.7845 -0.00033
C 13.51237 9.22435 0.01965
C 12.40337 7.16485 -0.01957
C 16.01293 2.16251 -0.02213
C 15.98079 0.65868 0.03698
C 14.78273 0.03155 -0.00109
C 17.09826 21.27291 -0.00491
C 17.21086 19.9492 0.03338
C 18.47097 19.27115 -0.0258
C 18.50321 17.75307 -0.0331
C 17.30369 17.04897 -0.00316
C 17.26679 15.57713 0.02188
C 14.73335 2.79115 0.00028
C 18.44276 14.88847 -0.01979
C 17.17406 12.72156 -0.01581
C 17.22369 11.31385 0.01452
C 18.46975 10.66282 0.04892
C 18.42896 9.20388 -0.00111
C 17.19876 8.53079 -0.03557
C 17.18205 7.16107 0.03754
C 18.3861 6.47839 0.01739
C 18.39597 5.04203 0.00755
C 17.19029 4.27715 -0.0054
C 18.44123 13.40042 0.02691
C 14.78973 4.23705 -0.00289
C 15.97977 5.00018 -0.00066
C 15.99585 6.38971 0.00213
C 13.62143 6.39084 -0.0108
C 13.56848 4.97065 -0.00368
C 12.33948 4.27027 -0.02696
C 12.28824 2.81995 -0.00114
C 13.54859 2.08256 0.00228
C 13.59651 0.70079 0.00798
C 12.32925 0.04408 0.00422
C 14.71753 32.73256 0.0351
C 14.69799 19.95038 -0.03113
C 15.89261 19.23534 0.02098
C 15.94099 17.7578 0.01848
C 14.75811 16.97681 -0.00619
C 14.76289 15.50489 -0.02162
C 15.98619 14.88704 0.00889
C 15.94194 13.45976 -0.00481
C 14.72547 12.71862 0.00979
C 14.74431 11.28277 0.01443
C 15.96452 10.62475 0.03505
C 15.99016 9.2414 -0.02815
C 14.70763 8.51461 -0.04147
C 14.77808 7.09342 -0.05302
C 12.31033 8.53286 0.02058
C 9.70186 28.43636 -0.01062
C 9.83682 29.83982 0.01364
C 11.01194 30.63019 -0.00719
C 2.45781 4.24499 -0.03996
C 2.41409 2.88518 0.01465
C 3.67095 2.129 -0.00074
C 3.71585 0.70806 -0.00518
C 2.47321 0.03103 0.0086
C 4.9308 32.69292 -0.00643
C 6.15424 31.9525 0.017
C 6.13337 30.62342 -0.03113
C 4.92457 29.80947 -0.02566
C 3.67137 4.99582 0.01996
C 4.87936 28.40865 -0.00094
C 6.1189 26.32614 -0.00725
C 4.90898 25.51587 -0.05697
C 4.86978 24.14741 0.01087
C 6.10359 23.48522 -0.01343
C 6.1208 22.04074 0.00988
C 4.91327 21.34065 0.0276
C 4.96783 19.85944 0.01305
C 6.15526 19.05083 -0.00077
C 6.06625 17.68022 0.03368
C 6.05847 27.7685 0.02322
C 3.62249 6.43696 -0.00279
C 2.37111 7.14867 0.01226
C 2.47407 8.63797 0.03828
C 3.67775 30.58821 0.00208
C 2.51442 29.81247 0.01707
C 2.46566 28.37396 0.02769
C 3.71488 27.6614 -0.03291
C 3.63477 26.22011 -0.04999
C 2.44559 25.62144 0.04505
C 2.36343 24.13608 0.03284
C 3.63426 23.48849 -0.04307
C 3.70429 22.07672 0.03189
C 2.4481 21.28395 0.00031
C 2.52532 19.88603 -0.003
C 3.77862 19.2058 0.01402
C 3.70918 17.78027 0.02379
C 2.45106 17.04718 0.00907
C 2.5026 15.63705 0.00643
C 3.74207 14.897 -0.01509
C 3.70453 13.4547 0.03267
C 2.38813 12.70884 0.02374
C 2.41972 11.35838 0.00402
C 3.71749 10.70697 0.0073
C 3.72131 9.2894 0.0174
C 4.91617 17.02577 -0.02929
C 4.90135 15.56828 -0.00966
C 6.19416 14.87625 -0.03337
C 6.23752 13.38434 0.01227
C 7.34347 19.86079 -0.00482
C 8.58584 19.18606 -0.01384
C 8.53371 17.71793 0.03693
C 7.37546 17.02348 0.01745
C 7.43729 15.59756 0.00488
C 8.65874 14.89073 -0.01004
C 8.67874 13.39555 -0.02896
C 7.45435 12.72249 -0.00131
C 8.55824 10.72375 -0.01118
C 8.55367 9.30498 -0.014
C 7.3437 8.54342 0.02147
C 7.33897 7.15205 0.00373
C 8.60582 6.45289 -0.00191
C 8.52005 5.05007 0.00438
C 7.39351 4.31856 0.01291
C 7.3481 2.89071 0.00093
C 8.57535 2.22272 0.00057
C 8.67744 0.73751 -0.01634
C 7.42308 0.09537 -0.00334
C 9.74081 32.67153 0.02339
C 11.04899 32.00715 0.01641
C 7.25974 21.27439 0.02888
C 17.22699 2.8453 0.00667
C 8.51462 22.01114 0.00685
C 7.28537 24.19648 0.00393
C 4.93066 12.81128 0.00873
C 4.94912 11.45424 -0.00049
C 6.12367 10.68121 0.00848
C 6.1682 9.31539 -0.01303
C 4.87978 8.57068 -0.01378
C 4.80592 7.16774 0.02635
C 6.05286 6.41125 0.0127
C 6.14615 5.04392 0.01396
C 4.88827 4.31049 0.01849
C 4.85711 2.86691 -0.01142
C 6.10134 2.24929 -0.00562
C 6.15507 0.81025 -0.00494
C 4.93871 0.0851 0.00054
C 7.35023 32.76315 0.03007
C 8.57644 32.01402 -0.00095
C 8.58591 30.55797 0.01572
C 7.38588 29.8263 -0.04848
C 7.33323 28.45615 -0.00892
C 8.53974 27.69252 -0.01362
C 8.61758 26.29494 -0.0008
C 7.28753 25.62178 0.0288
C 8.55289 23.46703 0.00895
C 3.67505 31.99047 -0.00561
C 18.4623 2.17806 0.00143
C 17.17667 0.01529 0.00364
C 30.79761 4.92217 0.07705
C 29.52845 4.30464 0.0103
C 29.49198 2.82132 0.02108
C 30.70488 2.13439 0.00716
C 30.74148 0.73272 0.00307
C 29.56283 0.02095 0.00346
C 31.96943 32.62903 0.01713
C 33.08532 31.90126 -0.01694
C 33.18619 30.5145 0.01428
C 30.73833 6.35815 0.01908
C 31.90307 29.86142 -0.02142
C 33.15211 27.72002 0.00026
C 33.16774 26.34381 0.00682
C 32.01917 25.55479 -0.01779
C 31.96521 24.12697 0.03794
C 33.21708 23.50156 0.01927
C 33.19544 22.06042 0.01574
C 32.05024 21.22847 -0.02383
C 32.00442 19.77797 -0.01429
C 33.27528 19.13851 -0.0136
C 31.88941 28.44479 0.0544
C 29.50621 7.06572 0.01518
C 29.49561 8.46492 -0.00971
C 30.67441 9.18588 -0.03735
C 30.72415 31.97222 0.04266
C 30.67745 30.51556 0.01324
C 29.45323 29.86345 0.0014
C 29.51865 28.43586 0.00924
C 30.69755 27.7128 0.02326
C 30.79796 26.27659 0.00261
C 29.56957 25.57989 0.03265
C 29.56182 24.14068 -0.02049
C 30.76235 23.3293 -0.01854
C 30.86479 21.91026 -0.01415
C 29.59963 21.20023 -0.03039
C 29.52346 19.84017 0.01836
C 30.81067 19.09776 0.03531
C 30.71279 17.70977 -0.00669
C 29.42567 17.05148 0.0101
C 29.46419 15.65489 0.01705
C 30.71895 14.98484 -0.0405
C 30.76214 13.61528 -0.01303
C 29.50508 12.8085 -0.01461
C 29.49896 11.397 -0.02155
C 30.69987 10.67702 -0.00944
C 33.23584 17.75988 0.00594
C 29.52973 32.68274 0.01177
C 31.99422 17.04759 -0.02474
C 33.20115 14.89608 0.00455
C 0.0244 21.34904 -0.02213
C 0.03092 19.93003 0.01951
C 1.19302 19.10467 -0.01678
C 1.17631 17.75277 0.01223
C 34.39278 16.97922 0.00648
C 0.0086 15.52876 0.02114
C 1.21307 14.87387 -0.02957
C 1.21733 13.44645 0.00343
C 34.35428 12.78337 -0.02656
C 1.25034 22.06432 0.02712
C 0.01307 11.34027 -0.02442
C 1.23419 9.29571 -0.00583
C 34.4219 8.54495 -0.02302
C 34.40431 7.1634 -0.02849
C 1.16576 6.45851 0.02931
C 1.19987 4.97755 0.00628
C 34.36317 4.3137 -0.0345
C 34.34895 2.82635 -0.00931
C 1.15151 2.10684 -0.00939
C 1.17961 0.74578 -0.00468
C 1.21711 10.61043 -0.00027
C 1.17032 23.45133 0.00723
C 34.38816 24.24965 0.03076
C 34.41568 25.62302 -0.05239
C 33.08844 13.46508 -0.00644
C 31.91738 12.80898 -0.01839
C 31.93686 11.38277 0.00137
C 33.17337 10.67141 0.00199
C 33.16964 9.2551 0.04381
C 31.98356 8.50743 0.02806
C 31.99171 7.08846 0.01504
C 33.22295 6.46573 -0.00069
C 33.15602 4.99034 0.04926
C 31.9679 4.25377 -0.03838
C 31.90319 2.7915 0.00349
C 33.16581 2.11675 -0.00323
C 33.23153 0.71734 -0.00841
C 31.95258 0.02129 0.0001
C 34.41255 32.68851 -0.02927
C 1.19961 31.95667 -0.01404
C 1.21673 30.53467 0.01027
C 0.03409 29.80756 0.01831
C 0.0493 28.32791 -0.01037
C 1.26591 27.73108 -0.00439
C 1.19243 26.32226 -0.00598
C 31.99988 15.65688 0.00369
C 27.05304 0.03031 -0.00416
C 28.28099 0.69283 0.01699
C 28.33337 2.06743 0.01799
C 22.1514 15.60501 -0.01185
C 23.30634 14.85954 0.01126
C 23.37494 13.4833 0.01852
C 22.19434 12.78008 -0.00381
C 22.11972 11.38155 0.03046
C 23.32481 10.61266 0.0296
C 23.3152 9.22507 0.03374
C 22.14464 8.4947 -0.02845
C 22.05773 7.13125 -0.03213
C 22.1649 17.00632 -0.01662
C 23.33195 6.32013 0.02239
C 22.11622 4.18221 0.02734
C 23.37868 2.12584 -0.0055
C 23.35921 0.72273 0.01515
C 22.17652 0.05487 -0.00225
C 24.69339 32.66799 0.00071
C 25.80178 31.88705 -0.01107
C 25.88186 30.53935 -0.01586
C 25.98231 23.34516 -0.01971
C 25.85164 22.01751 -0.02118
C 23.17526 4.90165 0.01153
C 23.36183 17.68429 -0.00478
C 23.46106 19.11652 0.01511
C 22.18315 19.83416 0.00199
C 19.68872 19.85914 -0.00831
C 20.87369 19.1303 -0.02957
C 20.97292 17.71769 -0.04422
C 19.71081 17.02576 0.00654
C 19.70981 15.64845 -0.00703
C 20.88271 14.92493 -0.04076
C 20.92147 13.54265 -0.00652
C 19.70419 12.81291 0.0058
C 19.68735 11.38502 -0.00865
C 20.8487 10.59201 0.00675
C 20.86763 9.24021 -0.00311
C 19.68991 8.49078 0.00742
C 19.60609 7.12856 -0.01594
C 20.88862 6.38995 0.0106
C 20.88463 4.89649 -0.01154
C 19.56047 4.28973 -0.01721
C 19.54385 2.93382 -0.02422
C 20.9912 0.30598 0.01277
C 19.68877 0.2036 0.00096
C 23.24057 22.02389 -0.01527
C 22.33859 21.14245 0.01087
C 24.48327 21.36552 0.00733
C 24.65436 19.96618 -0.00178
C 25.85351 19.14029 0.00768
C 25.69495 17.68357 -0.0276
C 26.96588 24.20406 -0.01654
C 28.35457 23.49907 -0.00037
C 28.29679 21.99042 -0.0032
C 27.15277 21.29874 0.00622
C 27.10378 19.91744 -0.02815
C 28.28386 19.17044 -0.00942
C 28.18346 17.74949 0.00487
C 26.91511 17.0246 0.00826
C 27.00993 15.63115 -0.00294
C 28.21974 14.90393 0.00152
C 28.19177 13.47543 0.01257
C 27.01207 12.82159 0.02316
C 27.00323 11.37419 0.04185
C 28.24966 10.66738 0.00194
C 28.21643 9.24775 -0.00621
C 26.96368 8.50712 0.02611
C 27.0334 7.09875 0.02198
C 28.24548 6.38035 0.01094
C 28.26662 4.91658 0.00235
C 27.05399 4.21678 0.01495
C 27.05536 2.71749 0.01259
C 27.22948 25.61864 -0.00218
C 18.43164 0.5475 -0.017
C 28.33246 26.27 -0.00802
C 27.13262 28.37317 0.00996
C 24.52956 16.90996 0.03005
C 24.54764 15.54552 -0.04078
C 25.78006 14.8867 0.02117
C 25.77397 13.50719 0.02737
C 24.59427 12.73815 -0.00498
C 24.56695 11.29087 0.00135
C 25.79472 10.64484 0.03102
C 25.76024 9.24728 0.02555
C 24.56192 8.52404 0.01423
C 24.55053 7.01066 -0.00285
C 25.80365 6.36366 -0.009
C 25.77635 4.93525 -0.01199
C 24.53991 4.24503 -0.00229
C 24.53006 2.8347 -0.00938
C 25.8378 2.08231 -0.0264
C 25.79775 0.69221 -0.01154
C 24.63473 34.01142 0.00684
C 27.1022 32.68377 -0.01052
C 28.25697 32.00456 -0.01679
C 28.26746 30.56812 0.00367
C 26.88211 29.72614 0.04306
C 28.29185 27.74331 0.00195
C 2.45182 32.65904 -0.01977
