416
Graphene
C 34.3715 34.02119 0.01295
C 13.56672 26.32331 -0.01111
C 12.35172 25.63581 -0.01275
C 12.27358 24.18743 0.00985
C 13.4556 23.5288 -0.02245
C 13.46096 22.07355 -0.00428
C 12.31501 21.30692 0.03101
C 12.34774 19.91198 -0.01536
C 13.50735 19.09276 -0.02689
C 13.54004 17.73265 -0.01046
C 12.27565 17.00323 -0.00891
C 13.54794 27.75606 0.02841
C 12.24448 15.56683 0.02819
C 13.55579 13.46455 -0.02971
C 12.31359 12.78343 0.02894
C 12.25993 11.33922 -0.01789
C 12.32181 4.17641 0.00444
C 12.36704 2.82138 -0.00925
C 13.57813 2.05187 0.01877
C 13.46569 0.6793 0.01363
C 12.23917 0.01669 -0.02162
C 14.72363 32.678 0.00415
C 15.97122 31.99638 -0.0014
C 13.53727 14.85641 0.00165
C 15.99304 30.55262 0.02162
C 12.31289 28.43233 0.00943
C 13.4458 30.65292 0.03592
C 11.08022 22.04548 -0.00131
C 9.82653 21.35858 -0.01118
C 9.81043 19.9657 -0.014
C 11.07158 19.23432 0.02147
C 11.07464 17.77328 0.00373
C 9.86342 17.09681 -0.00191
C 9.86382 15.69167 0.00438
C 11.00602 14.87343 0.01291
C 11.12841 13.53504 0.00093
C 9.89675 12.71365 0.00057
C 12.27462 29.88915 0.00406
C 9.92642 11.28945 -0.01634
C 9.72718 8.51239 0.02339
C 9.8594 7.15805 0.01641
C 11.09599 4.75139 -0.00719
C 9.84105 4.3188 0.01364
C 9.79498 2.88646 -0.01062
C 11.00791 2.17656 -0.00033
C 11.01293 0.76373 0.03589
C 9.76917 0.06657 -0.02759
C 12.26817 32.68404 0.0402
C 13.47502 32.00238 0.00572
C 11.21158 10.49875 -0.00334
C 11.08354 23.47643 -0.02896
C 14.70421 29.86841 0.0076
C 15.98614 27.78646 -0.01454
C 17.18608 29.82118 -0.00619
C 17.19143 28.44258 -0.02162
C 18.31587 27.64429 0.00889
C 17.52357 25.9782 -0.00481
C 18.46435 17.56 0.00979
C 17.2518 16.99163 0.01443
C 17.2162 15.56214 0.03505
C 18.4231 14.8899 -0.02815
C 18.44971 13.44333 -0.04147
C 17.16479 12.72748 -0.05302
C 18.39384 30.51814 0.01848
C 17.22375 11.34611 0.00213
C 18.46231 9.2875 -0.00289
C 17.27784 8.55214 0.00028
C 17.07171 7.12579 -0.02213
C 18.28956 6.43625 0.03698
C 18.35981 4.97522 -0.00109
C 17.15004 4.30137 -0.00491
C 17.16263 2.89184 0.03338
C 18.43752 2.142 -0.0258
C 18.42655 0.66027 -0.0331
C 17.25568 33.99442 -0.00316
C 18.49996 10.70883 -0.00066
C 14.76627 28.51028 0.01241
C 18.40901 31.93284 0.02098
C 14.78248 34.06498 0.0351
C 16.13875 26.32732 0.01945
C 14.85892 25.57652 0.01416
C 14.72864 24.15899 0.03542
C 15.88523 23.29 0.02299
C 14.79187 21.38205 0.00244
C 14.73322 19.98044 -0.01717
C 15.84367 19.11228 0.05265
C 16.02192 17.73127 -0.01952
C 14.7423 17.0164 -0.02813
C 14.79717 15.58415 0.00374
C 17.20084 32.64743 -0.03113
C 16.02261 14.85798 0.00052
C 14.73639 12.70714 0.01965
C 14.62253 11.29009 0.02058
C 15.81247 10.64351 -0.01957
C 16.02921 9.29357 -0.0108
C 15.83318 6.42844 -0.00368
C 15.70916 5.10376 -0.02696
C 14.60485 4.21359 -0.00114
C 14.72154 2.79199 0.00228
C 15.9775 2.0815 0.00798
C 15.99947 0.72327 0.00422
C 15.9685 13.40983 -0.03682
C 19.64894 32.59497 0.02188
C 9.86375 24.13802 -0.01004
C 11.06729 26.34899 0.01745
C 2.38927 2.76102 -0.03291
C 3.6223 2.18521 -0.04999
C 3.63689 0.71932 0.04505
C 2.3997 0.01046 0.03284
C 4.88415 32.66693 -0.04307
C 6.14349 31.95717 0.03189
C 6.1136 30.5847 0.00031
C 4.87076 29.93538 -0.003
C 4.93002 28.45417 0.01402
C 6.18948 27.69356 0.02379
C 2.40832 4.30318 0.02769
C 6.14845 26.28334 0.00907
C 4.92202 24.12962 -0.01509
C 6.09861 23.473 0.03267
C 6.05911 22.09465 0.02374
C 4.88441 21.36465 0.00402
C 4.90747 19.89365 0.0073
C 6.11967 19.26157 0.0174
C 6.14094 17.86336 0.03828
C 4.98546 17.09362 0.01226
C 4.94288 15.66717 -0.00279
C 6.2378 14.858 0.01996
C 4.97784 25.53876 0.00643
C 6.14095 13.45497 -0.03996
C 3.61809 4.97933 0.01707
C 2.43278 7.09555 -0.00561
C 3.61575 30.54812 -0.00407
C 2.33009 29.78459 0.01138
C 2.42513 28.45513 0.03278
C 3.65901 27.68872 -0.00177
C 3.75817 26.23633 0.04421
C 2.4684 25.53625 0.00088
C 2.44904 24.15854 0.00828
C 3.68152 23.50198 -0.02375
C 3.62486 22.04269 0.00558
C 2.37204 21.30683 -0.0059
C 3.64865 6.46456 0.00208
C 2.40399 19.89064 -0.01386
C 3.70721 17.80513 0.00081
C 2.53376 17.06429 0.00245
C 2.52576 15.63439 0.02728
C 3.75039 14.87625 -0.00039
C 3.65934 13.40727 0.0064
C 2.45939 12.86408 0.00211
C 2.39061 11.36762 -0.00449
C 3.64052 10.56341 -0.01979
C 3.7024 9.21306 0.02784
C 2.41201 8.53884 -0.01977
C 3.62541 19.25383 -0.02805
C 9.83796 25.60343 0.00488
C 4.85154 12.69143 0.01465
C 6.19363 10.67429 -0.00518
C 7.38248 15.61045 0.0127
C 8.59709 14.93962 0.01396
C 8.66333 13.51472 0.01849
C 7.39048 12.81774 -0.01142
C 7.38973 11.3966 -0.00562
C 8.70062 10.71159 -0.00494
C 8.66999 9.31751 0.00054
C 7.3464 8.63907 0.03007
C 7.38044 7.17149 -0.00095
C 8.61215 6.47078 0.01572
C 7.40761 17.0503 0.02635
C 8.57759 5.00486 -0.04848
C 7.30763 2.90116 -0.01362
C 8.5308 2.17976 -0.0008
C 8.57466 0.75479 0.0288
C 7.26083 0.06042 0.00393
C 9.78443 32.76091 0.00895
C 11.00697 32.02283 0.00685
C 11.09319 30.55315 0.02888
C 9.86029 29.90323 -0.00482
C 9.78292 28.51759 -0.01384
C 11.09275 27.85377 0.03693
C 7.33352 4.33314 -0.00892
C 4.84424 11.28369 -0.00074
C 8.60459 17.89697 -0.01378
C 7.33489 19.94882 0.00848
C 6.17331 9.29366 0.0086
C 4.90261 8.49148 -0.00643
C 4.86545 7.19469 0.017
C 6.15944 6.44511 -0.03113
C 6.07454 5.07105 -0.02566
C 4.82496 4.3365 -0.00094
C 4.82736 2.89958 0.02322
C 6.13898 2.1867 -0.00725
C 6.05829 0.76726 -0.05697
C 4.84642 0.0692 0.01087
C 8.56621 19.26779 -0.01303
C 7.37186 32.73986 -0.01343
C 8.561 30.5988 0.0276
C 7.35344 29.90458 0.01305
C 7.36234 28.46812 -0.00077
C 8.60191 27.79827 0.03368
C 8.62538 26.33364 -0.02929
C 7.4081 25.61124 -0.00966
C 7.40539 24.21939 -0.03337
C 8.61135 23.45331 0.01227
C 8.57433 22.07261 0.00873
C 7.33806 21.32387 -0.00049
C 8.53494 32.04073 0.00988
C 20.85548 31.92823 -0.01979
C 20.88275 30.49318 0.02691
C 19.67838 29.69429 -0.01581
C 30.76836 10.60133 -0.00944
C 30.76027 9.21913 -0.03735
C 29.53112 8.49003 -0.00971
C 29.50116 7.06615 0.01518
C 30.73381 6.37279 0.01908
C 30.70469 4.94704 0.07705
C 29.57204 4.21831 0.0103
C 29.50728 2.85801 0.02108
C 30.71618 2.09049 0.00716
C 30.74059 0.67426 0.00307
C 29.50821 11.34011 -0.02155
C 29.49585 0.0991 0.00346
C 33.19524 31.88604 -0.01694
C 33.14033 30.45996 0.01428
C 31.85097 29.76693 -0.02142
C 31.89194 28.40123 0.0544
C 33.10646 27.63634 0.00026
C 33.13606 26.25435 0.00682
C 31.92388 25.55188 -0.01779
C 31.92175 24.11544 0.03794
C 33.2111 23.4123 0.01927
C 33.16235 22.02162 0.01574
C 32.00106 32.61013 0.01713
C 31.97319 21.33359 -0.02383
C 29.49539 12.73403 -0.01461
C 30.69493 14.85771 -0.0405
C 27.03693 4.24859 0.01495
C 27.05745 2.87989 0.01259
C 28.26579 2.15929 0.01799
C 28.2289 0.76706 0.01699
C 27.08212 0.04497 -0.00416
C 29.47026 32.74353 0.01177
C 30.7841 31.95454 0.04266
C 30.64798 30.57934 0.01324
C 29.48622 29.81933 0.0014
C 29.49026 28.36547 0.00924
C 30.74997 13.41563 -0.01303
C 30.71971 27.6471 0.02326
C 29.45806 25.5766 0.03265
C 29.48199 24.14482 -0.02049
C 30.68988 23.36753 -0.01854
C 30.6985 22.02979 -0.01415
C 29.50807 21.27187 -0.03039
C 29.50394 19.81538 0.01836
C 30.70129 19.15059 0.03531
C 30.75094 17.73715 -0.00669
C 29.46882 16.98848 0.0101
C 29.4224 15.56332 0.01705
C 30.71565 26.23792 0.00261
C 28.37009 4.88081 0.00235
C 31.96928 19.87143 -0.01429
C 33.14215 17.74671 0.00594
C 1.20822 23.42202 0.00723
C 1.22243 22.02656 0.02712
C 0.05607 21.33048 -0.02213
C 0.04117 19.8745 0.01951
C 1.22089 19.15129 -0.01678
C 1.22522 17.79891 0.01223
C 0.00273 17.10406 0.00648
C 0.0145 15.64066 0.02114
C 1.23804 14.9458 -0.02957
C 1.22737 13.5102 0.00343
C 0.00989 24.11213 0.03076
C 0.00763 12.79227 -0.02656
C 1.16413 10.61333 -0.00027
C 1.19974 9.17582 -0.00583
C 34.42539 8.46341 -0.02302
C 0.00349 7.0859 -0.02849
C 1.20939 6.36598 0.02931
C 1.23401 4.95126 0.00628
C 0.00904 4.16331 -0.0345
C 34.34157 2.84775 -0.00931
C 1.14874 2.14201 -0.00939
C 1.21278 0.71302 -0.00468
C 34.41496 11.35231 -0.02442
C 33.18526 19.18321 -0.0136
C 34.40981 25.59406 -0.05239
C 1.18182 27.62999 -0.00439
C 31.91712 17.03193 -0.02474
C 31.88453 15.61798 0.00369
C 33.176 14.93274 0.00455
C 33.20771 13.5567 -0.00644
C 31.98796 12.77133 -0.01839
C 31.99791 11.3028 0.00137
C 33.2425 10.59803 0.00199
C 33.19738 9.20942 0.04381
C 32.01144 8.4651 0.02806
C 31.97255 7.07175 0.01504
C 1.18001 26.25245 -0.00598
C 33.16586 6.38575 -0.00069
C 31.96255 4.24214 -0.03838
C 31.99685 2.87364 0.00349
C 33.16403 2.10213 -0.00323
C 33.08881 0.67965 -0.00841
C 31.94391 33.97708 0.0001
C 34.40418 32.59968 -0.02927
C 1.23067 31.92759 -0.01404
C 1.18663 30.45253 0.01027
C 34.3697 29.75385 0.01831
C 34.34226 28.34178 -0.01037
C 33.18741 4.96699 0.04926
C 28.30746 6.27911 0.01094
C 27.08845 7.03264 0.02198
C 27.07222 8.44988 0.02611
C 23.36946 26.35356 -0.01154
C 23.53758 19.02572 -0.01721
C 23.39115 17.59195 -0.02422
C 22.13524 16.9415 0.01277
C 22.138 15.58028 0.00096
C 23.35873 14.87324 -0.01527
C 23.32712 13.41175 0.01087
C 22.09796 12.72633 0.00199
C 22.18262 11.33052 0.01511
C 23.36503 10.60544 -0.00478
C 23.34437 27.69209 0.0106
C 23.36493 9.19963 -0.01662
C 22.02757 7.05834 0.01126
C 23.28266 6.37148 0.01852
C 23.39173 4.91653 -0.00381
C 22.08526 4.26421 0.03046
C 22.11845 2.84562 0.0296
C 23.31037 2.17393 0.03374
C 23.34701 0.72932 -0.02845
C 22.0671 34.05968 -0.03213
C 24.55151 32.6731 0.02239
C 25.8495 32.05606 0.01153
C 22.07327 8.4903 -0.01185
C 25.82513 30.60895 0.02734
C 22.1464 28.39663 -0.01594
C 23.35405 30.54148 -0.00311
C 19.66245 28.15942 0.01452
C 20.92511 27.69358 0.04892
C 21.02276 17.82223 -0.00111
C 19.74769 17.2243 -0.03557
C 19.67694 15.64193 0.03754
C 20.99852 14.89414 0.01739
C 20.87385 13.45948 0.00755
C 19.6682 12.80742 -0.0054
C 19.68491 11.39149 0.00667
C 21.00549 10.61297 0.00143
C 22.1905 29.80408 0.00742
C 20.86788 9.22978 -0.017
C 19.56195 7.11833 -0.00831
C 20.77811 6.41726 -0.02957
C 20.85443 4.99649 -0.04422
C 19.61952 4.30853 0.00654
C 19.62442 2.86038 -0.00703
C 20.96932 2.14636 -0.04076
C 20.85873 0.68073 -0.00652
C 19.64398 34.01745 0.0058
C 22.07848 32.68622 -0.00865
C 23.35194 31.95528 0.00675
C 19.59995 8.57163 0.00364
C 24.64824 29.86656 -0.0055
C 24.68199 28.40926 0.01515
C 25.91358 27.73525 -0.00225
C 28.30982 32.00515 -0.01679
C 28.2742 30.5885 0.00367
C 27.07253 29.89259 0.04306
C 27.06014 28.39654 0.00996
C 28.31772 27.6827 0.00195
C 28.24898 26.33569 -0.00802
C 27.00604 25.54156 -0.00218
C 27.0412 24.06897 -0.01654
C 28.32077 23.46292 -0.00037
C 28.30675 22.06969 -0.0032
C 27.01568 32.70498 -0.01052
C 27.04515 21.31653 0.00622
C 28.2666 19.15993 -0.00942
C 28.22945 17.78307 0.00487
C 26.98716 17.00743 0.00826
C 27.04108 15.59051 -0.00294
C 28.24498 14.82096 0.00152
C 28.31092 13.41632 0.01257
C 27.00045 12.70638 0.02316
C 27.02163 11.28191 0.04185
C 28.23537 10.59232 0.00194
C 28.28052 9.19487 -0.00621
C 27.0571 19.86248 -0.02815
C 24.54004 34.0545 0.00684
C 25.89368 0.71273 -0.01154
C 25.84624 2.08436 -0.0264
C 25.75887 26.24278 0.00071
C 24.4567 25.43256 -0.01107
C 24.66948 24.15028 -0.01586
C 25.8548 23.43421 -0.01971
C 25.81414 21.99594 -0.02118
C 24.65381 21.39391 0.00733
C 24.35315 20.05936 -0.00178
C 25.74894 19.19395 0.00768
C 25.74679 17.77449 -0.0276
C 24.60119 16.95772 0.03005
C 24.67797 15.50988 -0.04078
C 25.83779 14.82972 0.02117
C 25.78447 13.40854 0.02737
C 24.58026 12.68545 -0.00498
C 24.55675 11.29005 0.00135
C 25.81747 10.55453 0.03102
C 25.79218 9.14124 0.02555
C 24.62632 8.54725 0.01423
C 24.63306 7.07644 -0.00285
C 25.85909 6.37728 -0.009
C 25.84912 4.93252 -0.01199
C 24.66012 4.24923 -0.00229
C 24.64129 2.75627 -0.00938
C 3.64667 31.93879 -0.01299
C 2.42213 32.69602 -0.0154
