347
Graphene
C 0.01215 0.01831 0.01295
C 9.88316 11.35345 0.0351
C 10.99511 10.59089 -0.03113
C 11.04208 9.39207 0.02098
C 9.90967 8.50551 0.01848
C 9.91264 7.11765 -0.00619
C 11.08011 6.41528 -0.02162
C 11.03397 4.95382 0.00889
C 9.78526 4.19821 -0.00481
C 9.80756 2.70053 0.00979
C 11.05615 2.09421 0.01443
C 11.1295 0.73224 0.03505
C 9.87055 34.0523 -0.02815
C 12.35223 32.63657 -0.04147
C 13.60455 31.93507 -0.05302
C 13.48719 30.61587 0.00213
C 12.31459 29.76905 -0.00066
C 12.30528 28.29461 -0.00289
C 9.78459 12.72726 0.00422
C 11.11343 13.38677 0.00798
C 11.05561 14.85313 0.00228
C 9.78329 15.62794 -0.00114
C 8.61264 0.63653 0.01945
C 7.34056 0.0671 0.01416
C 9.75896 32.71381 0.03542
C 11.09873 31.99719 0.02299
C 11.11092 30.56189 0.00244
C 9.86369 29.85578 -0.01717
C 9.86443 28.4383 0.05265
C 11.0673 27.6933 -0.01952
C 13.53393 27.65028 0.00028
C 11.08259 26.29185 -0.02813
C 9.85612 24.24391 0.00052
C 11.02142 23.45043 -0.03682
C 11.02767 22.09085 0.01965
C 9.85915 21.23249 0.02058
C 9.881 19.84225 -0.01957
C 11.10362 19.1786 -0.0108
C 11.16114 17.74403 -0.00368
C 9.82748 16.99217 -0.02696
C 9.80802 25.61478 0.00374
C 13.54661 26.21596 -0.02213
C 12.23812 25.52264 0.03698
C 12.30995 24.13346 -0.00109
C 16.03149 23.42463 -0.02957
C 16.00189 22.04363 -0.04422
C 14.77268 21.33868 0.00654
C 14.71548 19.99544 -0.00703
C 15.91622 19.24063 -0.04076
C 14.8335 2.67051 -0.00652
C 15.89264 2.12544 0.0058
C 16.01331 0.76756 -0.00865
C 14.76409 24.10327 -0.00831
C 14.72428 0.01743 0.00675
C 18.4387 31.95772 0.00742
C 18.47156 30.51915 -0.01594
C 17.26581 29.88319 0.0106
C 17.22908 28.36957 -0.01154
C 18.46949 27.68302 -0.01721
C 18.44947 26.25073 -0.02422
C 17.24125 25.50952 0.01277
C 17.18722 24.1517 0.00096
C 17.21037 32.62406 -0.00311
C 8.61378 2.05133 -0.01454
C 14.79786 25.50193 0.00364
C 15.96108 27.74608 0.00143
C 13.4926 23.41515 -0.00491
C 13.47558 22.01756 0.03338
C 12.19934 21.36598 -0.0258
C 12.25668 19.94872 -0.0331
C 13.49209 19.17887 -0.00316
C 13.58767 17.7614 0.02188
C 12.38982 17.02534 -0.01979
C 12.25975 15.64721 0.02691
C 16.0148 26.31266 -0.017
C 12.34058 4.27153 -0.01581
C 13.54181 2.15357 0.04892
C 13.52763 0.65202 -0.00111
C 12.28227 34.05992 -0.03557
C 14.77737 32.65915 0.03754
C 16.0173 31.96029 0.01739
C 15.97281 30.52788 0.00755
C 14.69338 29.849 -0.0054
C 14.72505 28.43102 0.00667
C 12.30584 2.8482 0.01452
C 18.38225 23.41766 -0.01527
C 7.36027 2.83591 0.01241
C 8.62356 4.9395 0.02162
C 2.42713 7.07808 -0.0008
C 3.68215 6.33535 0.0288
C 3.62133 4.92361 0.00393
C 2.50812 4.23098 0.00895
C 2.43538 33.99788 0.00685
C 4.95724 32.67562 0.02888
C 6.21926 31.97504 -0.00482
C 6.11946 30.60284 -0.01384
C 4.92832 29.77221 0.03693
C 4.89492 28.41614 0.01745
C 6.12029 27.70732 0.00488
C 6.14469 26.3372 -0.01004
C 4.92406 25.51807 -0.02896
C 4.91924 24.17132 -0.00131
C 6.0949 23.46171 -0.01118
C 6.11349 22.01442 -0.014
C 4.9347 21.29036 0.02147
C 2.46062 8.58342 -0.01362
C 3.6918 9.19462 -0.00892
C 3.70649 10.6862 -0.04848
C 2.4587 11.35909 0.01572
C 3.69433 30.54468 -0.00966
C 2.39149 29.89016 -0.03337
C 2.46859 28.4334 0.01227
C 3.65677 27.65256 0.00873
C 3.64212 26.26709 -0.00049
C 2.41175 25.58909 0.00848
C 2.49425 24.09086 -0.01303
C 3.78051 23.4467 -0.01378
C 4.86973 19.87063 0.00373
C 3.77522 22.01313 0.02635
C 2.46121 19.89662 0.01396
C 3.62456 19.17528 0.01849
C 3.63116 17.8562 -0.01142
C 2.46752 17.02951 -0.00562
C 2.49002 15.58387 -0.00494
C 3.68839 14.91281 0.00054
C 3.74142 13.48064 0.03007
C 2.41928 12.76139 -0.00095
C 2.53024 21.29305 0.0127
C 6.06219 19.1501 -0.00191
C 6.10647 17.83614 0.00438
C 4.88292 17.12071 0.01291
C 7.35711 24.14657 -0.00428
C 8.63657 23.47311 0.03101
C 8.63672 21.91875 -0.01536
C 7.40254 21.3238 -0.02689
C 7.41338 19.92294 -0.01046
C 8.60323 19.2041 -0.00891
C 8.59647 17.73801 0.02819
C 7.34571 16.99984 0.00165
C 7.32851 25.55511 -0.02245
C 7.41473 15.61769 -0.02971
C 8.58922 13.46035 -0.01789
C 7.38197 12.82379 0.00444
C 7.39958 11.44434 -0.00925
C 8.57436 10.63977 0.01877
C 8.68947 9.22111 0.01363
C 7.46669 8.52837 -0.02162
C 7.41139 7.12037 0.00415
C 8.55955 6.28505 -0.0014
C 8.59091 14.89509 0.02894
C 7.27456 4.29336 0.0076
C 8.54369 26.22332 0.00985
C 7.38125 28.41712 -0.01111
C 4.89573 15.67221 0.00093
C 6.13821 14.95245 0.00057
C 6.18355 13.44707 -0.01634
C 4.91722 12.81588 -0.00334
C 4.90051 11.39634 0.02339
C 6.18115 10.6869 0.01641
C 6.16168 9.23705 -0.00719
C 4.95615 8.53079 0.01364
C 8.64032 27.72482 -0.01275
C 4.88789 7.12056 -0.01062
C 6.07651 5.04213 0.03589
C 6.24108 2.13506 -0.02759
C 6.08891 0.8053 0.0402
C 4.89349 34.07626 0.00572
C 7.39636 32.75921 0.03592
C 8.53769 32.05887 0.00406
C 8.58084 30.60008 0.00943
C 7.38058 29.83755 0.02841
C 6.05316 6.38426 -0.00033
C 3.70617 31.97635 -0.02929
C 18.45152 22.00157 0.01087
C 17.23221 19.80424 0.01511
C 33.15855 30.55613 0.01428
C 31.96055 29.86302 -0.02142
C 31.98088 28.42139 0.0544
C 33.15426 27.69554 0.00026
C 33.13744 26.31728 0.00682
C 31.95799 25.53142 -0.01779
C 31.98592 24.11773 0.03794
C 33.14629 23.48617 0.01927
C 33.1953 22.06612 0.01574
C 32.01583 21.36531 -0.02383
C 31.9915 19.84574 -0.01429
C 33.19176 19.18993 -0.0136
C 33.15013 17.74949 0.00594
C 31.96993 17.03554 -0.02474
C 31.95011 15.66652 0.00369
C 33.11434 14.89054 0.00455
C 33.11836 13.48034 -0.00644
C 33.14822 31.8981 -0.01694
C 31.98303 32.72689 0.01713
C 29.46582 34.05123 0.00346
C 30.74869 0.76007 0.00307
C 29.52587 19.85856 0.01836
C 30.74552 19.15404 0.03531
C 30.74216 17.77866 -0.00669
C 29.54783 17.05722 0.0101
C 29.5171 15.67753 0.01705
C 30.71792 14.89586 -0.0405
C 30.70723 13.51994 -0.01303
C 29.43633 12.73562 -0.01461
C 31.90212 12.81777 -0.01839
C 29.62313 11.37733 -0.02155
C 30.7569 9.17245 -0.03735
C 29.62773 8.49914 -0.00971
C 29.45827 7.15081 0.01518
C 30.74035 6.42289 0.01908
C 30.76007 4.98513 0.07705
C 29.5208 4.25024 0.0103
C 29.50416 2.81311 0.02108
C 30.73695 2.17916 0.00716
C 30.78611 10.68393 -0.00944
C 31.99408 11.29345 0.00137
C 33.2325 10.61387 0.00199
C 33.25053 9.23566 0.04381
C 1.20774 19.20647 -0.01678
C 1.22112 17.68975 0.01223
C 34.35528 17.04145 0.00648
C 0.02789 15.55599 0.02114
C 1.19152 14.85259 -0.02957
C 1.17755 13.47738 0.00343
C 34.38201 12.77258 -0.02656
C 34.38175 11.36435 -0.02442
C 34.42688 19.91739 0.01951
C 1.21434 10.60232 -0.00027
C 0.03301 8.51936 -0.02302
C 0.00022 7.12795 -0.02849
C 1.28872 6.35576 0.02931
C 1.24323 4.84946 0.00628
C 34.4288 4.25693 -0.0345
C 0.06921 2.77776 -0.00931
C 1.19544 2.14216 -0.00939
C 1.29585 0.72996 -0.00468
C 1.21087 9.26407 -0.00583
C 29.51912 21.3009 -0.03039
C 0.02464 21.38517 -0.02213
C 1.21607 23.44576 0.00723
C 32.0113 8.59222 0.02806
C 31.93938 7.14865 0.01504
C 33.1962 6.41155 -0.00069
C 33.2307 4.9722 0.04926
C 32.02194 4.3253 -0.03838
C 32.01341 2.83413 0.00349
C 33.17452 2.0831 -0.00323
C 33.22032 0.7444 -0.00841
C 1.25254 22.04325 0.02712
C 31.99768 0.07216 0.0001
C 1.16899 31.85132 -0.01404
C 1.15023 30.50431 0.01027
C 34.41071 29.81882 0.01831
C 0.05776 28.39352 -0.01037
C 1.17638 27.66744 -0.00439
C 1.14398 26.25964 -0.00598
C 34.38446 25.52715 -0.05239
C 34.39316 24.15831 0.03076
C 34.41627 32.59414 -0.02927
C 17.20736 21.37862 0.00199
C 30.78374 22.06692 -0.01415
C 29.48877 24.12327 -0.02049
C 22.1303 29.77952 0.00733
C 22.06728 28.38003 -0.00178
C 23.31059 27.72054 0.00768
C 23.36832 26.28886 -0.0276
C 22.16556 25.5061 0.03005
C 22.13419 24.1355 -0.04078
C 23.34429 23.48431 0.02117
C 23.41619 22.05157 0.02737
C 22.14181 21.37342 -0.00498
C 21.9782 19.9128 0.00135
C 23.43698 2.16143 0.03102
C 23.33775 0.76966 0.02555
C 22.1029 0.00677 0.01423
C 24.60912 32.67175 -0.00285
C 25.80319 31.9035 -0.009
C 25.79024 30.52205 -0.01199
C 24.57226 29.84121 -0.00229
C 23.31997 30.60405 -0.02118
C 23.37591 31.9123 -0.01971
C 22.12854 32.62846 -0.01586
C 19.59588 0.00786 -0.01107
C 18.46241 19.24164 -0.00478
C 18.44952 0.68467 -0.01662
C 17.13918 34.01946 -0.01185
C 19.63321 32.62772 0.01126
C 20.93311 31.92757 0.01852
C 20.8787 30.46437 -0.00381
C 19.66407 29.80134 0.03046
C 19.70462 28.34739 0.0296
C 24.5774 28.40727 -0.00938
C 20.92347 27.66916 0.03374
C 19.63338 25.54712 -0.03213
C 19.67893 24.05454 0.02239
C 20.85879 23.38863 0.01153
C 20.86627 21.9962 0.02734
C 19.6807 21.28625 -0.0055
C 19.69816 19.78864 0.01515
C 21.00819 19.31824 -0.00225
C 20.79831 0.7063 0.00071
C 20.83171 26.23185 -0.02845
C 25.83207 27.64307 -0.0264
C 25.78273 26.26428 -0.01154
C 24.64647 25.5487 0.00684
C 28.36074 17.74112 -0.00621
C 28.18264 14.81286 0.02611
C 28.18786 13.55766 0.02198
C 28.34874 6.348 0.01094
C 28.2389 4.96949 0.00235
C 27.12241 4.16813 0.01495
C 27.12627 2.79306 0.01259
C 28.34332 2.09061 0.01799
C 28.22396 19.14885 0.00194
C 28.32025 0.6338 0.01699
C 29.48358 32.62239 0.01177
C 30.70549 31.98332 0.04266
C 30.8041 30.47287 0.01324
C 29.60647 29.75174 0.0014
C 29.50067 28.33053 0.00924
C 30.74155 27.66721 0.02326
C 30.75498 26.24632 0.00261
C 29.50244 25.51073 0.03265
C 27.08228 0.02199 -0.00416
C 30.71663 23.42964 -0.01854
C 27.074 19.94932 0.04185
C 28.33365 21.97284 0.01257
C 24.66347 24.16835 -0.01052
C 25.85822 23.48692 -0.01679
C 25.83647 22.04777 0.00367
C 24.65277 21.22466 0.04306
C 24.47891 2.76898 0.00996
C 25.84559 2.19409 0.00195
C 25.79149 0.7941 -0.00802
C 24.56845 0.00955 -0.00218
C 27.062 21.30963 0.02316
C 27.01244 32.68842 -0.01654
C 28.30735 30.50061 -0.0032
C 27.10948 29.83759 0.00622
C 27.03603 28.46453 -0.02815
C 28.2674 27.65105 -0.00942
C 28.3175 26.29913 0.00487
C 27.1074 25.57294 0.00826
C 27.12184 24.12725 -0.00294
C 28.21635 23.37189 0.00152
C 28.2804 31.97089 -0.00037
C 2.43654 32.64385 0.03368
