431
Graphene
C 0.01641 0.02365 0.01295
C 13.58829 23.43624 -0.01062
C 13.47752 22.08105 -0.00033
C 12.28907 21.33115 0.03589
C 12.32129 19.85147 -0.02759
C 13.57143 19.20853 0.0402
C 13.53699 17.76856 0.00572
C 12.23527 17.02389 0.03592
C 12.25482 15.61334 0.00406
C 13.49376 14.80911 0.00943
C 13.52033 13.46504 0.02841
C 12.33737 12.81179 -0.01111
C 12.33193 11.33817 -0.01275
C 13.55995 10.63425 0.00985
C 13.5577 9.21718 -0.02245
C 12.26076 8.60967 -0.00428
C 12.30499 7.07897 0.03101
C 13.51733 6.3164 -0.01536
C 13.47211 4.93601 -0.02689
C 12.35984 4.19506 -0.01046
C 12.27395 2.8156 -0.00891
C 13.52147 2.15964 0.02819
C 13.54092 0.67573 0.00165
C 12.27881 0.06311 -0.02971
C 12.21606 24.20767 0.01364
C 14.77411 32.69439 0.02894
C 12.33481 25.59512 -0.00719
C 13.55533 27.7267 0.02339
C 11.07965 17.77608 0.00393
C 9.82865 17.06836 0.00895
C 9.84537 15.62762 0.00685
C 11.08936 14.92816 0.02888
C 11.07514 13.55949 -0.00482
C 9.80314 12.7881 -0.01384
C 9.83348 11.41472 0.03693
C 11.08686 10.5929 0.01745
C 11.05914 9.22263 0.00488
C 9.84041 8.5595 -0.01004
C 9.91175 7.12088 -0.02896
C 11.05184 6.34587 -0.00131
C 11.07384 4.98548 -0.01118
C 9.85043 4.22093 -0.014
C 9.77718 2.82937 0.02147
C 11.08912 2.13378 0.00373
C 11.15182 0.74349 -0.00191
C 9.86693 0.02335 0.00438
C 12.3116 32.69806 0.01291
C 13.49545 32.04395 0.00093
C 13.50926 30.56514 0.00057
C 12.28206 29.77306 -0.01634
C 12.31611 28.37535 -0.00334
C 13.54022 26.3449 0.01641
C 11.07607 19.15573 0.0288
C 15.95695 31.97961 -0.01789
C 14.73357 29.84939 -0.00925
C 14.77293 34.05244 -0.00114
C 17.26793 32.74235 0.00228
C 18.44243 31.9241 0.00798
C 18.4441 30.53985 0.00422
C 17.2241 29.79592 0.0351
C 17.2418 28.33898 -0.03113
C 18.39514 27.67116 0.02098
C 18.43054 26.23892 0.01848
C 17.23614 25.51877 -0.00619
C 17.23419 24.12173 -0.02162
C 18.42681 23.47261 0.00889
C 18.38669 22.01594 -0.00481
C 17.1662 21.31096 0.00979
C 17.15747 19.93103 0.01443
C 18.41806 19.20489 0.03505
C 18.42302 17.77106 -0.02815
C 17.24684 17.02511 -0.04147
C 17.23229 15.63408 -0.05302
C 18.44793 14.93402 0.00213
C 18.45272 13.52001 -0.00066
C 17.26785 12.7951 -0.00289
C 17.24501 11.37197 0.00028
C 18.48161 10.60287 -0.02213
C 15.96322 0.67344 -0.02696
C 15.97455 30.52487 0.00444
C 16.02424 2.15228 -0.00368
C 14.71978 4.26392 -0.01957
C 14.73247 28.41918 0.01877
C 15.94862 27.69672 0.01363
C 15.97895 26.2434 -0.02162
C 14.69089 25.57105 0.00415
C 14.77244 24.17218 -0.0014
C 16.03544 23.4143 0.02162
C 15.94882 21.98613 0.0076
C 14.73628 21.23785 0.01241
C 14.72971 19.85104 -0.01454
C 15.99283 19.15748 0.01945
C 15.94115 17.74872 0.01416
C 14.77287 17.02301 0.03542
C 14.82591 15.62771 0.02299
C 15.97703 14.95654 0.00244
C 16.01376 13.44697 -0.01717
C 14.74275 12.77795 0.05265
C 14.73848 11.35671 -0.01952
C 15.9981 10.68253 -0.02813
C 16.00289 9.1526 0.00374
C 14.72923 8.5319 0.00052
C 14.73161 7.1222 -0.03682
C 15.95339 6.38182 0.01965
C 15.9725 4.96086 0.02058
C 14.75636 2.89845 -0.0108
C 18.46984 9.16642 0.03698
C 9.83995 19.92845 -0.0008
C 11.08067 22.01794 -0.00892
C 3.69478 2.14338 0.00081
C 3.62482 0.78574 0.00245
C 2.47971 0.03521 0.02728
C 4.89117 32.64773 -0.00039
C 6.10704 31.94319 0.0064
C 6.11086 30.54867 0.00211
C 4.96413 29.75197 -0.00449
C 4.97637 28.40578 -0.01979
C 6.13043 27.66937 0.02784
C 6.20305 26.24424 -0.01977
C 4.9261 25.54276 -0.00561
C 4.86192 24.12652 0.00208
C 6.13233 23.53567 0.01707
C 6.16415 22.04336 0.02769
C 4.98173 21.27411 -0.03291
C 4.9276 19.88507 -0.04999
C 6.21156 19.13768 0.04505
C 6.11053 17.69571 0.03284
C 4.94363 16.98885 -0.04307
C 4.82091 15.55347 0.03189
C 6.11783 14.98885 0.00031
C 6.09674 13.55348 -0.003
C 4.89781 12.79241 0.01402
C 2.50315 2.87647 -0.02805
C 4.91609 11.29832 0.02379
C 2.51061 4.26221 -0.01386
C 3.71082 6.42984 0.00558
C 3.68425 30.54454 -0.03672
C 2.43744 29.81691 0.01913
C 2.42135 28.34418 0.00267
C 3.67697 27.68946 0.00787
C 3.72293 26.28029 0.02426
C 2.47719 25.53547 0.01218
C 2.45561 24.16464 -0.01471
C 3.68529 23.48565 -0.02827
C 3.66635 22.0118 0.01078
C 2.51761 21.28318 -0.00112
C 2.5379 19.85579 0.03345
C 3.73245 19.17628 0.00748
C 3.65222 17.61939 0.00662
C 2.42245 17.00643 -0.0154
C 2.40684 15.61538 -0.01299
C 3.63232 14.83882 -0.00407
C 3.70456 13.47385 0.01138
C 2.47081 12.79288 0.03278
C 2.44159 11.37824 -0.00177
C 3.71561 10.59872 0.04421
C 3.6679 9.26245 0.00088
C 2.44072 8.55597 0.00828
C 2.48039 7.13818 -0.02375
C 3.68018 4.97096 -0.0059
C 9.83064 21.31347 -0.01362
C 6.18904 10.70359 0.00907
C 4.89375 8.52414 -0.01509
C 7.33295 12.84478 -0.00077
C 7.43172 11.37005 0.03368
C 8.63711 10.69694 -0.02929
C 8.60024 9.26797 -0.00966
C 7.39485 8.57552 -0.03337
C 7.34063 7.18787 0.01227
C 8.60812 6.45023 0.00873
C 8.62753 4.98976 -0.00049
C 7.3268 4.25445 0.00848
C 7.39597 2.87842 -0.01303
C 8.62544 2.13028 -0.01378
C 8.6454 0.69417 0.02635
C 7.36982 0.0419 0.0127
C 9.8175 32.70589 0.01396
C 11.0874 31.97512 0.01849
C 11.0215 30.53463 -0.01142
C 9.79474 29.84412 -0.00562
C 9.84916 28.35354 -0.00494
C 11.10456 27.66512 0.00054
C 11.02663 26.30691 0.03007
C 9.80307 25.58127 -0.00095
C 9.87152 24.19973 0.01572
C 11.06242 23.38716 -0.04848
C 8.58946 13.52592 0.01305
C 6.09218 9.23658 0.00643
C 8.60186 14.93578 0.0276
C 7.3559 17.07601 -0.01343
C 4.85103 7.0935 0.03267
C 6.11456 6.40537 0.02374
C 6.13763 4.9244 0.00402
C 4.93246 4.31571 0.0073
C 4.86801 2.84658 0.0174
C 6.15332 2.16365 0.03828
C 6.14243 0.67871 0.01226
C 4.88125 0.01738 -0.00279
C 7.37323 32.69087 0.01996
C 8.64416 31.95891 -0.03996
C 8.6302 30.57798 0.01465
C 7.36515 29.80868 -0.00074
C 7.3766 28.40896 -0.00518
C 8.60848 27.69033 0.0086
C 8.54989 26.3277 -0.00643
C 7.41585 25.56973 0.017
C 7.40627 24.10276 -0.03113
C 8.66606 23.40629 -0.02566
C 8.58774 22.03268 -0.00094
C 7.3624 21.31731 0.02322
C 7.40035 19.86796 -0.00725
C 8.60116 19.17339 -0.05697
C 8.59866 17.74997 0.01087
C 7.34549 15.66227 0.00988
C 3.72752 31.98111 -0.04306
C 17.21849 8.40899 -0.00109
C 18.47286 6.34838 0.03338
C 30.76352 13.51317 -0.01303
C 29.50003 12.82546 -0.01461
C 29.52702 11.32226 -0.02155
C 30.70469 10.65073 -0.00944
C 30.78888 9.19309 -0.03735
C 29.4682 8.47531 -0.00971
C 29.47691 7.11285 0.01518
C 30.71579 6.38123 0.01908
C 30.70538 5.00716 0.07705
C 29.48678 4.26166 0.0103
C 29.53104 2.78343 0.02108
C 30.77731 2.11743 0.00716
C 30.74021 0.72571 0.00307
C 29.57358 34.05636 0.00346
C 31.9522 32.58137 0.01713
C 33.20792 31.95686 -0.01694
C 33.2326 30.50069 0.01428
C 31.9575 29.79125 -0.02142
C 31.99624 28.38301 0.0544
C 33.21736 27.71395 0.00026
C 33.18362 26.28635 0.00682
C 31.98549 25.62161 -0.01779
C 31.96474 24.15473 0.03794
C 30.80004 14.96134 -0.0405
C 33.17102 23.4504 0.01927
C 29.53039 15.62192 0.01705
C 30.7361 17.72331 -0.00669
C 27.09954 12.82799 0.02611
C 27.10119 11.36392 0.02198
C 28.26364 10.60938 0.01094
C 28.27056 9.24899 0.00235
C 27.05514 8.53131 0.01495
C 27.08002 7.16996 0.01259
C 28.24812 6.30855 0.01799
C 28.23854 4.93216 0.01699
C 27.04511 4.23609 -0.00416
C 27.10158 2.83803 0.01177
C 28.24155 2.08557 0.04266
C 28.24057 0.70511 0.01324
C 27.04264 34.02677 0.0014
C 29.50304 28.37441 0.00924
C 30.74222 27.62961 0.02326
C 30.72601 26.31063 0.00261
C 29.51669 25.57898 0.03265
C 29.516 24.10735 -0.02049
C 30.75213 23.4231 -0.01854
C 30.70694 21.99941 -0.01415
C 29.47135 21.3212 -0.03039
C 29.52533 19.88322 0.01836
C 30.78133 19.1181 0.03531
C 29.51034 17.02349 0.0101
C 28.25691 13.54446 -0.00621
C 33.21945 22.02798 0.01574
C 31.96966 19.93807 -0.01429
C 34.39758 24.16564 0.03076
C 1.19241 23.44235 0.00723
C 1.22276 22.05679 0.02712
C 0.01432 21.3043 -0.02213
C 0.02323 19.88831 0.01951
C 1.22208 19.14657 -0.01678
C 1.19959 17.73654 0.01223
C 34.40669 17.04415 0.00648
C 34.40823 15.67559 0.02114
C 1.22425 14.85496 -0.02957
C 1.23646 13.45422 0.00343
C 34.38278 12.75593 -0.02656
C 34.40984 11.37911 -0.02442
C 1.24951 10.66776 -0.00027
C 1.15751 9.17689 -0.00583
C 34.38481 8.51873 -0.02302
C 0.0107 7.10108 -0.02849
C 1.20866 6.33363 0.02931
C 1.20072 4.96395 0.00628
C 0.03013 4.19766 -0.0345
C 0.02309 2.80798 -0.00931
C 1.28253 2.15148 -0.00939
C 1.22663 0.70262 -0.00468
C 0.00982 25.52545 -0.05239
C 31.97159 21.29247 -0.02383
C 1.208 26.25391 -0.00598
C 0.01375 28.40745 -0.01037
C 33.24822 19.15603 -0.0136
C 33.17556 17.79088 0.00594
C 31.9071 17.03743 -0.02474
C 31.94401 15.5914 0.00369
C 33.21573 14.83336 0.00455
C 33.17784 13.48225 -0.00644
C 32.00204 12.76493 -0.01839
C 31.98184 11.34395 0.00137
C 33.09815 10.65014 0.00199
C 33.12712 9.18213 0.04381
C 31.98124 8.50364 0.02806
C 31.96769 7.08557 0.01504
C 33.23446 6.34898 -0.00069
C 33.25135 4.92137 0.04926
C 32.00834 4.26194 -0.03838
C 31.96946 2.85694 0.00349
C 33.22262 2.05706 -0.00323
C 33.1676 0.66084 -0.00841
C 31.94968 0.00873 0.0001
C 0.051 32.61033 -0.02927
C 1.31446 31.92305 -0.01404
C 1.20768 30.49129 0.01027
C 34.42338 29.80268 0.01831
C 1.24138 27.67786 -0.00439
C 17.21342 7.04308 -0.00491
C 28.33823 14.93018 0.00194
C 27.00867 17.01836 0.02316
C 19.66995 8.52838 -0.00865
C 19.72677 7.10102 0.00675
C 20.95362 6.40812 -0.00311
C 20.9344 5.00497 0.00742
C 19.69502 4.26786 -0.01594
C 19.70716 2.75549 0.0106
C 20.89975 2.13029 -0.01154
C 20.91349 0.7273 -0.01721
C 19.63895 0.05723 -0.02422
C 22.09502 32.64783 0.01277
C 23.34718 31.96518 0.00096
C 23.31897 30.56019 -0.01527
C 22.1358 29.78965 0.01087
C 22.16739 28.41004 0.00199
C 23.3521 27.74478 0.01511
C 23.36517 26.23238 -0.00478
C 22.16276 25.6021 -0.01662
C 22.18075 24.1352 -0.01185
C 23.43894 23.3911 0.01126
C 23.3009 21.95593 0.01852
C 22.15656 21.30105 -0.00381
C 22.1308 19.83888 0.03046
C 23.49455 19.19464 0.0296
C 19.64762 11.39808 0.0058
C 23.36755 17.72731 0.03374
C 19.71511 12.76345 -0.00652
C 20.81329 14.90878 -0.00703
C 18.38949 4.96927 -0.0258
C 17.16777 4.25189 -0.0331
C 17.17974 2.84723 -0.00316
C 18.47205 2.09391 0.02188
C 18.36874 0.68086 -0.01979
C 17.21418 0.02202 0.02691
C 19.63902 32.68131 -0.01581
C 20.86753 31.9239 0.01452
C 20.87839 30.53939 0.04892
C 19.67392 29.82828 -0.00111
C 19.66701 28.37142 -0.03557
C 20.90355 27.69551 0.03754
C 20.91844 26.18389 0.01739
C 19.69592 25.54347 0.00755
C 19.66949 24.11407 -0.0054
C 20.91152 23.42886 0.00667
C 20.99688 22.07669 0.00143
C 19.68362 21.31887 -0.017
C 19.63821 19.84376 0.00364
C 20.90462 19.15325 -0.00831
C 20.89969 17.79184 -0.02957
C 19.63313 17.08073 -0.04422
C 19.66585 15.6214 0.00654
C 20.97201 13.51249 -0.04076
C 27.09883 15.62911 0.04185
C 22.11566 17.04287 -0.02845
C 23.34267 14.88945 0.02239
C 25.83303 14.96529 -0.00938
C 25.82609 13.5078 -0.0264
C 24.59198 12.79287 -0.01154
C 24.56573 7.06131 0.00684
C 25.81395 6.35296 -0.01052
C 25.81265 4.94324 -0.01679
C 24.59966 4.27107 0.00367
C 24.62304 2.83713 0.04306
C 25.81434 2.18423 0.00996
C 25.86478 0.74531 0.00195
C 24.55722 0.01641 -0.00802
C 27.06686 32.64988 -0.00218
C 27.02809 28.42015 -0.01654
C 28.29107 27.76267 -0.00037
C 28.30622 26.23794 -0.0032
C 27.03756 25.51827 0.00622
C 27.12746 24.13239 -0.02815
C 28.25828 23.45556 -0.00942
C 28.2895 22.01523 0.00487
C 27.04787 21.33456 0.00826
C 27.04784 19.86566 -0.00294
C 28.29388 19.10364 0.00152
C 28.23198 17.70705 0.01257
C 24.6392 15.62737 -0.00229
C 22.10564 15.58509 -0.03213
C 24.54715 17.05238 -0.01199
C 25.82345 19.15503 -0.00285
C 23.33811 13.47167 0.01153
C 22.13477 12.75589 0.02734
C 22.06379 7.00184 -0.0055
C 23.32518 6.42373 0.01515
C 23.35257 5.00635 -0.00225
C 22.14424 4.32835 0.00071
C 22.11782 2.74977 -0.01107
C 23.40429 2.13232 -0.01586
C 23.35335 0.7732 -0.01971
C 22.10812 34.07859 -0.02118
C 24.56353 32.71386 0.00733
C 25.86128 31.89388 -0.00178
C 25.80562 30.48214 0.00768
C 24.60777 29.8293 -0.0276
C 24.57386 28.40838 0.03005
C 25.81695 27.67213 -0.04078
C 25.85178 26.29014 0.02117
C 24.59862 25.56955 0.02737
C 24.634 24.19226 -0.00498
C 25.80915 23.42608 0.00135
C 25.77288 22.04832 0.03102
C 24.55611 21.25484 0.02555
C 24.55628 19.87074 0.01423
C 25.76769 17.74733 -0.009
C 2.46148 32.68782 -0.00012
