407
Graphene
C 0.0135 0.02751 0.01295
C 13.57443 30.50946 -0.02689
C 12.27344 29.88778 -0.01046
C 12.31763 28.43564 -0.00891
C 13.56752 27.67325 0.02819
C 13.5838 26.31142 0.00165
C 12.32551 25.60317 -0.02971
C 12.24947 24.1192 0.02894
C 13.47766 23.41534 -0.01789
C 13.4957 21.8947 0.00444
C 12.286 21.27228 -0.00925
C 12.36712 19.90521 0.01877
C 13.5694 19.12345 0.01363
C 13.56242 17.72373 -0.02162
C 12.33234 17.03692 0.00415
C 12.2791 15.703 -0.0014
C 13.53943 14.88339 0.02162
C 13.51207 13.40821 0.0076
C 12.23213 12.72949 0.01241
C 12.34162 11.27925 -0.01454
C 13.48624 10.63961 0.01945
C 13.49208 9.28407 0.01416
C 13.52743 31.89874 -0.01536
C 12.26427 32.70467 0.03101
C 9.73972 0.08345 -0.00428
C 11.07237 0.76384 -0.02245
C 9.86989 24.15927 0.01291
C 11.08645 23.44208 0.00093
C 11.09049 22.02377 0.00057
C 9.83379 21.33064 -0.01634
C 9.86259 19.88716 -0.00334
C 11.11208 19.21743 0.02339
C 11.09135 17.8511 0.01641
C 9.83149 17.07349 -0.00719
C 9.81498 15.69882 0.01364
C 11.09372 14.8836 -0.01062
C 12.30735 8.50783 0.03542
C 11.08599 13.52624 -0.00033
C 9.91696 11.34927 -0.02759
C 11.05457 10.58839 0.0402
C 11.04731 9.25071 0.00572
C 9.84016 8.49502 0.03592
C 9.76922 7.09046 0.00406
C 11.08784 6.38031 0.00943
C 11.1494 4.97526 0.02841
C 9.83678 4.29771 -0.01111
C 9.85335 2.87988 -0.01275
C 11.0217 2.22546 0.00985
C 9.81935 12.80616 0.03589
C 9.84075 25.50389 0.00438
C 12.32655 7.05916 0.02299
C 13.54368 5.01039 -0.01717
C 15.97032 10.62369 0.03505
C 15.96394 9.24289 -0.02815
C 14.73619 8.56323 -0.04147
C 14.78375 7.10213 -0.05302
C 16.04742 6.45836 0.00213
C 15.99912 4.93411 -0.00066
C 14.77875 4.25699 -0.00289
C 14.79085 2.83042 0.00028
C 16.03845 2.08757 -0.02213
C 15.93028 0.70247 0.03698
C 14.73453 34.05104 -0.00109
C 17.22925 32.59464 -0.00491
C 18.46813 31.91846 0.03338
C 18.43641 30.56245 -0.0258
C 17.16801 29.81292 -0.0331
C 17.15739 28.41667 -0.00316
C 18.37391 27.74415 0.02188
C 18.44087 26.31497 -0.01979
C 17.21078 25.5899 0.02691
C 17.25391 24.109 -0.01581
C 18.4594 23.41605 0.01452
C 14.77678 11.38732 0.01443
C 14.75772 12.80691 0.00979
C 16.03081 13.52256 -0.00481
C 15.99267 14.94683 0.00889
C 12.32048 4.20833 0.05265
C 12.26696 2.79885 -0.01952
C 13.52228 2.11256 -0.02813
C 13.56638 0.72073 0.00374
C 12.25764 0.01006 0.00052
C 14.73102 32.6536 -0.03682
C 15.94841 31.95675 0.01965
C 15.9705 30.5032 0.02058
C 14.70231 29.81332 -0.01957
C 14.75899 28.42433 -0.0108
C 13.58653 6.37102 0.00244
C 15.95573 27.68179 -0.00368
C 14.75493 25.50209 -0.00114
C 14.71116 24.12119 0.00228
C 15.99149 23.4116 0.00798
C 15.92808 21.99847 0.00422
C 14.77357 21.26116 0.0351
C 14.81012 19.87621 -0.03113
C 15.95835 19.20627 0.02098
C 16.00293 17.70523 0.01848
C 14.73931 17.04822 -0.00619
C 14.73286 15.644 -0.02162
C 15.99574 26.30224 -0.02696
C 18.46534 21.93837 0.04892
C 11.05751 26.29896 -0.00191
C 9.80431 28.43334 0.02147
C 2.43064 2.86297 0.02379
C 3.68682 2.16621 0.00907
C 3.67325 0.77794 0.00643
C 2.47021 34.04576 -0.01509
C 4.9322 32.68126 0.03267
C 6.18198 31.97402 0.02374
C 6.16889 30.55236 0.00402
C 4.86394 29.89706 0.0073
C 4.93177 28.43623 0.0174
C 6.13508 27.65549 0.03828
C 6.11643 26.25587 0.01226
C 4.86861 25.60037 -0.00279
C 4.95566 24.09676 0.01996
C 6.20914 23.4529 -0.03996
C 6.13588 21.99976 0.01465
C 4.99622 21.2744 -0.00074
C 4.93687 19.87063 -0.00518
C 6.1052 19.1524 0.0086
C 6.11749 17.83801 -0.00643
C 4.91518 17.06272 0.017
C 4.96573 15.60523 -0.03113
C 2.42684 4.29568 0.01402
C 3.734 4.96501 -0.003
C 3.65414 6.35467 0.00031
C 2.48231 7.0533 0.03189
C 3.60203 30.49798 -0.0059
C 2.43098 29.87767 -0.01386
C 2.41001 28.42753 -0.02805
C 3.66802 27.71225 0.00081
C 3.7021 26.32242 0.00245
C 2.4655 25.4829 0.02728
C 2.48516 24.15008 -0.00039
C 3.7102 23.46489 0.0064
C 3.69111 22.03374 0.00211
C 2.45076 21.28688 -0.00449
C 6.1105 14.85124 -0.02566
C 2.45306 19.85803 -0.01979
C 3.7092 17.75667 -0.01977
C 2.45637 17.00721 -0.00561
C 2.46494 15.64138 0.00208
C 3.70855 14.9919 0.01707
C 3.66253 13.5208 0.02769
C 2.53818 12.76596 -0.03291
C 2.53996 11.35017 -0.04999
C 3.72651 10.66446 0.04505
C 3.6422 9.10308 0.03284
C 2.42415 8.47463 -0.04307
C 3.64756 19.18147 0.02784
C 11.01789 27.65497 0.00373
C 6.13563 13.47655 -0.00094
C 4.90448 11.37724 -0.00725
C 7.35293 17.0614 -0.00095
C 7.38417 15.56449 0.01572
C 8.5728 14.94277 -0.04848
C 8.59429 13.51333 -0.00892
C 7.39265 12.80928 -0.01362
C 7.35664 11.36829 -0.0008
C 8.62395 10.66777 0.0288
C 8.64623 9.28191 0.00393
C 7.3796 8.54416 0.00895
C 7.3359 7.15605 0.00685
C 8.63952 6.37574 0.02888
C 8.61256 5.00789 -0.00482
C 7.36517 4.29158 -0.01384
C 7.40852 2.88272 0.03693
C 8.56887 2.21437 0.01745
C 8.55301 0.76639 0.00488
C 7.37275 0.01901 -0.01004
C 9.76777 32.696 -0.02896
C 11.07005 32.00479 -0.00131
C 11.0856 30.52265 -0.01118
C 9.85138 29.8012 -0.014
C 8.58333 17.78147 0.03007
C 8.59848 19.21227 0.00054
C 7.40039 19.8751 -0.00494
C 7.32193 21.28351 -0.00562
C 6.11037 10.69693 -0.05697
C 6.14494 9.21923 0.01087
C 4.93696 8.50239 -0.01343
C 4.85194 7.15204 0.00988
C 6.09808 6.44129 0.0276
C 6.19035 5.04691 0.01305
C 4.9397 4.23656 -0.00077
C 4.92049 2.86869 0.03368
C 6.11276 2.12215 -0.02929
C 6.14253 0.71164 -0.00966
C 4.88435 12.81215 0.02322
C 4.82023 0.00096 -0.03337
C 8.57162 31.96601 0.00873
C 8.58944 30.47851 -0.00049
C 7.39116 29.86086 0.00848
C 7.32906 28.40178 -0.01303
C 8.61676 27.74604 -0.01378
C 8.62765 26.23975 0.02635
C 7.38094 25.56178 0.0127
C 7.38091 24.16917 0.01396
C 8.65033 23.45009 0.01849
C 8.63872 22.07234 -0.01142
C 7.3693 32.66043 0.01227
C 3.67909 31.95722 0.00558
C 17.20206 21.29806 -0.00111
C 18.40031 19.22227 0.03754
C 29.55381 12.76215 -0.00971
C 29.53362 11.31999 0.01518
C 30.79029 10.61408 0.01908
C 30.73816 9.25259 0.07705
C 29.50104 8.54446 0.0103
C 29.52712 7.10428 0.02108
C 30.72253 6.37286 0.00716
C 30.73346 4.94296 0.00307
C 29.48805 4.28013 0.00346
C 29.54971 2.87624 0.01713
C 30.75172 2.05756 -0.01694
C 30.78287 0.66665 0.01428
C 29.54556 0.00465 -0.02142
C 31.97807 32.69403 0.0544
C 33.21172 31.91238 0.00026
C 33.13749 30.54358 0.00682
C 32.00902 29.764 -0.01779
C 31.93901 28.35342 0.03794
C 33.17316 27.70837 0.01927
C 33.18319 26.2498 0.01574
C 31.94336 25.59517 -0.02383
C 30.72645 13.51067 -0.03735
C 30.80874 14.86778 -0.00944
C 29.56904 25.55644 -0.02155
C 30.73761 26.3066 -0.01461
C 27.16463 15.5561 0.01799
C 28.22817 14.83652 0.01699
C 28.30125 13.48353 -0.00416
C 27.07792 12.75036 0.01177
C 27.02941 11.33693 0.04266
C 28.30139 10.62392 0.01324
C 28.27339 9.23504 0.0014
C 27.04978 8.51651 0.00924
C 27.08486 7.15682 0.02326
C 28.26398 6.38339 0.00261
C 32.02612 24.23103 -0.01429
C 28.23466 4.97545 0.03265
C 27.05132 2.8304 -0.01854
C 28.28148 2.13946 -0.01415
C 28.35668 0.76416 -0.03039
C 27.10701 34.06922 0.01836
C 29.4956 32.61461 0.03531
C 30.75022 31.97105 -0.00669
C 30.74944 30.54067 0.0101
C 29.54719 29.87544 0.01705
C 29.48131 28.32885 -0.0405
C 30.70498 27.6742 -0.01303
C 27.03917 4.23304 -0.02049
C 27.07665 24.11557 0.01259
C 33.11373 23.3857 -0.0136
C 33.16447 17.77435 -0.02474
C 1.2115 21.97662 0.02712
C 34.35904 21.28517 -0.02213
C 34.42745 19.80832 0.01951
C 1.21917 19.24134 -0.01678
C 1.23948 17.78727 0.01223
C 34.41765 17.0361 0.00648
C 34.42938 15.58715 0.02114
C 1.17957 14.88242 -0.02957
C 1.18102 13.49416 0.00343
C 0.01084 12.7851 -0.02656
C 0.02087 11.31458 -0.02442
C 1.23777 10.65867 -0.00027
C 1.18899 9.27447 -0.00583
C 34.42843 8.56006 -0.02302
C 34.41571 7.16288 -0.02849
C 1.1857 6.39097 0.02931
C 1.1829 4.9563 0.00628
C 34.42894 4.27405 -0.0345
C 0.02397 2.82486 -0.00931
C 1.26189 2.13629 -0.00939
C 1.22137 0.68497 -0.00468
C 1.19384 23.43134 0.00723
C 34.40995 24.17799 0.03076
C 34.41729 25.64352 -0.05239
C 1.24991 26.20613 -0.00598
C 31.95221 15.53395 0.00369
C 33.15515 14.88969 0.00455
C 33.20978 13.49135 -0.00644
C 32.00851 12.7856 -0.01839
C 31.9098 11.30171 0.00137
C 33.15376 10.63941 0.00199
C 33.20539 9.23678 0.04381
C 31.95734 8.47659 0.02806
C 31.92911 7.11292 0.01504
C 33.22488 6.36389 -0.00069
C 33.20918 22.01448 0.00594
C 33.23809 4.98722 0.04926
C 31.95551 2.83251 0.00349
C 33.22049 2.0641 -0.00323
C 33.18617 0.6725 -0.00841
C 31.94794 34.06128 0.0001
C 0.01112 32.65911 -0.02927
C 1.27021 31.93252 -0.01404
C 1.2168 30.56389 0.01027
C 34.34357 29.82447 0.01831
C 34.3669 28.3832 -0.01037
C 1.22974 27.61226 -0.00439
C 31.94131 4.27949 -0.03838
C 17.24191 19.86253 -0.03557
C 27.09129 25.54548 0.01495
C 28.20959 27.69402 0.01094
C 20.82968 19.10921 -0.01527
C 20.91828 17.70654 0.01087
C 19.69702 17.00702 0.00199
C 20.94585 14.87134 0.01511
C 20.90706 13.45447 -0.00478
C 19.69749 12.74537 -0.01662
C 19.65737 11.34333 -0.01185
C 20.96122 10.56184 0.01126
C 19.62602 2.77198 0.01852
C 20.88852 2.17919 -0.00381
C 20.9559 0.65275 0.03046
C 19.7615 34.04425 0.0296
C 22.10633 32.61198 0.03374
C 23.35936 31.92894 -0.02845
C 23.37818 30.53757 -0.03213
C 22.15272 29.82045 0.02239
C 22.18136 28.42196 0.01153
C 23.32395 27.66701 0.02734
C 23.35359 26.28152 -0.0055
C 22.17189 25.55088 0.01515
C 22.18029 24.16154 -0.00225
C 19.68771 19.90503 0.00096
C 19.68028 21.3163 0.01277
C 20.92921 21.93199 -0.02422
C 20.87878 23.43679 -0.01721
C 18.49096 17.74139 0.01739
C 17.19344 17.07568 0.00755
C 17.18114 15.62159 -0.0054
C 17.21305 12.80282 0.00667
C 17.20074 11.38522 0.00143
C 18.41476 10.6203 -0.017
C 17.26294 8.55526 0.00364
C 17.21342 7.23206 -0.00831
C 17.20779 4.22799 -0.02957
C 17.25625 2.91291 -0.04422
C 23.37712 23.44227 0.00071
C 18.4884 2.1157 0.00654
C 17.14397 34.02689 -0.04076
C 19.72428 32.68542 -0.00652
C 20.89214 31.9164 0.0058
C 21.03954 30.57007 -0.00865
C 19.66343 29.85733 0.00675
C 19.67386 28.3933 -0.00311
C 20.92567 27.66439 0.00742
C 20.83253 26.25721 -0.01594
C 19.61037 25.56719 0.0106
C 19.62838 24.13771 -0.01154
C 18.41289 0.68219 -0.00703
C 28.33528 26.22128 0.00235
C 23.29121 21.95413 -0.01107
C 22.13244 19.87152 -0.01971
C 24.55318 15.66767 0.00996
C 25.79223 14.90221 0.00195
C 25.79766 13.52384 -0.00802
C 24.58763 12.8081 -0.00218
C 24.60252 11.35611 -0.01654
C 25.81141 10.64638 -0.00037
C 25.85142 9.15044 -0.0032
C 24.58933 8.49659 0.00622
C 24.60368 7.05 -0.02815
C 25.82446 6.38956 -0.00942
C 25.89096 5.02584 0.00487
C 24.60289 4.26701 0.00826
C 24.53999 2.79801 -0.00294
C 25.81494 2.10602 0.00152
C 25.82705 0.73549 0.01257
C 24.55206 0.00354 0.02316
C 27.0665 32.63303 0.04185
C 28.33421 31.97584 0.00194
C 28.32374 30.55325 -0.00621
C 27.05538 29.83346 0.02611
C 27.03179 28.35061 0.02198
C 24.60409 17.09211 0.04306
C 24.57535 21.32502 0.00367
C 25.85684 23.43668 -0.01679
C 24.57014 24.08904 -0.01052
C 23.33136 19.15674 -0.02118
C 23.33942 17.74929 0.00733
C 22.14214 17.01758 -0.00178
C 22.11602 15.58268 0.00768
C 23.34568 14.98074 -0.0276
C 23.39971 13.54158 0.03005
C 22.08923 12.76534 -0.04078
C 22.1336 11.32888 0.02117
C 23.37746 10.68423 0.02737
C 23.42209 9.33476 -0.00498
C 22.1338 21.26303 -0.01586
C 22.128 2.79059 0.00135
C 23.4256 0.69681 0.02555
C 22.10795 0.03616 0.01423
C 24.61075 32.66135 -0.00285
C 25.83943 31.97443 -0.009
C 25.83063 30.50297 -0.01199
C 24.5997 29.75814 -0.00229
C 24.54714 28.36865 -0.00938
C 25.86966 27.6881 -0.0264
C 25.81747 26.2494 -0.01154
C 24.54537 25.58037 0.00684
C 23.34727 2.11254 0.03102
C 2.41767 32.68507 -0.02375
