439
Graphene
C 0.04134 34.07311 0.01295
C 12.32302 19.90079 -0.00334
C 13.51665 19.27978 0.02339
C 13.4771 17.78524 0.01641
C 12.23433 17.07271 -0.00719
C 12.34225 15.69763 0.01364
C 13.60628 14.98387 -0.01062
C 13.4775 13.51046 -0.00033
C 12.20218 12.89304 0.03589
C 12.21506 11.36741 -0.02759
C 13.41805 10.62059 0.0402
C 13.51614 9.25068 0.00572
C 12.27704 8.51279 0.03592
C 12.29996 7.10329 0.00406
C 13.57668 6.35272 0.00943
C 13.48506 4.9496 0.02841
C 12.24115 4.26238 -0.01111
C 12.25653 2.83356 -0.01275
C 13.48353 2.15278 0.00985
C 13.57676 0.65076 -0.02245
C 12.26439 34.04476 -0.00428
C 14.73319 32.66828 0.03101
C 16.02437 31.8876 -0.01536
C 15.91797 30.57552 -0.02689
C 12.24198 21.36394 -0.01634
C 13.46464 22.11359 0.00057
C 13.50782 23.46559 0.00093
C 12.28633 24.19133 0.01291
C 9.86692 15.68183 0.01572
C 11.02132 14.92583 -0.04848
C 11.01546 13.50631 -0.00892
C 9.83663 12.76624 -0.01362
C 9.78998 11.35885 -0.0008
C 11.08287 10.61599 0.0288
C 11.05561 9.26264 0.00393
C 9.84329 8.54446 0.00895
C 9.84858 7.1609 0.00685
C 11.09035 6.41864 0.02888
C 11.1006 4.95236 -0.00482
C 14.71684 29.80553 -0.01046
C 9.83793 4.31261 -0.01384
C 11.03019 2.13733 0.01745
C 11.02229 0.69375 0.00488
C 9.8378 0.02781 -0.01004
C 12.27674 32.66733 -0.02896
C 13.46371 31.97749 -0.00131
C 13.51932 30.55655 -0.01118
C 12.28374 29.85071 -0.014
C 12.30193 28.46063 0.02147
C 13.51466 27.74485 0.00373
C 13.52408 26.3472 -0.00191
C 12.32781 25.59616 0.00438
C 9.78513 2.87211 0.03693
C 9.82041 17.0475 -0.00095
C 14.74818 28.48311 -0.00891
C 15.99614 26.28963 0.00165
C 18.41073 27.72893 -0.01957
C 18.43536 26.24957 -0.0108
C 17.23943 25.57025 -0.00368
C 17.26217 24.08073 -0.02696
C 18.44215 23.23038 -0.00114
C 18.45213 21.59339 0.00228
C 17.12259 21.20328 0.00798
C 18.36461 14.92543 0.00422
C 18.39344 13.45572 0.0351
C 17.15571 12.77774 -0.03113
C 17.12638 11.34451 0.02098
C 18.38819 10.67127 0.01848
C 18.32359 9.26601 -0.00619
C 17.14623 8.53645 -0.02162
C 17.16294 7.1228 0.00889
C 18.3788 6.39781 -0.00481
C 18.40415 5.00669 0.00979
C 17.18194 4.32543 0.01443
C 17.19363 2.88697 0.03505
C 18.40742 2.09141 -0.02815
C 18.42657 0.7274 -0.04147
C 17.15409 0.06855 -0.05302
C 19.66311 32.68302 0.00213
C 17.11958 28.36857 0.02058
C 17.17764 29.8195 0.01965
C 18.35584 30.54501 -0.03682
C 18.40061 32.0195 0.00052
C 14.72077 25.63901 -0.02971
C 14.7793 24.1423 0.02894
C 15.98077 23.42494 -0.01789
C 15.94571 22.02686 0.00444
C 14.65781 21.3639 -0.00925
C 14.76599 19.94423 0.01877
C 14.72008 17.0368 0.01363
C 14.90799 15.67415 -0.02162
C 16.13726 14.90323 0.00415
C 15.93224 13.52471 -0.0014
C 14.74467 12.71906 0.02162
C 15.96849 27.70326 0.02819
C 14.65449 11.38024 0.0076
C 15.99385 9.24622 -0.01454
C 14.74153 8.53844 0.01945
C 14.80472 7.08521 0.01416
C 16.04509 6.41232 0.03542
C 15.98276 4.90735 0.02299
C 14.77042 4.20083 0.00244
C 14.80361 2.81198 -0.01717
C 16.0068 2.12757 0.05265
C 15.92431 0.76631 -0.01952
C 14.74923 0.02567 -0.02813
C 17.21122 32.71148 0.00374
C 15.94206 10.70712 0.01241
C 20.94296 32.06499 -0.00066
C 11.03728 17.82069 0.03007
C 9.75164 19.9494 -0.00494
C 3.71936 0.76678 0.00088
C 2.46266 0.00942 0.00828
C 4.93858 32.63424 -0.02375
C 6.10376 31.95245 0.00558
C 6.15613 30.50026 -0.0059
C 4.98271 29.82818 -0.01386
C 4.92454 28.39874 -0.02805
C 6.17546 27.67112 0.00081
C 6.17611 26.30425 0.00245
C 4.93521 25.53884 0.02728
C 4.88869 24.19257 -0.00039
C 6.18667 23.42761 0.0064
C 6.08461 22.00425 0.00211
C 4.8443 21.29815 -0.00449
C 4.87125 19.81371 -0.01979
C 6.05895 19.16311 0.02784
C 6.11493 17.80133 -0.01977
C 4.83687 16.96154 -0.00561
C 4.8485 15.62532 0.00208
C 6.04834 14.90903 0.01707
C 6.057 13.44631 0.02769
C 4.83146 12.88571 -0.03291
C 4.79347 11.40297 -0.04999
C 3.74052 2.16964 0.04421
C 2.49641 2.85389 -0.00177
C 2.49285 4.27841 0.03278
C 3.70611 5.0098 0.01138
C 3.71824 30.46702 -0.0005
C 2.47079 29.83549 -0.00018
C 2.48011 28.43305 0.01073
C 3.68688 27.68939 0.01984
C 3.69835 26.2862 0.00535
C 2.44182 25.60173 -0.00198
C 2.40523 24.1395 -0.00012
C 3.68756 23.43397 -0.04306
C 3.68505 22.00936 -0.03672
C 2.47354 21.33558 0.01913
C 2.43261 19.85591 0.00267
C 6.06458 10.81934 0.04505
C 3.58247 19.14078 0.00787
C 2.39577 16.96395 0.01218
C 2.41802 15.58872 -0.01471
C 3.58728 14.88787 -0.02827
C 3.54517 13.47395 0.01078
C 2.38376 12.72626 -0.00112
C 2.43279 11.38013 0.03345
C 3.65812 10.66652 0.00748
C 3.70753 9.26936 0.00662
C 2.42825 8.52423 -0.0154
C 2.48395 7.16971 -0.01299
C 3.71016 6.45246 -0.00407
C 3.66125 17.72895 0.02426
C 11.00786 19.25632 0.00054
C 6.20869 9.36895 0.03284
C 4.9253 7.16977 0.03189
C 8.53149 10.69304 -0.05697
C 8.61245 9.32127 0.01087
C 7.3831 8.61594 -0.01343
C 7.42291 7.14263 0.00988
C 8.67892 6.4264 0.0276
C 8.63442 4.9946 0.01305
C 7.43696 4.40665 -0.00077
C 7.36159 2.94129 0.03368
C 8.57094 2.23072 -0.02929
C 8.58579 0.83184 -0.00966
C 7.36409 0.02966 -0.03337
C 9.74115 32.70157 0.01227
C 10.93428 31.92098 0.00873
C 11.05821 30.5644 -0.00049
C 9.83576 29.90172 0.00848
C 9.87429 28.49698 -0.01303
C 11.08512 27.79745 -0.01378
C 11.07402 26.29971 0.02635
C 9.88153 25.63845 0.0127
C 9.82906 24.1456 0.01396
C 11.01628 23.53054 0.01849
C 11.07384 22.08636 -0.01142
C 9.83484 21.33819 -0.00562
C 7.33522 11.46589 -0.00725
C 7.3197 12.84129 0.02322
C 8.5603 13.60615 -0.00094
C 8.5901 15.0019 -0.02566
C 6.19835 6.50823 0.00031
C 6.1626 5.09755 -0.003
C 4.97691 4.41741 0.01402
C 4.89984 2.92968 0.02379
C 6.11491 2.19732 0.00907
C 6.14903 0.72942 0.00643
C 4.93709 34.04513 -0.01509
C 7.34531 32.68554 0.03267
C 8.50577 31.98617 0.02374
C 8.52207 30.61379 0.00402
C 7.31518 29.83438 0.0073
C 4.88277 8.59731 -0.04307
C 7.37826 28.38821 0.0174
C 8.57881 26.2787 0.01226
C 7.41274 25.56495 -0.00279
C 7.39524 24.20012 0.01996
C 8.65332 23.47005 -0.03996
C 8.55379 22.04257 0.01465
C 7.30386 21.33298 -0.00074
C 7.35691 19.91831 -0.00518
C 8.57818 19.14926 0.0086
C 8.63093 17.73409 -0.00643
C 7.28134 17.03666 0.017
C 7.34174 15.64041 -0.03113
C 8.65628 27.72544 0.03828
C 3.73 31.9637 0.01116
C 20.86904 30.56037 -0.00289
C 19.57653 28.38795 -0.02213
C 30.74624 14.85421 -0.0405
C 30.72441 13.46063 -0.01303
C 29.51053 12.74569 -0.01461
C 29.45963 11.19848 -0.02155
C 30.72191 10.58114 -0.00944
C 30.76032 9.14153 -0.03735
C 29.47951 8.42822 -0.00971
C 29.54203 7.01365 0.01518
C 30.7348 6.32168 0.01908
C 30.77658 4.87764 0.07705
C 29.49907 4.15724 0.0103
C 29.5295 2.84533 0.02108
C 30.76215 2.09709 0.00716
C 30.73344 0.64142 0.00307
C 29.52027 34.02196 0.00346
C 32.02536 32.66278 0.01713
C 33.22423 31.93919 -0.01694
C 33.18261 30.59757 0.01428
C 31.95464 29.82666 -0.02142
C 31.98159 28.47552 0.0544
C 33.14489 27.79219 0.00026
C 33.15527 26.3063 0.00682
C 31.8855 25.55362 -0.01779
C 29.47509 15.61093 0.01705
C 29.47759 17.00713 0.0101
C 30.68085 17.6841 -0.00669
C 30.6854 19.16923 0.03531
C 28.25405 10.54042 0.00194
C 28.24717 9.20716 -0.00621
C 26.97717 8.43961 0.02611
C 27.06126 7.08803 0.02198
C 28.30089 6.27451 0.01094
C 28.37631 4.8954 0.00235
C 27.0287 4.2186 0.01495
C 27.05265 2.8625 0.01259
C 28.30803 2.11802 0.01799
C 28.27874 0.69911 0.01699
C 27.0057 34.04578 -0.00416
C 31.91343 24.19881 0.03794
C 29.50375 32.65897 0.01177
C 30.78864 30.57094 0.01324
C 29.48168 29.87044 0.0014
C 29.48586 28.37917 0.00924
C 30.68873 27.72257 0.02326
C 30.68371 26.3407 0.00261
C 29.48865 25.58469 0.03265
C 29.5406 24.19197 -0.02049
C 30.66494 23.42946 -0.01854
C 30.66535 21.97912 -0.01415
C 29.40505 21.30941 -0.03039
C 29.42971 19.83762 0.01836
C 30.74955 31.99394 0.04266
C 27.03073 11.30333 0.04185
C 33.1735 23.46749 0.01927
C 31.98531 21.31044 -0.02383
C 34.3961 24.115 0.03076
C 1.21217 23.39954 0.00723
C 1.23276 21.97511 0.02712
C 34.39065 21.33676 -0.02213
C 34.34269 19.82354 0.01951
C 1.20048 19.20572 -0.01678
C 1.11426 17.7149 0.01223
C 34.30536 16.94151 0.00648
C 34.35323 15.49868 0.02114
C 1.10648 14.85719 -0.02957
C 1.11453 13.48219 0.00343
C 34.41806 12.71467 -0.02656
C 34.4166 11.24423 -0.02442
C 1.21938 10.64373 -0.00027
C 1.21502 9.16312 -0.00583
C 0.02161 8.41496 -0.02302
C 0.05402 7.04596 -0.02849
C 1.27568 6.41851 0.02931
C 1.30979 4.97091 0.00628
C 0.02732 4.25285 -0.0345
C 0.08052 2.82226 -0.00931
C 1.30837 2.12983 -0.00939
C 1.28506 0.7223 -0.00468
C 34.39993 25.62932 -0.05239
C 1.159 26.26231 -0.00598
C 1.16055 27.71194 -0.00439
C 34.39891 28.44912 -0.01037
C 31.87797 19.90619 -0.01429
C 33.12122 19.12236 -0.0136
C 33.13642 17.72363 0.00594
C 31.84778 17.03819 -0.02474
C 31.87178 15.54177 0.00369
C 33.11451 14.80396 0.00455
C 33.18427 13.40129 -0.00644
C 31.98498 12.70547 -0.01839
C 31.97399 11.27529 0.00137
C 33.18723 10.59562 0.00199
C 33.22919 9.16442 0.04381
C 33.22087 21.98635 0.01574
C 31.98703 8.41354 0.02806
C 33.2063 6.33478 -0.00069
C 33.23851 4.8589 0.04926
C 32.02313 4.2111 -0.03838
C 31.98882 2.77312 0.00349
C 33.28458 2.07983 -0.00323
C 33.23485 0.64615 -0.00841
C 31.98885 34.03168 0.0001
C 0.0698 32.65876 -0.02927
C 1.24424 31.92635 -0.01404
C 1.22765 30.55225 0.01027
C 0.01299 29.89124 0.01831
C 32.02059 7.01083 0.01504
C 19.66042 29.84009 0.00028
C 27.05743 12.72738 0.02316
C 28.23115 14.86665 0.00152
C 22.11366 29.84144 -0.04076
C 22.17589 28.44711 -0.00652
C 23.33986 27.73114 0.0058
C 23.29592 26.23924 -0.00865
C 22.09122 25.61255 0.00675
C 22.01166 24.21547 -0.00311
C 23.27442 23.47845 0.00742
C 23.30118 22.05762 -0.01594
C 22.07297 21.30837 0.0106
C 22.03142 19.86364 -0.01154
C 23.29675 19.2558 -0.01721
C 23.28247 17.78858 -0.02422
C 22.04141 17.05324 0.01277
C 22.05964 15.63006 0.00096
C 23.34454 14.91363 -0.01527
C 23.28571 13.4223 0.01087
C 22.14707 12.81482 0.00199
C 22.0428 11.39486 0.01511
C 23.32394 10.65641 -0.00478
C 23.32495 9.23756 -0.01662
C 22.02231 8.57155 -0.01185
C 22.01671 7.15862 0.01126
C 23.28625 6.41345 0.01852
C 23.33037 30.52421 -0.00703
C 23.37666 31.93065 0.00654
C 22.10489 32.69253 -0.04422
C 19.68043 0.02429 -0.02957
C 20.87089 27.73157 0.03698
C 20.87295 26.27709 -0.00109
C 19.62332 25.57402 -0.00491
C 19.56638 24.07337 0.03338
C 20.81688 23.36894 -0.0258
C 20.85059 21.92319 -0.0331
C 19.75531 21.01371 -0.00316
C 20.81855 19.21789 0.02188
C 20.80038 17.78845 -0.01979
C 19.64893 15.59707 0.02691
C 20.96449 15.0006 -0.01581
C 23.32897 5.01588 -0.00381
C 20.81975 13.51311 0.01452
C 19.62546 11.42475 -0.00111
C 20.84044 10.73411 -0.03557
C 20.84567 9.29137 0.03754
C 19.64976 8.57399 0.01739
C 19.61296 7.21475 0.00755
C 20.84964 6.50205 -0.0054
C 20.91881 5.03865 0.00667
C 19.62421 4.22958 0.00143
C 19.61174 2.83904 -0.017
C 20.87606 2.12783 0.00364
C 20.90485 0.67926 -0.00831
C 19.62164 12.86857 0.04892
C 28.26076 13.46922 0.01257
C 22.13615 4.28994 0.03046
C 23.30284 2.1166 0.03374
C 25.81625 4.92838 -0.01199
C 24.54174 4.30795 -0.00229
C 24.56296 2.83967 -0.00938
C 25.81911 2.15432 -0.0264
C 25.76183 0.67798 -0.01154
C 24.50396 34.0762 0.00684
C 27.03138 32.69206 -0.01052
C 28.23625 31.95225 -0.01679
C 28.23549 30.53759 0.00367
C 27.07188 29.79774 0.04306
C 27.03898 28.37786 0.00996
C 28.28707 27.63705 0.00195
C 28.21993 26.26988 -0.00802
C 26.98822 25.54547 -0.00218
C 27.03097 24.10393 -0.01654
C 28.2467 23.45444 -0.00037
C 28.2808 22.05553 -0.0032
C 26.99225 21.26208 0.00622
C 27.01924 19.90413 -0.02815
C 28.2611 19.13046 -0.00942
C 28.21343 17.75807 0.00487
C 27.07274 17.07755 0.00826
C 27.00248 15.63341 -0.00294
C 25.80914 6.3837 -0.009
C 24.54817 7.13284 -0.00285
C 24.55007 8.56155 0.01423
C 25.75844 9.14941 0.02555
C 23.3017 0.69967 -0.02845
C 22.13837 0.03632 -0.03213
C 24.55493 32.64138 0.02239
C 25.79668 31.96181 0.01153
C 25.83553 30.49831 0.02734
C 24.60095 29.81046 -0.0055
C 24.60147 28.41629 0.01515
C 25.78185 27.66417 -0.00225
C 25.77915 26.22788 0.00071
C 24.5781 25.6121 -0.01107
C 24.54482 24.18135 -0.01586
C 22.07651 2.90812 0.0296
C 25.76408 23.44248 -0.01971
C 24.47732 21.37541 0.00733
C 24.51758 19.85169 -0.00178
C 25.77804 19.18319 0.00768
C 25.77444 17.78864 -0.0276
C 24.56846 17.0581 0.03005
C 24.68674 15.64009 -0.04078
C 25.89865 14.86995 0.02117
C 25.83933 13.48013 0.02737
C 24.52462 12.74113 -0.00498
C 24.59467 11.32528 0.00135
C 25.75281 10.6476 0.03102
C 25.71856 22.07564 -0.02118
C 2.53546 32.66542 -0.0213
