348
Graphene
C 34.42464 0.08457 0.01295
C 9.91796 17.02991 0.00422
C 9.83229 15.63518 0.0351
C 11.16161 14.96381 -0.03113
C 11.16443 13.527 0.02098
C 9.8545 12.83546 0.01848
C 9.90245 11.29901 -0.00619
C 11.17109 10.66608 -0.02162
C 11.16005 9.30804 0.00889
C 9.8333 8.54073 -0.00481
C 9.8247 7.13743 0.00979
C 11.09776 6.42386 0.01443
C 11.06828 4.96522 0.03505
C 9.86825 4.2684 -0.02815
C 9.90974 2.87298 -0.04147
C 11.09998 2.1913 -0.05302
C 11.18339 0.6928 0.00213
C 9.96544 0.00265 -0.00066
C 11.08318 17.80924 0.00798
C 11.04481 19.16373 0.00228
C 9.84276 19.82894 -0.00114
C 9.81684 21.31079 -0.02696
C 8.56757 6.39001 -0.01454
C 8.63625 5.01185 0.01945
C 7.37762 4.28566 0.01416
C 7.41461 2.82794 0.03542
C 8.68014 2.15064 0.02299
C 8.60598 0.74676 0.00244
C 7.31633 34.06936 -0.01717
C 9.94465 32.71126 0.05265
C 12.41281 32.62628 -0.00289
C 11.18223 31.93905 -0.01952
C 9.84505 29.83181 0.00374
C 9.77207 28.44573 0.00052
C 10.96513 27.80959 -0.03682
C 10.95734 26.33863 0.01965
C 9.70612 25.57241 0.02058
C 9.71639 24.16139 -0.01957
C 10.92439 23.41528 -0.0108
C 10.98397 22.01355 -0.00368
C 11.06143 30.5549 -0.02813
C 13.73168 31.84542 0.00028
C 13.64474 30.32701 -0.02213
C 12.33465 29.77448 0.03698
C 12.43201 2.87199 -0.00831
C 13.57161 2.07189 -0.02957
C 13.60787 0.63143 -0.04422
C 12.34526 0.01215 0.00654
C 14.92018 32.57606 -0.00703
C 16.30607 31.80183 -0.04076
C 16.05366 30.43021 -0.00652
C 14.97183 29.54714 0.0058
C 12.36244 4.28706 0.00364
C 14.93082 28.04183 -0.00865
C 14.5358 25.55892 -0.00311
C 14.56199 24.18395 0.00742
C 15.80129 23.53359 -0.01594
C 15.86453 22.04644 0.0106
C 14.64583 21.30364 -0.01154
C 14.63737 7.27951 -0.01721
C 16.13297 5.00891 -0.02422
C 14.8954 4.24709 0.01277
C 15.6216 26.59018 0.00675
C 7.34015 7.14194 0.01241
C 13.68171 4.90712 -0.017
C 12.30328 6.998 0.00667
C 12.2759 28.2967 -0.00109
C 13.5407 27.59519 -0.00491
C 13.31996 26.21993 0.03338
C 12.12804 25.56427 -0.0258
C 12.09092 24.0497 -0.0331
C 13.36964 23.39595 -0.00316
C 13.49137 21.96785 0.02188
C 12.28175 21.26175 -0.01979
C 13.57695 6.33987 0.00143
C 12.19168 19.91977 0.02691
C 12.51793 15.81263 0.01452
C 13.42704 14.91488 0.04892
C 13.49402 13.58686 -0.00111
C 12.38303 12.77277 -0.03557
C 12.39311 11.31375 0.03754
C 13.39606 10.32536 0.01739
C 13.69826 9.09018 0.00755
C 12.32851 8.42687 -0.0054
C 12.37806 17.10061 -0.01581
C 14.80475 2.75544 0.00096
C 7.41297 8.55444 0.0076
C 8.55345 10.67339 -0.0014
C 2.44266 7.13888 -0.01362
C 3.74241 6.455 -0.0008
C 3.72213 5.04567 0.0288
C 2.51644 4.39534 0.00393
C 2.44318 2.96147 0.00895
C 3.68593 2.12592 0.00685
C 3.65494 0.73864 0.02888
C 2.35541 0.05729 -0.00482
C 4.91198 32.67436 -0.01384
C 6.14637 32.01193 0.03693
C 6.14119 30.64573 0.01745
C 4.93601 29.90348 0.00488
C 4.89432 28.41991 -0.01004
C 6.09696 27.76568 -0.02896
C 6.14037 26.2981 -0.00131
C 4.91385 25.61645 -0.01118
C 4.83522 24.1021 -0.014
C 2.50888 8.55931 -0.00892
C 3.72532 9.21016 -0.04848
C 3.62382 10.7107 0.01572
C 2.43862 11.40474 -0.00095
C 3.72959 30.55454 -0.02929
C 2.47369 29.90428 -0.00966
C 2.46671 28.49062 -0.03337
C 3.66274 27.7839 0.01227
C 3.63967 26.31546 0.00873
C 2.39952 25.60259 -0.00049
C 2.38781 24.12567 0.00848
C 3.57966 23.49032 -0.01303
C 6.07793 23.36935 0.02147
C 3.63252 21.99916 -0.01378
C 2.42934 19.89625 0.0127
C 3.68929 19.16593 0.01396
C 3.66108 17.84105 0.01849
C 2.43285 17.15892 -0.01142
C 2.48474 15.69278 -0.00562
C 3.60846 14.93461 -0.00494
C 3.65974 13.49412 0.00054
C 2.44476 12.75752 0.03007
C 2.35567 21.29742 0.02635
C 6.06561 21.97489 0.00373
C 4.88607 21.36265 -0.00191
C 4.93535 19.89814 0.00438
C 7.32859 29.90153 -0.02245
C 7.30588 28.53897 -0.00428
C 8.47914 27.74409 0.03101
C 8.45215 26.26414 -0.01536
C 7.26116 25.51947 -0.02689
C 7.25785 24.15087 -0.01046
C 8.48022 23.52208 -0.00891
C 8.53866 22.0447 0.02819
C 8.64495 30.57782 0.00985
C 7.37522 21.32335 0.00165
C 8.61069 19.17076 0.02894
C 8.60293 17.77887 -0.01789
C 7.43064 17.01314 0.00444
C 7.35319 15.57536 -0.00925
C 8.62555 14.90186 0.01877
C 8.58946 13.49016 0.01363
C 7.31525 12.88006 -0.02162
C 7.26677 11.44955 0.00415
C 7.31786 19.88651 -0.02971
C 8.55038 9.25757 0.02162
C 8.58506 31.99356 -0.01275
C 4.83502 0.00577 0.02841
C 6.14053 19.18127 0.01291
C 6.19318 17.76342 0.00093
C 4.98669 17.02255 0.00057
C 4.88256 15.64172 -0.01634
C 6.13582 14.94101 -0.00334
C 6.10475 13.53822 0.02339
C 4.85426 12.87242 0.01641
C 4.85064 11.39506 -0.00719
C 7.36919 32.76526 -0.01111
C 6.13877 10.71904 0.01364
C 4.962 8.5575 -0.00033
C 4.99402 7.09155 0.03589
C 6.15913 6.43414 -0.02759
C 6.17088 4.92509 0.0402
C 4.92522 4.16313 0.00572
C 4.89183 2.79524 0.03592
C 6.15002 2.08769 0.00406
C 6.11709 0.71278 0.00943
C 6.16379 9.22789 -0.01062
C 15.99786 2.06669 -0.01527
C 16.11627 0.66228 0.01087
C 14.87037 33.9752 0.00199
C 33.13367 30.63133 0.01428
C 31.89402 29.88813 -0.02142
C 31.92065 28.4712 0.0544
C 33.0959 27.78511 0.00026
C 33.14471 26.40951 0.00682
C 31.97823 25.54711 -0.01779
C 31.92711 24.1762 0.03794
C 33.06958 23.46062 0.01927
C 33.09335 21.98138 0.01574
C 31.87665 21.33688 -0.02383
C 31.85684 19.82735 -0.01429
C 33.07054 19.16117 -0.0136
C 33.06387 17.69886 0.00594
C 31.87 16.9151 -0.02474
C 31.91128 15.47887 0.00369
C 33.19404 14.92046 0.00455
C 33.24467 13.49738 -0.00644
C 33.19878 31.99714 -0.01694
C 31.90663 32.74964 0.01713
C 29.37145 34.0736 0.00346
C 30.68362 0.68806 0.00307
C 30.67751 21.99897 0.01836
C 29.47503 21.36236 0.03531
C 29.46726 19.94417 -0.00669
C 30.64573 19.0897 0.0101
C 30.60428 17.67383 0.01705
C 29.38953 16.98195 -0.0405
C 29.49022 15.61695 -0.01303
C 30.58904 14.78037 -0.01461
C 31.95597 12.84504 -0.01839
C 30.81838 13.43944 -0.02155
C 30.59953 9.39586 -0.03735
C 29.50474 8.48537 -0.00971
C 29.63186 7.17459 0.01518
C 30.7927 6.34903 0.01908
C 30.73218 4.94074 0.07705
C 29.47378 4.28922 0.0103
C 29.53851 2.82349 0.02108
C 30.75602 2.0992 0.00716
C 30.77636 10.70185 -0.00944
C 31.9352 11.33518 0.00137
C 33.17496 10.72065 0.00199
C 33.10236 9.32029 0.04381
C 1.11865 19.24402 -0.01678
C 1.1753 17.77112 0.01223
C 34.3194 17.10861 0.00648
C 34.42853 15.72532 0.02114
C 1.17589 15.02628 -0.02957
C 1.24473 13.55795 0.00343
C 34.40802 12.72735 -0.02656
C 34.41097 11.41928 -0.02442
C 34.30024 19.86029 0.01951
C 1.23548 10.67428 -0.00027
C 34.36715 8.54153 -0.02302
C 34.36073 7.18184 -0.02849
C 1.20628 6.43422 0.02931
C 1.21929 4.99489 0.00628
C 0.04161 4.27825 -0.0345
C 0.07527 2.88612 -0.00931
C 1.21293 2.26756 -0.00939
C 1.25003 0.83915 -0.00468
C 1.23204 9.262 -0.00583
C 30.704 23.41952 -0.03039
C 34.36768 21.31675 -0.02213
C 1.19086 23.46211 0.00723
C 31.93551 8.60184 0.02806
C 31.89886 7.16843 0.01504
C 33.15105 6.42896 -0.00069
C 33.20863 4.93017 0.04926
C 31.9672 4.28208 -0.03838
C 32.03339 2.79834 0.00349
C 33.25111 2.14636 -0.00323
C 33.16706 0.73802 -0.00841
C 1.11957 22.06753 0.02712
C 31.93022 0.05925 0.0001
C 1.16804 32.01268 -0.01404
C 1.23755 30.62588 0.01027
C 34.40208 29.86146 0.01831
C 34.41117 28.43172 -0.01037
C 1.22463 27.76638 -0.00439
C 1.23014 26.37019 -0.00598
C 34.41969 25.63573 -0.05239
C 34.37882 24.1683 0.03076
C 34.40801 32.74521 -0.02927
C 29.52744 24.16081 -0.01415
C 29.49542 25.59277 -0.01854
C 30.77522 26.2725 -0.02049
C 22.02135 32.66293 -0.02118
C 23.1048 31.84641 0.00733
C 23.21807 30.4469 -0.00178
C 23.54425 26.56629 0.00768
C 22.35832 25.80994 -0.0276
C 22.15108 24.31285 0.03005
C 23.34528 23.45163 -0.04078
C 23.33508 21.99423 0.02117
C 19.59915 0.05575 -0.01971
C 22.07495 21.30807 0.02737
C 23.31217 19.12573 0.00135
C 22.01998 2.7999 0.03102
C 23.29391 2.25311 0.02555
C 23.27029 0.72211 0.01423
C 22.05219 0.066 -0.00285
C 24.30571 32.67663 -0.009
C 25.56803 31.88334 -0.01199
C 25.64216 30.47555 -0.00229
C 22.14615 19.62588 -0.00498
C 24.24181 29.5566 -0.00938
C 20.78542 0.76327 -0.01586
C 19.56954 2.97774 0.00071
C 17.61321 32.59061 0.01511
C 16.86284 25.95868 -0.00478
C 17.04526 24.53823 -0.01662
C 18.3518 23.85688 -0.01185
C 18.3114 22.0622 0.01126
C 17.15528 21.49993 0.01852
C 17.06397 4.26821 -0.00381
C 17.16491 2.77284 0.03046
C 20.79614 2.26333 -0.01107
C 18.42008 2.22508 0.0296
C 17.33268 34.00929 -0.02845
C 19.27448 32.61754 -0.03213
C 19.58459 24.15074 0.02239
C 20.87952 23.65343 0.01153
C 20.86521 22.07217 0.02734
C 19.5538 21.38165 -0.0055
C 19.66712 19.98163 0.01515
C 20.85115 19.28049 -0.00225
C 18.46589 0.79236 0.03374
C 3.59837 31.93999 0.03368
C 24.30293 28.11363 -0.0264
C 25.82234 26.1023 0.00684
C 28.20586 22.0902 -0.00621
C 26.99761 21.27696 0.02611
C 26.97373 19.84879 0.02198
C 28.22238 19.21233 0.01094
C 28.25302 17.77046 0.00235
C 26.91559 17.14412 0.01495
C 28.16457 4.8878 0.01259
C 27.17497 4.2786 0.01799
C 28.25772 23.42937 0.00194
C 26.9296 2.8686 0.01699
C 28.13237 0.69733 0.01177
C 26.8909 0.00979 0.04266
C 29.42816 32.67551 0.01324
C 30.58611 32.00611 0.0014
C 30.64069 30.56912 0.00924
C 29.39422 29.907 0.02326
C 29.42154 28.44964 0.00261
C 30.7085 27.76013 0.03265
C 28.21741 2.11853 -0.00416
C 25.73115 27.64156 -0.01154
C 27.03213 24.10664 0.04185
C 28.30247 26.3261 0.01257
C 24.64482 25.50491 -0.01052
C 24.59606 24.14163 -0.01679
C 25.79771 23.38729 0.00367
C 25.68444 21.97697 0.04306
C 24.55816 21.1097 0.00996
C 24.53277 19.72638 0.00195
C 25.75066 19.14263 -0.00802
C 25.82533 17.75602 -0.00218
C 27.03068 25.48345 0.02316
C 24.5695 2.87427 -0.01654
C 25.73053 0.78117 -0.0032
C 24.4402 0.02673 0.00622
C 26.7924 32.65184 -0.02815
C 28.06271 32.04726 -0.00942
C 28.13579 30.56737 0.00487
C 26.93916 29.82654 0.00826
C 26.90764 28.38853 -0.00294
C 28.20599 27.75016 0.00152
C 25.76268 2.14767 -0.00037
C 2.46165 32.72795 -0.00077
