433
Graphene
C 0.02819 0.01594 0.01295
C 13.57914 22.02367 0.01364
C 12.2708 21.34332 -0.01062
C 12.28853 19.94122 -0.00033
C 13.53141 19.17268 0.03589
C 13.57218 17.77041 -0.02759
C 12.31268 17.07209 0.0402
C 12.28202 15.62528 0.00572
C 13.41905 14.86319 0.03592
C 13.52355 13.41134 0.00406
C 12.28109 12.7723 0.00943
C 12.34692 11.33174 0.02841
C 13.59834 10.66253 -0.01111
C 13.58808 9.18442 -0.01275
C 12.36809 8.55142 0.00985
C 12.29218 7.14535 -0.02245
C 13.52268 6.34348 -0.00428
C 13.44036 4.89074 0.03101
C 12.22514 4.16404 -0.01536
C 12.28031 2.75663 -0.02689
C 13.49511 2.0915 -0.01046
C 13.4666 0.75658 -0.00891
C 12.32448 0.00572 0.02819
C 14.75949 32.75645 0.00165
C 13.44827 23.46718 -0.00719
C 15.9993 32.01634 -0.02971
C 12.3 24.22725 0.01641
C 13.56127 26.28881 -0.00334
C 9.84494 17.04477 0.0288
C 9.82128 15.61539 0.00393
C 11.03239 14.90206 0.00895
C 11.08621 13.51264 0.00685
C 9.81732 12.90954 0.02888
C 9.8254 11.42911 -0.00482
C 11.07991 10.7271 -0.01384
C 11.10389 9.18127 0.03693
C 9.8776 8.54953 0.01745
C 9.87161 7.10743 0.00488
C 11.15086 6.3967 -0.01004
C 11.04295 4.90627 -0.02896
C 9.78602 4.28035 -0.00131
C 9.80429 2.8641 -0.01118
C 11.05432 2.0615 -0.014
C 11.14142 0.68379 0.02147
C 9.92744 0.01063 0.00373
C 12.30865 32.66019 -0.00191
C 13.52016 32.04879 0.00438
C 13.50066 30.62925 0.01291
C 12.24899 29.84206 0.00093
C 12.26296 28.32879 0.00057
C 13.53252 27.66143 -0.01634
C 12.34959 25.62605 0.02339
C 11.11704 17.69606 -0.0008
C 15.95896 30.59982 0.02894
C 14.71735 28.46593 0.00444
C 18.46483 30.54481 -0.02696
C 17.23297 29.87481 -0.00114
C 17.20896 28.37393 0.00228
C 18.43794 27.70036 0.00798
C 18.4746 26.22314 0.00422
C 17.21756 25.53089 0.0351
C 17.15791 24.12377 -0.03113
C 18.42671 23.31781 0.02098
C 18.50102 21.92137 0.01848
C 17.26933 21.27838 -0.00619
C 17.12861 19.89169 -0.02162
C 18.3707 19.15584 0.00889
C 18.37973 17.76811 -0.00481
C 18.35779 14.97435 0.00979
C 18.38283 13.53802 0.01443
C 17.20469 12.81772 0.03505
C 17.25637 11.32057 -0.02815
C 18.45897 10.6259 -0.04147
C 18.45709 9.24229 -0.05302
C 17.23054 8.57613 0.00213
C 17.26785 7.11461 -0.00066
C 18.48238 6.40141 -0.00289
C 18.38404 4.95028 0.00028
C 18.43801 31.91459 -0.00368
C 14.70514 29.85721 -0.01789
C 17.26114 32.67738 -0.0108
C 15.94059 0.76022 0.02058
C 15.94306 27.71788 -0.00925
C 15.95818 26.27252 0.01877
C 14.7426 25.54315 0.01363
C 14.67013 24.16854 -0.02162
C 15.94837 23.4122 0.00415
C 16.01142 21.99345 -0.0014
C 14.77201 21.24598 0.02162
C 14.7268 19.82043 0.0076
C 15.97076 19.08768 0.01241
C 15.95861 17.64541 -0.01454
C 14.77573 16.99752 0.01945
C 16.04151 13.44741 0.01416
C 14.84096 12.83717 0.03542
C 14.75319 11.40271 0.02299
C 16.01469 10.6272 0.00244
C 15.96074 9.20771 -0.01717
C 14.74692 8.53332 0.05265
C 14.76919 7.11882 -0.01952
C 16.01532 6.35309 -0.02813
C 15.95188 4.94665 0.00374
C 14.72792 4.26927 0.00052
C 14.70416 2.83571 -0.03682
C 15.97851 2.13447 0.01965
C 14.73142 0.08933 -0.01957
C 11.11317 19.15832 -0.01362
C 9.82103 19.89589 -0.00892
C 9.86917 21.31447 -0.04848
C 3.675 2.19172 -0.01386
C 3.65559 0.78382 -0.02805
C 2.47502 34.06208 0.00081
C 4.89176 32.63956 0.00245
C 6.10663 31.96432 0.02728
C 6.11557 30.5436 -0.00039
C 4.95671 29.78796 0.0064
C 4.96957 28.37964 0.00211
C 6.18617 27.6623 -0.00449
C 6.24446 26.22952 -0.01979
C 4.98264 25.54542 0.02784
C 4.87903 24.17231 -0.01977
C 6.10461 23.53954 -0.00561
C 6.15137 22.06841 0.00208
C 4.94725 21.3171 0.01707
C 4.95756 19.8581 0.02769
C 6.17264 19.17103 -0.03291
C 6.12193 17.72515 -0.04999
C 4.9083 16.94288 0.04505
C 4.78606 15.55107 0.03284
C 6.07748 15.00516 -0.04307
C 6.076 13.59531 0.03189
C 4.87258 12.75966 0.00031
C 2.53273 2.87114 -0.0059
C 4.92421 11.26258 -0.003
C 2.50691 4.29494 0.00558
C 3.64674 6.43484 0.00828
C 3.67544 30.43734 -0.00012
C 2.43235 29.79589 -0.04306
C 2.43963 28.33885 -0.03672
C 3.69157 27.65909 0.01913
C 3.74623 26.28203 0.00267
C 2.48606 25.53293 0.00787
C 2.46525 24.20048 0.02426
C 3.60451 23.45243 0.01218
C 3.68449 22.06143 -0.01471
C 2.51693 21.29217 -0.02827
C 2.53104 19.86899 0.01078
C 3.74812 19.17579 -0.00112
C 3.67522 17.61506 0.03345
C 2.40187 17.00059 0.00748
C 2.36324 15.5922 0.00662
C 3.57348 14.8154 -0.0154
C 3.66763 13.45334 -0.01299
C 2.39576 12.77634 -0.00407
C 2.42236 11.36371 0.01138
C 3.67325 10.61014 0.03278
C 3.68316 9.23809 -0.00177
C 2.42311 8.53955 0.04421
C 2.45046 7.15516 0.00088
C 3.72553 5.00347 -0.02375
C 6.18623 10.6758 0.01402
C 6.19279 9.26792 0.02379
C 4.90954 8.53652 0.00907
C 7.33734 11.43227 0.01305
C 8.61843 10.69068 -0.00077
C 8.64082 9.28244 0.03368
C 7.38398 8.63383 -0.02929
C 7.33345 7.18374 -0.00966
C 8.58949 6.51184 -0.03337
C 8.5879 5.07695 0.01227
C 7.36535 4.25352 0.00873
C 7.34751 2.88406 -0.00049
C 8.61161 2.15506 0.00848
C 8.64961 0.7221 -0.01303
C 7.41331 34.0555 -0.01378
C 9.81141 32.73855 0.02635
C 11.04174 32.00862 0.0127
C 11.06325 30.58703 0.01396
C 9.78397 29.84208 0.01849
C 9.76916 28.43663 -0.01142
C 11.04952 27.66078 -0.00562
C 11.06537 26.26992 -0.00494
C 9.76322 25.62308 0.00054
C 9.83918 24.21454 0.03007
C 11.10587 23.53474 -0.00095
C 11.07456 22.02551 0.01572
C 7.31637 12.82076 0.0276
C 8.55765 13.51626 0.00988
C 8.5793 14.95423 -0.01343
C 7.33701 15.66931 0.01087
C 4.86032 7.15177 0.00643
C 6.09029 6.39975 -0.01509
C 6.1465 4.97513 0.03267
C 4.87998 4.28686 0.02374
C 4.86185 2.88052 0.00402
C 6.11702 2.15652 0.0073
C 6.14324 0.68418 0.0174
C 4.88926 0.00361 0.03828
C 7.34139 32.70985 0.01226
C 8.67917 31.98022 -0.00279
C 8.58638 30.61434 0.01996
C 17.1987 4.21918 -0.02213
C 7.36108 29.89452 -0.03996
C 8.60471 27.76039 -0.00074
C 8.56898 26.3567 -0.00518
C 7.4431 25.51319 0.0086
C 7.42082 24.10812 -0.00643
C 8.66405 23.37481 0.017
C 8.5962 22.0355 -0.03113
C 7.37641 21.35086 -0.02566
C 7.42612 19.88484 -0.00094
C 8.6301 19.16651 0.02322
C 8.59315 17.75407 -0.00725
C 7.37067 17.05485 -0.05697
C 7.40186 28.47222 0.01465
C 3.67171 31.90327 -0.00198
C 17.27061 2.77226 0.03698
C 18.46056 0.6989 -0.00491
C 30.74194 13.52833 -0.01303
C 29.56581 12.73878 -0.01461
C 29.49677 11.35073 -0.02155
C 30.71047 10.59422 -0.00944
C 30.70597 9.10141 -0.03735
C 29.46123 8.53425 -0.00971
C 29.453 7.12788 0.01518
C 30.69859 6.40988 0.01908
C 30.71073 4.98043 0.07705
C 29.54972 4.22015 0.0103
C 29.51714 2.7712 0.02108
C 30.77424 2.13035 0.00716
C 30.80883 0.65655 0.00307
C 29.52292 34.00811 0.00346
C 32.01479 32.61059 0.01713
C 33.25192 31.91194 -0.01694
C 33.1808 30.50755 0.01428
C 31.96275 29.80536 -0.02142
C 31.96841 28.42392 0.0544
C 33.22154 27.73181 0.00026
C 33.22347 26.35608 0.00682
C 31.96478 25.63208 -0.01779
C 31.99961 24.18264 0.03794
C 30.66802 14.92282 -0.0405
C 33.18411 23.47691 0.01927
C 29.45787 15.64479 0.01705
C 30.72989 17.78268 -0.00669
C 27.04897 8.50346 0.02611
C 27.0361 7.07012 0.02198
C 28.24801 6.40748 0.01094
C 28.29588 4.97958 0.00235
C 27.0739 4.31616 0.01495
C 27.00053 2.75292 0.01259
C 28.23944 2.09366 0.01799
C 28.32393 0.67697 0.01699
C 27.09409 34.04801 -0.00416
C 29.48083 32.59348 0.01177
C 30.65517 31.93327 0.04266
C 30.72291 30.46182 0.01324
C 29.48376 29.75984 0.0014
C 29.4838 28.34727 0.00924
C 30.73203 27.76091 0.02326
C 30.75411 26.32 0.00261
C 29.52379 25.54939 0.03265
C 29.50449 24.14484 -0.02049
C 30.72355 23.42775 -0.01854
C 30.71029 22.02245 -0.01415
C 29.49934 21.2698 -0.03039
C 29.55748 19.85054 0.01836
C 30.79141 19.16383 0.03531
C 29.49078 17.08334 0.0101
C 28.28201 9.26947 -0.00621
C 33.1822 22.06692 0.01574
C 31.93612 19.9298 -0.01429
C 34.41019 24.16381 0.03076
C 1.21103 23.4801 0.00723
C 1.26963 22.02834 0.02712
C 0.02075 21.32199 -0.02213
C 34.42231 19.85928 0.01951
C 1.22028 19.15223 -0.01678
C 1.20694 17.77599 0.01223
C 34.35454 17.13041 0.00648
C 34.42435 15.58081 0.02114
C 1.18255 14.86037 -0.02957
C 1.18696 13.45088 0.00343
C 0.00767 12.79264 -0.02656
C 34.41283 11.32104 -0.02442
C 1.16786 10.58516 -0.00027
C 1.16318 9.22439 -0.00583
C 34.43218 8.48905 -0.02302
C 34.42295 7.05248 -0.02849
C 1.22759 6.39223 0.02931
C 1.28072 4.93292 0.00628
C 0.0449 4.24387 -0.0345
C 0.02312 2.80884 -0.00931
C 1.23993 2.10103 -0.00939
C 1.2407 0.6706 -0.00468
C 34.40154 25.5531 -0.05239
C 31.89635 21.32769 -0.02383
C 1.22197 26.22331 -0.00598
C 0.0421 28.35941 -0.01037
C 33.14011 19.21151 -0.0136
C 33.10149 17.76346 0.00594
C 31.89736 16.95446 -0.02474
C 31.93803 15.57254 0.00369
C 33.18682 14.87484 0.00455
C 33.2115 13.45819 -0.00644
C 32.00537 12.77867 -0.01839
C 31.87873 11.38117 0.00137
C 33.1071 10.61517 0.00199
C 33.21146 9.18337 0.04381
C 31.95058 8.4751 0.02806
C 32.03101 7.0244 0.01504
C 33.24099 6.30261 -0.00069
C 33.25159 4.91927 0.04926
C 31.96771 4.2744 -0.03838
C 31.97762 2.76981 0.00349
C 33.19642 2.10138 -0.00323
C 33.21718 0.72266 -0.00841
C 32.03379 34.00186 0.0001
C 0.07685 32.64228 -0.02927
C 1.25461 31.87309 -0.01404
C 1.22375 30.4953 0.01027
C 0.02558 29.81133 0.01831
C 1.2152 27.65245 -0.00439
C 28.28886 10.689 0.00194
C 26.99312 11.34968 0.04185
C 27.07401 12.79007 0.02316
C 20.94899 2.10046 0.0058
C 20.98638 0.7133 -0.00865
C 19.7108 0.02588 0.00675
C 22.15773 32.59766 -0.00311
C 23.3673 31.85595 0.00742
C 23.34488 30.50189 -0.01594
C 22.09091 29.88202 0.0106
C 22.08654 28.45502 -0.01154
C 23.30438 27.7176 -0.01721
C 23.33508 26.32958 -0.02422
C 22.09065 25.57445 0.01277
C 22.05188 24.13669 0.00096
C 22.16981 17.14643 -0.01527
C 22.17948 15.76322 0.01087
C 23.33037 14.92221 0.00199
C 23.39185 13.54232 0.01511
C 22.17917 12.78866 -0.00478
C 22.17283 11.36982 -0.01662
C 23.32608 10.6001 -0.01185
C 23.3269 9.24169 0.01126
C 22.14682 8.54319 0.01852
C 22.22053 7.162 -0.00381
C 23.39423 6.38219 0.03046
C 19.67146 2.78302 -0.00652
C 23.32415 4.94607 0.0296
C 19.62487 4.22843 -0.04076
C 20.89745 6.38997 0.00654
C 17.19978 0.00677 0.03338
C 19.65583 32.65655 -0.0258
C 20.90997 31.92521 -0.0331
C 20.86056 30.46955 -0.00316
C 19.63671 29.78218 0.02188
C 19.61319 28.41774 -0.01979
C 20.84557 27.68911 0.02691
C 20.84479 26.29313 -0.01581
C 19.65454 25.54998 0.01452
C 19.66213 24.09823 0.04892
C 20.95298 23.51726 -0.00111
C 19.67532 19.65044 -0.03557
C 20.97238 17.71598 0.03754
C 19.62169 17.05185 0.01739
C 19.63454 15.5913 0.00755
C 20.96514 14.99829 -0.0054
C 20.9446 13.49147 0.00667
C 19.62622 12.76839 0.00143
C 19.67592 11.35309 -0.017
C 20.90921 10.66981 0.00364
C 20.85459 9.27517 -0.00831
C 19.67272 8.55822 -0.02957
C 19.71038 7.15158 -0.04422
C 20.91036 5.0267 -0.00703
C 22.12359 4.25626 0.03374
C 22.13131 2.81481 -0.02845
C 23.38259 2.18835 -0.03213
C 24.55698 2.84701 -0.00938
C 25.7811 2.07594 -0.0264
C 25.78418 0.64375 -0.01154
C 24.58813 34.04467 0.00684
C 27.05063 32.66242 -0.01052
C 28.20169 31.90339 -0.01679
C 28.32329 30.50275 0.00367
C 27.02837 29.90424 0.04306
C 27.08594 28.49081 0.00996
C 28.24553 27.66454 0.00195
C 28.29824 26.23596 -0.00802
C 27.04802 25.58414 -0.00218
C 27.08604 24.20528 -0.01654
C 28.27267 23.40385 -0.00037
C 28.30011 21.95301 -0.0032
C 27.11061 21.30867 0.00622
C 26.98268 19.9327 -0.02815
C 28.28987 19.19732 -0.00942
C 28.25551 17.80023 0.00487
C 27.06981 17.00282 0.00826
C 27.05203 15.55308 -0.00294
C 28.25793 14.85753 0.00152
C 28.31562 13.43407 0.01257
C 24.60304 4.22958 -0.00229
C 25.7525 5.0126 -0.01199
C 25.77676 6.37712 -0.009
C 24.54803 7.11342 -0.00285
C 23.38231 0.66108 0.02239
C 22.10556 34.02623 0.01153
C 24.57087 32.65541 0.02734
C 25.77878 32.01036 -0.0055
C 25.81709 30.58231 0.01515
C 24.60527 29.75118 -0.00225
C 24.60829 28.33466 0.00071
C 25.85086 27.77943 -0.01107
C 25.80794 26.33558 -0.01586
C 24.56906 25.56561 -0.01971
C 24.57547 24.19294 -0.02118
C 18.50021 2.11082 -0.00109
C 25.77606 23.40794 0.00733
C 25.85638 19.20952 0.00768
C 25.7642 17.75193 -0.0276
C 24.60073 16.99955 0.03005
C 24.5869 15.6822 -0.04078
C 25.81836 14.93313 0.02117
C 25.79287 13.50621 0.02737
C 24.54307 12.79889 -0.00498
C 24.51161 11.34126 0.00135
C 25.71407 10.63278 0.03102
C 25.79432 9.22878 0.02555
C 24.56501 8.48245 0.01423
C 25.97995 22.10449 -0.00178
C 2.44535 32.62549 0.00535
