368
Graphene
C 34.40149 34.07928 0.01295
C 12.29836 4.30402 -0.01952
C 12.23063 2.89365 -0.02813
C 13.51889 2.14067 0.00374
C 13.46553 0.66612 0.00052
C 12.28201 0.00104 -0.03682
C 14.75233 32.67675 0.01965
C 15.93284 31.89226 0.02058
C 15.97824 30.53373 -0.01957
C 14.75781 29.77732 -0.0108
C 14.77045 28.29307 -0.00368
C 16.03006 27.47529 -0.02696
C 16.10266 26.11104 -0.00114
C 14.85027 25.60383 0.00228
C 15.99756 9.14353 0.00798
C 14.61735 8.57607 0.00422
C 14.75802 7.23188 0.0351
C 15.93093 6.4237 -0.03113
C 15.96881 5.03182 0.02098
C 14.81666 4.2647 0.01848
C 13.44572 5.1087 0.05265
C 14.76057 2.8532 -0.00619
C 13.51688 6.57346 -0.01717
C 12.2062 8.69164 0.02299
C 10.86724 9.43131 0.02819
C 9.86851 8.53449 0.00165
C 9.8387 7.12025 -0.02971
C 11.06379 6.44825 0.02894
C 11.02367 5.03204 -0.01789
C 9.80845 4.31455 0.00444
C 9.80782 2.90244 -0.00925
C 11.0147 2.16335 0.01877
C 11.06536 0.75807 0.01363
C 9.82103 34.07808 -0.02162
C 12.26322 32.70066 0.00415
C 13.50475 31.90935 -0.0014
C 13.50814 30.51532 0.02162
C 12.25308 29.85654 0.0076
C 12.31979 28.35494 0.01241
C 13.51975 27.49194 -0.01454
C 13.53543 25.94711 0.01945
C 12.24543 25.496 0.01416
C 13.40095 9.1853 0.03542
C 12.25462 7.23163 0.00244
C 9.85998 24.18634 -0.00891
C 16.01299 2.09752 -0.02162
C 14.71673 0.00904 -0.00481
C 20.81693 27.6468 0.04892
C 20.85891 26.26969 -0.00111
C 19.63847 25.5576 -0.03557
C 19.71054 24.12366 0.03754
C 20.79637 23.49871 0.01739
C 20.90922 10.48885 0.00755
C 20.9661 9.13671 -0.0054
C 19.71414 8.44717 0.00667
C 19.69109 6.98141 0.00143
C 20.92038 6.3285 -0.017
C 20.83295 4.90074 0.00364
C 19.69239 4.17332 -0.00831
C 19.65658 2.78414 -0.02957
C 20.83201 2.05378 -0.04422
C 20.84046 0.7233 0.00654
C 19.65472 34.05109 -0.00703
C 21.98759 32.62734 -0.04076
C 23.23253 31.91326 -0.00652
C 23.29175 30.51908 0.0058
C 19.59096 28.34755 0.01452
C 15.94855 0.66789 0.00889
C 19.55843 29.88627 -0.01581
C 20.77708 32.01704 -0.01979
C 17.12702 32.68111 0.00979
C 18.3914 31.99876 0.01443
C 18.36342 30.54732 0.03505
C 17.16476 29.73925 -0.02815
C 17.13346 28.30856 -0.04147
C 18.41436 27.68689 -0.05302
C 18.42201 26.25644 0.00213
C 17.31842 25.41355 -0.00066
C 18.50054 9.19435 -0.00289
C 17.23011 8.5062 0.00028
C 17.26982 7.09021 -0.02213
C 18.42429 6.3456 0.03698
C 18.49823 4.90126 -0.00109
C 17.22782 4.28232 -0.00491
C 17.21365 2.8097 0.03338
C 18.41402 2.10267 -0.0258
C 18.43748 0.68325 -0.0331
C 17.22665 34.02619 -0.00316
C 19.5859 32.68361 0.02188
C 20.83232 30.55034 0.02691
C 22.0234 29.80437 -0.00865
C 9.89352 25.57163 -0.01046
C 11.0246 27.67159 -0.01536
C 3.70373 6.51252 0.01227
C 3.73737 5.09534 0.00873
C 2.42618 4.38295 -0.00049
C 2.4386 2.85849 0.00848
C 3.67085 2.18204 -0.01303
C 3.60987 0.75095 -0.01378
C 2.43856 34.07606 0.02635
C 4.89082 32.66139 0.0127
C 6.08737 31.96887 0.01396
C 6.13228 30.53201 0.01849
C 4.86941 29.80588 -0.01142
C 4.92689 28.38171 -0.00562
C 6.19101 27.72693 -0.00494
C 6.19393 26.27542 0.00054
C 4.9945 25.57344 0.03007
C 5.12559 24.12901 -0.00095
C 4.69217 20.196 0.01572
C 6.03987 19.60016 -0.04848
C 5.93232 18.14561 -0.00892
C 2.41271 7.16845 -0.03337
C 4.96565 17.10857 -0.01362
C 2.42568 8.60067 -0.00966
C 3.67438 10.71255 0.03368
C 3.69323 30.56202 -0.03996
C 2.3339 29.84461 0.01465
C 2.39654 28.41587 -0.00074
C 3.6392 27.7437 -0.00518
C 3.6999 26.24949 0.0086
C 2.49695 25.53755 -0.00643
C 2.55316 24.04785 0.017
C 3.92438 23.3215 -0.03113
C 3.81422 21.80312 -0.02566
C 2.50834 21.2885 -0.00094
C 2.34066 19.86782 0.02322
C 3.66343 19.22652 -0.00725
C 3.68865 17.81601 -0.05697
C 2.49849 17.09511 0.01087
C 2.4491 15.59173 -0.01343
C 3.69265 14.92479 0.00988
C 3.73286 13.55682 0.0276
C 2.43179 12.80904 0.01305
C 2.40706 11.45008 -0.00077
C 3.68188 9.34159 -0.02929
C 11.11239 26.31644 -0.02689
C 4.89394 15.69855 -0.0008
C 6.25007 13.58665 0.00393
C 7.16814 21.0887 0.01641
C 7.33658 12.80399 -0.00719
C 7.57734 11.43865 0.01364
C 8.70887 10.6134 -0.01062
C 8.60358 9.25139 -0.00033
C 7.3154 8.60968 0.03589
C 7.42704 7.19602 -0.02759
C 8.61277 6.45866 0.0402
C 8.66211 5.06841 0.00572
C 7.41446 4.30533 0.03592
C 7.32873 2.90755 0.00406
C 8.53401 2.24561 0.00943
C 8.57955 0.75774 0.02841
C 7.36679 0.06271 -0.01111
C 9.86302 32.70385 -0.01275
C 11.07325 32.03026 0.00985
C 11.03333 30.57296 -0.02245
C 9.78908 29.90807 -0.00428
C 9.8767 28.45125 0.03101
C 8.6411 23.52493 0.02339
C 5.93544 14.92875 0.0288
C 7.35575 24.16104 -0.00334
C 8.63576 26.25927 0.00057
C 4.9767 12.84877 0.00895
C 4.97051 11.46836 0.00685
C 6.31916 10.70722 0.02888
C 6.18863 9.38785 -0.00482
C 4.90332 8.58838 -0.01384
C 5.01336 7.17127 0.03693
C 6.20456 6.46617 0.01745
C 6.18899 5.06208 0.00488
C 4.91865 4.34634 -0.01004
C 4.85816 2.90249 -0.02896
C 6.15583 2.17733 -0.00131
C 6.08619 0.68002 -0.01118
C 4.82845 0.03401 -0.014
C 7.34809 32.69694 0.02147
C 8.60148 32.01982 0.00373
C 8.61502 30.55831 -0.00191
C 7.37154 29.83079 0.00438
C 7.40213 28.45646 0.01291
C 8.65918 27.67538 0.00093
C 7.3684 25.56472 -0.01634
C 22.02853 28.41086 0.00675
C 23.2632 27.72402 -0.00311
C 23.26536 26.31939 0.00742
C 30.67996 0.66395 0.00307
C 29.3447 0.01644 0.00346
C 31.86772 32.71372 0.01713
C 33.18414 31.98699 -0.01694
C 33.18386 30.6048 0.01428
C 31.88431 29.88388 -0.02142
C 31.8981 28.47079 0.0544
C 33.13455 27.73604 0.00026
C 33.18735 26.35217 0.00682
C 31.89401 25.52422 -0.01779
C 31.94688 24.1492 0.03794
C 33.20722 23.41627 0.01927
C 33.25375 22.03123 0.01574
C 32.00262 21.29757 -0.02383
C 31.94702 19.82784 -0.01429
C 33.18343 19.1891 -0.0136
C 33.18186 17.69524 0.00594
C 31.95255 17.04156 -0.02474
C 31.89365 15.59556 0.00369
C 30.63406 2.19007 0.00716
C 33.17109 14.90537 0.00455
C 29.4925 2.86839 0.02108
C 30.71643 4.92745 0.07705
C 29.42774 25.56374 0.03265
C 29.47325 24.13189 -0.02049
C 30.67603 23.43771 -0.01854
C 30.68359 22.0247 -0.01415
C 29.48053 21.30496 -0.03039
C 29.54313 19.88227 0.01836
C 30.74325 19.16488 0.03531
C 30.77812 17.7288 -0.00669
C 29.54304 17.06515 0.0101
C 29.56734 15.62974 0.01705
C 30.75403 14.88909 -0.0405
C 30.79193 13.44556 -0.01303
C 29.54481 12.79463 -0.01461
C 29.51317 11.31424 -0.02155
C 30.70579 10.63981 -0.00944
C 30.73382 9.27093 -0.03735
C 29.52536 8.47065 -0.00971
C 29.5166 7.05489 0.01518
C 30.76351 6.35589 0.01908
C 29.46195 4.24855 0.0103
C 30.67707 26.284 0.00261
C 33.2159 13.50531 -0.00644
C 32.04999 11.34652 0.00137
C 34.38833 19.93323 0.01951
C 1.17499 19.21634 -0.01678
C 1.28541 17.72445 0.01223
C 34.38293 16.99564 0.00648
C 34.37191 15.6072 0.02114
C 1.1781 14.90008 -0.02957
C 1.18737 13.50032 0.00343
C 0.00807 12.78818 -0.02656
C 0.00989 11.36207 -0.02442
C 1.22487 10.66582 -0.00027
C 1.1949 9.21072 -0.00583
C 34.41988 8.55316 -0.02302
C 34.43086 7.14561 -0.02849
C 1.23903 6.49786 0.02931
C 1.26718 5.04556 0.00628
C 34.43305 4.28818 -0.0345
C 34.39131 2.93393 -0.00931
C 1.17029 2.16423 -0.00939
C 1.22186 0.71892 -0.00468
C 0.00975 21.33806 -0.02213
C 31.95659 12.77011 -0.01839
C 1.27647 22.0188 0.02712
C 0.08132 24.14287 0.03076
C 33.19126 10.6604 0.00199
C 33.16561 9.25624 0.04381
C 31.97319 8.47264 0.02806
C 31.94275 7.0736 0.01504
C 33.20615 6.37336 -0.00069
C 33.18195 5.01617 0.04926
C 31.89555 4.25455 -0.03838
C 31.92824 2.81148 0.00349
C 33.17907 2.1644 -0.00323
C 33.17804 0.72614 -0.00841
C 31.92839 0.09257 0.0001
C 34.38644 32.68048 -0.02927
C 1.20722 31.99134 -0.01404
C 1.19556 30.60696 0.01027
C 34.37847 29.90368 0.01831
C 34.36936 28.48027 -0.01037
C 1.13607 27.74083 -0.00439
C 1.25026 26.2822 -0.00598
C 34.42784 25.62756 -0.05239
C 1.30389 23.39488 0.00723
C 30.65612 27.74144 0.02326
C 29.38638 28.40566 0.00924
C 29.30923 29.81617 0.0014
C 25.75601 31.95315 0.01153
C 25.73381 30.51713 0.02734
C 24.52466 29.84302 -0.0055
C 24.51415 28.3684 0.01515
C 25.71359 27.68287 -0.00225
C 25.68325 26.23604 0.00071
C 24.4537 25.55431 -0.01107
C 24.53992 24.13106 -0.01586
C 25.72881 23.38678 -0.01971
C 25.74259 21.98719 -0.02118
C 24.60785 21.29948 0.00733
C 24.60279 19.78257 -0.00178
C 25.76534 19.07602 0.00768
C 25.72752 17.67593 -0.0276
C 24.51157 16.96972 0.03005
C 24.61576 15.57366 -0.04078
C 25.77889 14.88036 0.02117
C 25.78425 13.47717 0.02737
C 24.57682 12.72146 -0.00498
C 24.45986 32.65654 0.02239
C 24.63785 11.28812 0.00135
C 22.13288 34.04799 -0.03213
C 23.28068 2.12534 0.03374
C 22.00244 25.58855 -0.01594
C 22.0659 24.22542 0.0106
C 23.29063 23.39162 -0.01154
C 23.28089 21.95146 -0.01721
C 22.17659 21.09922 -0.02422
C 23.33139 19.09768 0.01277
C 23.37172 17.79696 0.00096
C 23.36765 14.86339 -0.01527
C 23.29193 13.48893 0.01087
C 22.29414 12.5954 0.00199
C 22.12569 11.21597 0.01511
C 23.3945 10.53455 -0.00478
C 23.43083 9.18105 -0.01662
C 22.18313 8.47435 -0.01185
C 22.14888 6.98763 0.01126
C 23.37171 6.39592 0.01852
C 23.33873 4.988 -0.00381
C 22.11147 4.21395 0.03046
C 22.06393 2.77759 0.0296
C 23.30913 0.60554 -0.02845
C 25.85705 10.58489 0.03102
C 25.85552 9.24985 0.02555
C 24.66014 8.53501 0.01423
C 27.05842 15.5646 -0.00294
C 28.30076 14.85871 0.00152
C 28.32621 13.45678 0.01257
C 27.0373 12.7728 0.02316
C 27.07452 11.35814 0.04185
C 28.29633 10.67173 0.00194
C 28.31396 9.24064 -0.00621
C 27.07177 8.50274 0.02611
C 26.98158 7.13327 0.02198
C 28.3042 6.33644 0.01094
C 28.25812 4.97387 0.00235
C 27.06061 4.23052 0.01495
C 27.02401 2.88644 0.01259
C 28.20448 2.20158 0.01799
C 28.12823 0.72128 0.01699
C 26.96293 0.02308 -0.00416
C 29.38479 32.7223 0.01177
C 30.64999 31.93424 0.04266
C 30.65585 30.5801 0.01324
C 26.96254 16.99701 0.00826
C 28.25703 17.72769 0.00487
C 28.29884 19.13321 -0.00942
C 27.0918 19.78474 -0.02815
C 24.59868 7.13022 -0.00285
C 25.89796 6.37691 -0.009
C 25.85171 4.94337 -0.01199
C 24.64667 4.23958 -0.00229
C 24.59703 2.81502 -0.00938
C 25.76305 2.1272 -0.0264
C 25.72652 0.71839 -0.01154
C 24.54463 34.0484 0.00684
C 26.98576 32.68077 -0.01052
C 3.68538 31.95894 0.01996
C 28.1637 31.95737 -0.01679
C 26.94851 29.813 0.04306
C 26.94906 28.3779 0.00996
C 28.14655 27.62002 0.00195
C 28.19706 26.25663 -0.00802
C 27.0001 25.50184 -0.00218
C 27.0211 24.06899 -0.01654
C 28.26713 23.45312 -0.00037
C 28.25702 22.00795 -0.0032
C 27.02671 21.2121 0.00622
C 28.15062 30.58086 0.00367
C 2.40553 32.68722 -0.00279
