368
Graphene
C 34.43272 0.05397 0.01295
C 10.97084 10.70028 -0.01952
C 11.02994 9.22257 -0.02813
C 9.76091 8.58441 0.00374
C 9.77718 7.12844 0.00052
C 10.97245 6.3321 -0.03682
C 10.97987 4.96929 0.01965
C 9.82502 4.34766 0.02058
C 9.7851 2.88081 -0.01957
C 10.98191 2.25123 -0.0108
C 10.95913 0.79876 -0.00368
C 9.77716 0.06462 -0.02696
C 12.26043 32.69595 -0.00114
C 13.51238 31.84094 0.00228
C 13.52489 30.51291 0.00798
C 12.33289 29.77337 0.00422
C 12.32085 28.42308 0.0351
C 13.56107 27.63877 -0.03113
C 13.64832 26.24529 0.02098
C 12.30689 25.63203 0.01848
C 9.79019 11.38228 0.05265
C 12.42325 24.12179 -0.00619
C 9.75747 12.83126 -0.01717
C 11.05123 14.96388 0.02299
C 8.6525 0.72654 0.02819
C 7.318 0.01052 0.00165
C 9.77335 32.71713 -0.02971
C 11.01341 31.96561 0.02894
C 11.00979 30.52159 -0.01789
C 9.84077 29.833 0.00444
C 9.85099 28.46295 -0.00925
C 11.03021 27.69467 0.01877
C 11.07917 26.21049 0.01363
C 9.86941 25.6058 -0.02162
C 9.88775 24.07583 0.00415
C 11.13818 23.47813 -0.0014
C 11.14554 22.0249 0.02162
C 9.88721 21.27897 0.0076
C 9.84467 19.84204 0.01241
C 11.09982 19.17477 -0.01454
C 11.0619 17.68129 0.01945
C 9.88708 17.07714 0.01416
C 9.91017 15.76811 0.03542
C 11.02075 13.51031 0.00244
C 8.48081 2.14713 -0.00891
C 13.64201 23.34043 -0.02162
C 12.34873 21.26165 -0.00481
C 14.75534 29.73928 0.04892
C 14.73268 28.36317 -0.00111
C 15.98603 27.64122 -0.03557
C 15.9496 26.24491 0.03754
C 14.76604 25.48365 0.01739
C 14.86695 24.14396 0.00755
C 16.12373 23.36941 -0.0054
C 16.1526 21.82952 0.00667
C 14.81014 21.22416 0.00143
C 14.78954 19.6875 -0.017
C 16.05243 19.04901 0.00364
C 15.94952 17.6444 -0.00831
C 14.77454 16.93255 -0.02957
C 14.81426 15.56387 -0.04422
C 16.05341 14.87731 0.00654
C 16.05209 13.51676 -0.00703
C 14.75126 12.79347 -0.04076
C 14.71062 11.37804 -0.00652
C 15.98094 10.59209 0.0058
C 15.98188 30.45957 0.01452
C 13.62305 21.94111 0.00889
C 15.97187 31.80135 -0.01581
C 12.14416 0.03007 -0.01979
C 12.32987 19.83983 0.00979
C 13.53903 19.05298 0.01443
C 13.51496 17.59752 0.03505
C 12.24386 16.98279 -0.02815
C 12.31961 15.57915 -0.04147
C 13.59685 14.87135 -0.05302
C 13.54277 13.42825 0.00213
C 12.28424 12.75933 -0.00066
C 12.26728 11.36804 -0.00289
C 13.47701 10.70607 0.00028
C 13.43813 9.27656 -0.02213
C 12.24542 8.55279 0.03698
C 12.17224 7.11209 -0.00109
C 13.39954 6.4053 -0.00491
C 13.50066 5.00275 0.03338
C 12.30389 4.31867 -0.0258
C 12.17059 2.88718 -0.0331
C 13.44667 2.17168 -0.00316
C 13.44374 0.73147 0.02188
C 14.72692 32.51989 0.02691
C 15.97086 9.27258 -0.00865
C 7.32703 2.89216 -0.01046
C 8.53664 5.06104 -0.01536
C 3.62059 6.49819 0.01227
C 3.61907 5.06571 0.00873
C 2.45408 4.30834 -0.00049
C 2.36631 2.92258 0.00848
C 3.61407 2.18595 -0.01303
C 3.64093 0.78028 -0.01378
C 2.43389 0.07457 0.02635
C 4.88036 32.74873 0.0127
C 6.1159 31.99249 0.01396
C 6.18858 30.5909 0.01849
C 4.93887 29.90857 -0.01142
C 4.85429 28.4937 -0.00562
C 6.12598 27.75255 -0.00494
C 6.16685 26.3602 0.00054
C 4.90329 25.58487 0.03007
C 4.9151 24.17204 -0.00095
C 6.16814 23.45062 0.01572
C 6.23685 22.01629 -0.04848
C 4.93611 21.32449 -0.00892
C 2.44667 7.24884 -0.03337
C 4.9305 19.94871 -0.01362
C 2.42622 8.61435 -0.00966
C 3.54458 10.7686 0.03368
C 3.62334 30.57735 -0.03996
C 2.43422 29.93368 0.01465
C 2.33685 28.51666 -0.00074
C 3.60478 27.76217 -0.00518
C 3.70487 26.39428 0.0086
C 2.50703 25.56417 -0.00643
C 2.48385 24.18519 0.017
C 3.65494 23.45608 -0.03113
C 3.75899 22.02909 -0.02566
C 2.48278 21.3886 -0.00094
C 2.48155 19.97058 0.02322
C 3.65526 19.2215 -0.00725
C 3.73106 17.78386 -0.05697
C 2.4701 17.00578 0.01087
C 2.41215 15.62464 -0.01343
C 3.70194 14.97418 0.00988
C 3.59952 13.45507 0.0276
C 2.30393 12.85669 0.01305
C 2.32076 11.38739 -0.00077
C 3.59358 9.27304 -0.02929
C 7.30985 4.26673 -0.02689
C 6.13005 19.21065 -0.0008
C 4.90266 17.14989 0.00393
C 7.43675 25.62093 0.01641
C 7.32726 24.20408 -0.00719
C 8.567 23.49866 0.01364
C 8.65678 22.0268 -0.01062
C 7.39184 21.30739 -0.00033
C 7.43446 19.89904 0.03589
C 8.61633 19.12606 -0.02759
C 8.62803 17.69501 0.0402
C 7.36099 17.04777 0.00572
C 7.41611 15.67057 0.03592
C 8.6489 15.02428 0.00406
C 8.58028 13.54833 0.00943
C 7.37451 12.86806 0.02841
C 7.31857 11.37462 -0.01111
C 8.53631 10.71076 -0.01275
C 8.53227 9.33717 0.00985
C 7.34131 8.6406 -0.02245
C 7.31046 7.10536 -0.00428
C 8.56814 6.42147 0.03101
C 8.62775 26.34711 0.02339
C 6.10916 17.81531 0.0288
C 8.63426 27.75944 -0.00334
C 7.35894 29.87153 0.00057
C 4.91603 15.70943 0.00895
C 6.15998 14.91501 0.00685
C 6.0768 13.55827 0.02888
C 4.89921 12.76424 -0.00482
C 4.84285 11.36574 -0.01384
C 6.03332 10.68932 0.03693
C 6.13319 9.2206 0.01745
C 4.86975 8.57399 0.00488
C 4.83973 7.16938 -0.01004
C 6.09795 6.48849 -0.02896
C 6.09376 5.06179 -0.00131
C 4.88435 4.36945 -0.01118
C 4.81197 2.95626 -0.014
C 6.11644 2.18825 0.02147
C 6.12991 0.75896 0.00373
C 4.8632 0.02246 -0.00191
C 7.35822 32.70112 0.00438
C 8.60317 31.92731 0.01291
C 8.63731 30.57402 0.00093
C 7.39107 28.47258 -0.01634
C 14.7345 8.51474 0.00675
C 14.63359 7.08152 -0.00311
C 15.8463 6.32403 0.00742
C 30.67686 0.80522 0.00307
C 29.47093 0.01264 0.00346
C 31.95782 32.72992 0.01713
C 33.09206 31.9922 -0.01694
C 33.13429 30.54826 0.01428
C 31.94955 29.83268 -0.02142
C 31.88563 28.42931 0.0544
C 33.13211 27.79171 0.00026
C 33.11732 26.29981 0.00682
C 31.95245 25.60157 -0.01779
C 31.96037 24.1287 0.03794
C 33.209 23.48435 0.01927
C 33.24196 22.02857 0.01574
C 32.04051 21.27697 -0.02383
C 31.99291 19.89778 -0.01429
C 33.17699 19.11504 -0.0136
C 33.09606 17.76607 0.00594
C 31.67528 16.99303 -0.02474
C 31.77388 15.61533 0.00369
C 30.73106 2.16424 0.00716
C 33.00896 14.90615 0.00455
C 29.44636 2.94736 0.02108
C 30.70007 5.05591 0.07705
C 29.45761 32.68944 0.03265
C 30.70048 32.06136 -0.02049
C 30.72259 30.64213 -0.01854
C 29.54395 29.86331 -0.01415
C 29.56129 28.4311 -0.03039
C 30.75516 27.66492 0.01836
C 30.70268 26.24194 0.03531
C 29.38428 25.45809 -0.00669
C 29.53481 24.01441 0.0101
C 30.80802 23.34154 0.01705
C 30.80347 21.92918 -0.0405
C 29.53193 21.3343 -0.01303
C 29.30361 19.94735 -0.01461
C 30.75054 19.27722 -0.02155
C 30.54483 17.89678 -0.00944
C 29.23614 17.43306 -0.03735
C 30.18756 8.49326 -0.00971
C 29.55163 7.32704 0.01518
C 30.77471 6.3821 0.01908
C 29.47487 4.33589 0.0103
C 26.92348 0.05705 0.00261
C 33.11089 13.4576 -0.00644
C 32.02695 11.43817 0.00137
C 34.34936 19.88569 0.01951
C 1.13771 19.16373 -0.01678
C 1.14862 17.78675 0.01223
C 34.36058 17.04342 0.00648
C 34.3365 15.6172 0.02114
C 1.14287 14.91285 -0.02957
C 1.10319 13.54993 0.00343
C 34.33393 12.69784 -0.02656
C 34.34529 11.30148 -0.02442
C 1.13434 10.63185 -0.00027
C 1.18887 9.28134 -0.00583
C 34.29784 8.53109 -0.02302
C 34.31497 7.09986 -0.02849
C 1.12796 6.4668 0.02931
C 1.11851 5.08281 0.00628
C 34.37784 4.3656 -0.0345
C 0.07276 2.86997 -0.00931
C 1.2464 2.11602 -0.00939
C 1.18839 0.71373 -0.00468
C 0.0311 21.30568 -0.02213
C 31.98111 12.79147 -0.01839
C 1.22092 22.04984 0.02712
C 34.33405 24.22947 0.03076
C 33.05912 10.6031 0.00199
C 33.01998 9.22551 0.04381
C 31.65106 8.56512 0.02806
C 31.96602 7.06991 0.01504
C 33.14117 6.39824 -0.00069
C 33.11355 4.96283 0.04926
C 31.94236 4.30384 -0.03838
C 31.95756 2.91947 0.00349
C 33.24939 2.22745 -0.00323
C 33.25519 0.80731 -0.00841
C 31.99457 0.03625 0.0001
C 34.35279 32.71313 -0.02927
C 1.1484 32.05031 -0.01404
C 1.15034 30.63026 0.01027
C 34.42287 29.88043 0.01831
C 34.39378 28.44722 -0.01037
C 1.19874 27.68339 -0.00439
C 1.21447 26.27952 -0.00598
C 34.39708 25.58439 -0.05239
C 1.19479 23.51024 0.00723
C 28.22691 0.77597 0.02326
C 28.20329 2.21715 0.00924
C 27.03618 2.94435 0.0014
C 18.42081 10.49797 0.01153
C 18.41929 9.11462 0.02734
C 17.11661 8.38831 -0.0055
C 17.14541 7.05775 0.01515
C 18.38454 6.37624 -0.00225
C 18.41136 4.99463 0.00071
C 17.17095 4.23337 -0.01107
C 17.08677 2.83081 -0.01586
C 18.3822 2.03662 -0.01971
C 18.36604 0.64338 -0.02118
C 17.19131 34.03191 0.00733
C 19.6402 32.62964 -0.00178
C 20.91719 31.84556 0.00768
C 20.79234 30.42479 -0.0276
C 19.63587 29.64548 0.03005
C 19.54151 28.31465 -0.04078
C 19.43341 16.98808 0.02117
C 19.77271 15.75545 0.02737
C 19.64094 12.47855 -0.00498
C 17.24419 11.24662 0.02239
C 19.67559 11.13511 0.00135
C 17.23503 12.73342 -0.03213
C 18.59618 14.83597 0.03374
C 15.95032 4.98729 -0.01594
C 14.73428 4.28688 0.0106
C 14.6767 2.91819 -0.01154
C 15.90468 2.15991 -0.01721
C 15.91298 0.70414 -0.02422
C 14.65422 33.99252 0.01277
C 17.20185 32.59654 0.00096
C 18.43905 31.92384 -0.01527
C 18.37374 30.43921 0.01087
C 17.1746 29.76097 0.00199
C 17.19612 28.32227 0.01511
C 18.3769 27.63832 -0.00478
C 17.16968 25.55175 -0.01662
C 17.22423 24.18364 -0.01185
C 17.3758 21.15142 0.01126
C 17.24523 19.70261 0.01852
C 18.40145 17.80377 -0.00381
C 17.25689 17.04457 0.03046
C 17.23774 15.57846 0.0296
C 18.56307 13.42 -0.02845
C 21.07308 9.0126 0.03102
C 19.7958 8.48729 0.02555
C 19.61763 6.98349 0.01423
C 25.79151 27.69187 -0.00294
C 25.92764 6.49453 0.00152
C 25.76658 5.11472 0.01257
C 24.51999 4.29101 0.02316
C 24.52616 2.87581 0.04185
C 25.76068 2.16085 0.00194
C 25.70443 0.71244 -0.00621
C 24.47715 0.00405 0.02611
C 26.93618 32.65025 0.02198
C 28.14949 31.9848 0.01094
C 28.22911 30.52805 0.00235
C 26.95883 29.81872 0.01495
C 26.96758 28.31735 0.01259
C 28.29323 27.6985 0.01799
C 28.19587 26.27722 0.01699
C 28.46409 18.96748 -0.00416
C 28.35773 6.6883 0.01177
C 28.23261 5.15016 0.04266
C 26.9741 4.30678 0.01324
C 24.70661 28.416 0.00826
C 24.51533 29.80262 0.00487
C 25.78237 30.55001 -0.00942
C 25.69321 31.91512 -0.02815
C 20.87604 6.33897 -0.00285
C 20.80737 4.94748 -0.009
C 19.6033 4.27825 -0.01199
C 19.57528 2.77353 -0.00229
C 20.88894 2.11554 -0.00938
C 20.91685 0.6275 -0.0264
C 19.5942 34.05024 -0.01154
C 22.07705 32.58681 0.00684
C 23.21578 31.89867 -0.01052
C 3.66821 32.01631 0.01996
C 23.22545 30.41612 -0.01679
C 22.02223 7.16903 0.04306
C 23.2562 6.47247 0.00996
C 23.28948 4.96549 0.00195
C 22.11435 4.20309 -0.00802
C 22.06584 2.84804 -0.00218
C 23.27967 2.1894 -0.01654
C 23.27908 0.64448 -0.00037
C 22.04449 34.04587 -0.0032
C 24.45894 32.59901 0.00622
C 21.98872 29.75948 0.00367
C 2.44601 32.70652 -0.00279
