440
Graphene
C 0.06357 34.03353 0.01295
C 13.56808 19.17573 -0.01634
C 13.48494 17.85655 -0.00334
C 12.24559 17.15875 0.02339
C 12.24023 15.66727 0.01641
C 13.40336 14.88537 -0.00719
C 13.50095 13.47924 0.01364
C 12.15894 12.78436 -0.01062
C 12.21298 11.41821 -0.00033
C 13.42078 10.48678 0.03589
C 13.23815 9.0905 -0.02759
C 12.63641 4.39074 0.0402
C 12.36231 2.94014 0.00572
C 13.54177 2.09016 0.03592
C 13.52343 0.74051 0.00406
C 12.27307 0.04105 0.00943
C 14.74339 32.63891 0.02841
C 15.94142 31.98493 -0.01111
C 15.90327 30.4915 -0.01275
C 14.6971 29.83769 0.00985
C 14.71918 28.45952 -0.02245
C 15.90957 27.66281 -0.00428
C 15.96863 26.27328 0.03101
C 14.70998 25.61454 -0.01536
C 12.27861 19.94181 0.00057
C 12.23484 21.37276 0.00093
C 13.54014 22.06669 0.01291
C 13.51387 23.49243 0.00438
C 9.82171 15.71225 -0.00095
C 11.02412 14.94773 0.01572
C 11.02864 13.53807 -0.04848
C 9.82206 12.8176 -0.00892
C 9.8026 11.34981 -0.01362
C 11.03898 10.59561 -0.0008
C 11.34288 9.24361 0.0288
C 10.02755 8.41655 0.00393
C 10.04481 6.97361 0.00895
C 11.23539 5.09738 0.00685
C 10.05619 4.36393 0.02888
C 14.7717 24.14653 -0.02689
C 9.92407 2.97046 -0.00482
C 11.14245 0.82315 0.03693
C 9.89151 0.12222 0.01745
C 12.23613 32.66119 0.00488
C 13.48391 31.9748 -0.01004
C 13.43967 30.50998 -0.02896
C 12.23147 29.77582 -0.00131
C 12.28163 28.41038 -0.01118
C 13.55106 27.71387 -0.014
C 13.52162 26.287 0.02147
C 12.28339 25.57147 0.00373
C 12.33856 24.22298 -0.00191
C 11.1438 2.26442 -0.01384
C 9.79556 17.07791 0.03007
C 15.97578 23.41738 -0.01046
C 14.71167 21.33269 0.02819
C 18.45066 23.40592 0.02058
C 18.47902 21.97149 -0.01957
C 17.25325 21.3059 -0.0108
C 17.20446 19.87673 -0.00368
C 18.45776 19.15869 -0.02696
C 18.44242 17.71032 -0.00114
C 17.2395 16.98951 0.00228
C 17.14842 15.60311 0.00798
C 18.42002 14.86842 0.00422
C 18.36501 13.52371 0.0351
C 17.11495 12.73335 -0.03113
C 17.06431 11.27682 0.02098
C 18.33224 10.6452 0.01848
C 18.32441 9.22373 -0.00619
C 17.12852 8.58054 -0.02162
C 17.08528 7.1293 0.00889
C 18.39143 6.41326 -0.00481
C 18.3048 5.01588 0.00979
C 16.97618 4.35203 0.01443
C 17.12708 2.91065 0.03505
C 18.42948 2.14954 -0.02815
C 18.37867 0.69939 -0.04147
C 17.19454 34.07746 -0.05302
C 17.27309 24.11701 0.01965
C 17.19929 25.49791 -0.03682
C 18.4399 26.28227 0.00052
C 18.3975 27.66013 0.00374
C 14.69599 19.8906 0.00165
C 15.95655 19.18833 -0.02971
C 15.96872 17.73618 0.02894
C 14.7062 17.01648 -0.01789
C 14.64494 15.6055 0.00444
C 15.8419 14.90706 -0.00925
C 15.88286 13.44954 0.01877
C 14.65674 12.72672 0.01363
C 14.65431 11.29943 -0.02162
C 15.86473 10.56651 0.00415
C 15.80298 9.16145 -0.0014
C 16.01447 22.0315 -0.00891
C 14.60343 8.1751 0.02162
C 15.57878 5.14986 0.01241
C 14.40245 4.29375 -0.01454
C 14.65417 2.93812 0.01945
C 15.89545 2.16852 0.01416
C 15.98611 0.72185 0.03542
C 14.6942 0.0142 0.02299
C 17.18741 32.70261 0.00244
C 18.4187 31.87763 -0.01717
C 18.34693 30.47005 0.05265
C 17.12947 29.81443 -0.01952
C 17.15956 28.32928 -0.02813
C 15.76538 6.68983 0.0076
C 19.64756 32.69872 0.00213
C 11.00263 17.78512 0.00054
C 9.81413 19.91329 -0.00562
C 3.71632 0.74445 0.04421
C 2.48671 34.07804 0.00088
C 4.90091 32.63972 0.00828
C 6.13205 31.91757 -0.02375
C 6.17811 30.50283 0.00558
C 4.95894 29.81348 -0.0059
C 4.8426 28.43591 -0.01386
C 6.16569 27.68383 -0.02805
C 6.13973 26.24273 0.00081
C 4.90621 25.52729 0.00245
C 4.9057 24.15925 0.02728
C 6.1773 23.43718 -0.00039
C 6.06244 22.00894 0.0064
C 4.82196 21.2687 0.00211
C 4.82096 19.8703 -0.00449
C 6.07919 19.2554 -0.01979
C 6.04807 17.82109 0.02784
C 4.84439 16.99025 -0.01977
C 4.8542 15.5488 -0.00561
C 6.08097 14.88012 0.00208
C 6.09799 13.46852 0.01707
C 4.79665 12.86181 0.02769
C 4.80582 11.4239 -0.03291
C 3.75818 2.20525 -0.00177
C 2.50227 2.88357 0.03278
C 2.50968 4.2555 0.01138
C 3.71961 5.02874 -0.00407
C 3.69471 30.51812 0.01116
C 2.47328 29.85819 -0.0005
C 2.49923 28.44491 -0.00018
C 3.69683 27.67783 0.01073
C 3.72895 26.24071 0.01984
C 2.49355 25.62128 0.00535
C 2.42477 24.14106 -0.00198
C 3.73133 23.4102 -0.00012
C 3.66551 22.0408 -0.04306
C 2.42831 21.32976 -0.03672
C 2.40344 19.81886 0.01913
C 6.11645 10.74967 -0.04999
C 3.62476 19.15842 0.00267
C 2.43074 17.01972 0.02426
C 2.40763 15.56423 0.01218
C 3.60595 14.90481 -0.01471
C 3.54018 13.49237 -0.02827
C 2.33424 12.73352 0.01078
C 2.42139 11.37094 -0.00112
C 3.66349 10.64557 0.03345
C 3.69084 9.26975 0.00748
C 2.45581 8.54693 0.00662
C 2.5067 7.16443 -0.0154
C 3.71756 6.43429 -0.01299
C 3.6662 17.70915 0.00787
C 11.02846 19.24947 -0.00494
C 6.223 9.36357 0.04505
C 4.95081 7.16667 -0.04307
C 8.60456 10.62441 -0.00725
C 8.75799 9.18853 -0.05697
C 7.44507 8.59484 0.01087
C 7.48465 7.15855 -0.01343
C 8.84309 6.39729 0.00988
C 8.69492 5.02033 0.0276
C 7.48352 4.41979 0.01305
C 7.44671 2.97119 -0.00077
C 8.64728 2.26291 0.03368
C 8.62426 0.84743 -0.02929
C 7.41498 0.04924 -0.00966
C 9.85905 32.7883 -0.03337
C 11.006 32.04079 0.01227
C 10.98846 30.61222 0.00873
C 9.83691 29.9578 -0.00049
C 9.85853 28.47889 0.00848
C 11.02314 27.71226 -0.01303
C 11.0323 26.28391 -0.01378
C 9.81992 25.64279 0.02635
C 9.83446 24.15069 0.0127
C 11.06622 23.50248 0.01396
C 11.02196 22.04321 0.01849
C 9.8161 21.28168 -0.01142
C 7.37427 11.45084 0.02322
C 7.38239 12.82053 -0.00094
C 8.58085 13.63753 -0.02566
C 8.57111 15.06332 -0.03113
C 6.25677 6.4823 0.03189
C 6.25457 5.10295 0.00031
C 5.04516 4.41003 -0.003
C 4.92834 2.93843 0.01402
C 6.11426 2.24101 0.02379
C 6.16961 0.72204 0.00907
C 4.93902 0.01663 0.00643
C 7.40361 32.69798 -0.01509
C 8.64024 32.04223 0.03267
C 8.54681 30.59327 0.02374
C 7.33326 29.83829 0.00402
C 4.96798 8.59401 0.03284
C 7.36529 28.45947 0.0073
C 8.61388 26.30367 0.03828
C 7.36603 25.61151 0.01226
C 7.37956 24.17357 -0.00279
C 8.56222 23.48403 0.01996
C 8.61794 22.05638 -0.03996
C 7.31959 21.30538 0.01465
C 7.33476 19.90786 -0.00074
C 8.55842 19.18231 -0.00518
C 8.53459 17.73731 0.0086
C 7.22825 17.11716 -0.00643
C 7.27152 15.63676 0.017
C 8.57816 27.74502 0.0174
C 20.88253 31.9838 -0.00066
C 20.85798 30.52886 -0.00289
C 19.62441 29.85043 0.00028
C 30.71241 14.8912 -0.0405
C 30.69433 13.52527 -0.01303
C 29.53905 12.74757 -0.01461
C 29.50248 11.28808 -0.02155
C 30.68461 10.57611 -0.00944
C 30.75889 9.04975 -0.03735
C 29.55251 8.44498 -0.00971
C 29.54441 7.03011 0.01518
C 30.7538 6.29668 0.01908
C 30.74892 4.87599 0.07705
C 29.54868 4.1891 0.0103
C 29.52719 2.75981 0.02108
C 30.81451 2.1347 0.00716
C 30.76429 0.67345 0.00307
C 29.51258 0.01658 0.00346
C 32.04822 32.65927 0.01713
C 33.20399 31.93474 -0.01694
C 33.16179 30.57288 0.01428
C 31.9503 29.84656 -0.02142
C 31.93751 28.44471 0.0544
C 33.18956 27.73848 0.00026
C 33.13813 26.27641 0.00682
C 31.86679 25.53435 -0.01779
C 29.52078 15.69708 0.01705
C 29.6995 17.25018 0.0101
C 30.96092 17.94962 -0.00669
C 29.27149 21.2349 0.03531
C 27.05897 12.71421 0.00194
C 27.06547 11.36053 -0.00621
C 28.23864 10.6208 0.02611
C 28.19226 9.18566 0.02198
C 26.98718 8.46946 0.01094
C 27.03683 6.98808 0.00235
C 28.28778 6.31749 0.01495
C 28.32719 4.9318 0.01259
C 27.17156 4.22646 0.01799
C 27.02409 2.83629 0.01699
C 28.25764 2.11669 -0.00416
C 31.83039 24.12801 0.03794
C 28.31489 0.74895 0.01177
C 29.50253 32.65516 0.01324
C 30.76662 31.99284 0.0014
C 30.79676 30.56286 0.00924
C 29.54525 29.90505 0.02326
C 29.45495 28.46656 0.00261
C 30.68003 27.71454 0.03265
C 30.65871 26.33897 -0.02049
C 29.43617 25.57414 -0.01854
C 29.47071 24.11406 -0.01415
C 30.59741 23.30317 -0.03039
C 30.5528 21.80089 0.01836
C 27.03999 0.01706 0.04266
C 28.27272 13.40879 0.04185
C 33.07241 23.36836 0.01927
C 31.8235 21.08167 -0.02383
C 34.35543 24.06687 0.03076
C 1.15893 23.36274 0.00723
C 1.1517 21.98107 0.02712
C 34.28457 21.31177 -0.02213
C 34.37121 19.82269 0.01951
C 1.16671 19.17185 -0.01678
C 1.16366 17.7387 0.01223
C 34.4077 16.94619 0.00648
C 34.34176 15.48237 0.02114
C 1.11112 14.88754 -0.02957
C 1.10577 13.45213 0.00343
C 34.40415 12.72848 -0.02656
C 34.36431 11.25993 -0.02442
C 1.16302 10.62549 -0.00027
C 1.19463 9.19196 -0.00583
C 0.00183 8.43167 -0.02302
C 0.0131 7.02015 -0.02849
C 1.31601 6.42214 0.02931
C 1.30649 4.97746 0.00628
C 0.02457 4.28435 -0.0345
C 0.04323 2.84538 -0.00931
C 1.31984 2.12626 -0.00939
C 1.22999 0.69058 -0.00468
C 34.39101 25.56846 -0.05239
C 1.19833 26.27284 -0.00598
C 1.18021 27.7319 -0.00439
C 34.42241 28.40758 -0.01037
C 31.74939 19.60596 -0.01429
C 33.13513 19.05779 -0.0136
C 33.29428 17.63788 0.00594
C 31.94205 17.03727 -0.02474
C 31.93634 15.5561 0.00369
C 33.13224 14.75527 0.00455
C 33.14328 13.3473 -0.00644
C 31.89639 12.66554 -0.01839
C 31.91025 11.2804 0.00137
C 33.13846 10.57871 0.00199
C 33.18216 9.14501 0.04381
C 33.06285 21.85747 0.01574
C 31.96793 8.39687 0.02806
C 33.20081 6.30516 -0.00069
C 33.19609 4.86911 0.04926
C 31.98876 4.20265 -0.03838
C 32.01108 2.76325 0.00349
C 33.27113 2.10507 -0.00323
C 33.28149 0.67771 -0.00841
C 32.01596 34.02609 0.0001
C 0.05827 32.61456 -0.02927
C 1.28054 31.91267 -0.01404
C 1.21608 30.57557 0.01027
C 0.03925 29.90533 0.01831
C 32.03414 6.9638 0.01504
C 28.25674 14.8827 0.02316
C 27.06479 15.65426 0.01257
C 27.12667 17.11574 0.00152
C 22.1087 32.64909 -0.00703
C 23.32717 31.93146 -0.04076
C 23.29569 30.55769 -0.00652
C 22.04969 29.85549 0.0058
C 22.13189 28.48824 -0.00865
C 23.29102 27.77663 0.00675
C 23.25665 26.35204 -0.00311
C 22.08878 25.58886 0.00742
C 22.12168 24.21396 -0.01594
C 23.37156 23.43519 0.0106
C 23.33531 22.04158 -0.01154
C 22.12998 21.3109 -0.01721
C 22.12087 19.78923 -0.02422
C 23.3231 19.15637 0.01277
C 23.32988 17.73236 0.00096
C 22.11352 16.94378 -0.01527
C 22.16069 15.63041 0.01087
C 23.38221 14.96319 0.00199
C 23.29292 13.50735 0.01511
C 22.10228 12.7412 -0.00478
C 22.05256 11.36468 -0.01662
C 23.29244 10.68552 -0.01185
C 23.27224 9.25714 0.01126
C 19.61947 0.00309 0.00654
C 20.85221 0.74399 -0.04422
C 20.88809 2.13931 -0.02957
C 19.62809 2.84833 -0.00831
C 19.58481 28.49034 -0.02213
C 20.86085 27.75659 0.03698
C 20.83574 26.37821 -0.00109
C 19.62232 25.59864 -0.00491
C 19.6729 24.16343 0.03338
C 20.85784 23.51682 -0.0258
C 20.87767 22.05317 -0.0331
C 19.68191 21.27153 -0.00316
C 19.67799 19.81697 0.02188
C 20.85732 19.11084 -0.01979
C 20.97178 17.66539 0.02691
C 22.02852 8.6248 0.01852
C 19.6426 17.01047 -0.01581
C 20.84264 14.88659 0.04892
C 20.86013 13.47849 -0.00111
C 19.61452 12.80659 -0.03557
C 19.58973 11.32889 0.03754
C 20.85644 10.72187 0.01739
C 20.8252 9.33845 0.00755
C 19.56667 8.56053 -0.0054
C 19.63151 7.09551 0.00667
C 20.88248 6.44198 0.00143
C 20.84458 4.96151 -0.017
C 19.56981 4.19249 0.00364
C 19.58611 15.59518 0.01452
C 22.09649 7.16633 -0.00381
C 23.2973 6.40873 0.03046
C 23.26525 4.99096 0.0296
C 24.58468 8.48566 -0.009
C 24.51682 7.14547 -0.01199
C 25.80937 6.33324 -0.00229
C 25.77796 4.87688 -0.00938
C 24.54326 4.2251 -0.0264
C 24.50052 2.85008 -0.01154
C 25.76604 2.19779 0.00684
C 25.83272 0.7097 -0.01052
C 24.49669 0.02049 -0.01679
C 27.08589 32.64289 0.00367
C 28.25768 31.91244 0.04306
C 25.76924 9.24996 -0.00285
C 28.3246 30.50437 0.00996
C 26.97828 28.37775 -0.00802
C 28.19037 27.69454 -0.00218
C 28.25762 26.30878 -0.01654
C 27.07047 25.64422 -0.00037
C 26.968 24.21591 -0.0032
C 28.18861 23.4906 0.00622
C 28.16292 22.07773 -0.02815
C 26.93415 21.31947 -0.00942
C 27.05479 19.92558 0.00487
C 28.27689 19.44236 0.00826
C 28.35927 17.99475 -0.00294
C 27.0157 29.83742 0.00195
C 3.73737 31.97796 -0.0213
C 25.76279 10.63229 0.01423
C 24.56272 12.84646 0.03102
C 22.10442 4.26279 0.03374
C 22.14293 2.82722 -0.02845
C 23.35099 2.17343 -0.03213
C 23.31815 0.66533 0.02239
C 22.04663 34.06514 0.01153
C 24.56302 32.70451 0.02734
C 25.75102 31.99638 -0.0055
C 25.75591 30.55185 0.01515
C 24.57713 29.84083 -0.00225
C 24.59997 28.40052 0.00071
C 25.76217 27.71004 -0.01107
C 24.55542 11.39147 0.02555
C 25.73006 26.3228 -0.01586
C 24.54905 24.23289 -0.02118
C 25.73559 23.48823 0.00733
C 25.72752 22.06492 -0.00178
C 24.56692 21.33081 0.00768
C 24.58469 19.91361 -0.0276
C 25.81496 19.1767 0.03005
C 25.88178 17.77838 -0.04078
C 24.62466 17.03642 0.02117
C 24.64266 15.57921 0.02737
C 25.84686 14.90018 -0.00498
C 25.83114 13.4542 0.00135
C 24.46381 25.65794 -0.01971
C 2.57984 32.67824 -0.00374
