353
Graphene
C 0.01669 0.03234 0.01295
C 18.48561 26.22457 -0.00114
C 17.17296 25.6209 0.00228
C 17.18585 24.17844 0.00798
C 18.45427 23.39026 0.00422
C 18.52955 22.08081 0.0351
C 18.48486 10.62258 -0.03113
C 18.39004 9.20519 0.02098
C 17.15861 8.48457 0.01848
C 18.42458 27.56936 -0.02696
C 17.22287 7.0477 -0.00619
C 18.50065 4.98952 0.00889
C 17.25123 4.2168 -0.00481
C 17.26327 2.82015 0.00979
C 18.49691 2.11258 0.01443
C 18.40826 0.78931 0.03505
C 17.22149 34.03872 -0.02815
C 19.66398 32.60738 -0.04147
C 20.83861 31.89768 -0.05302
C 18.49837 6.32395 -0.02162
C 20.84448 30.49696 0.00213
C 17.19632 28.43449 -0.00368
C 18.45419 30.4809 -0.01957
C 14.71278 29.87637 0.02162
C 14.68595 28.4754 0.0076
C 16.00503 27.73878 0.01241
C 16.01017 26.30327 -0.01454
C 14.77602 25.57338 0.01945
C 14.85563 24.14662 0.01416
C 15.8909 23.51688 0.03542
C 16.03204 9.1978 0.02299
C 17.23374 29.84672 -0.0108
C 14.81826 7.20154 0.00244
C 15.9611 4.96227 0.05265
C 14.7441 4.30312 -0.01952
C 14.77315 2.76154 -0.02813
C 16.00325 2.10991 0.00374
C 16.03464 0.73065 0.00052
C 14.84001 34.06414 -0.03682
C 17.19068 32.59274 0.01965
C 18.43904 31.96952 0.02058
C 16.00165 6.34754 -0.01717
C 15.91631 30.52544 -0.0014
C 19.68066 29.78012 -0.00066
C 21.01431 27.69786 0.00028
C 19.69243 2.87454 -0.017
C 20.94674 2.17 0.00364
C 20.85851 0.8254 -0.00831
C 19.65293 0.049 -0.02957
C 22.09983 32.58689 -0.04422
C 23.36704 31.9234 0.00654
C 23.37522 30.58201 -0.00703
C 22.13554 29.80135 -0.04076
C 19.63616 4.28256 0.00143
C 22.16682 28.42192 -0.00652
C 23.40615 26.23956 -0.00865
C 22.18569 25.61597 0.00675
C 22.14584 24.09917 -0.00311
C 23.38805 23.41408 0.00742
C 23.37204 21.99602 -0.01594
C 22.17939 21.24817 0.0106
C 22.07423 19.88077 -0.01154
C 23.32194 19.15117 -0.01721
C 23.40255 27.64091 0.0058
C 19.71182 28.33487 -0.00289
C 20.8784 5.01134 0.00667
C 19.65248 7.09058 0.00755
C 20.88726 26.28774 -0.02213
C 19.63297 25.59065 0.03698
C 19.65107 24.17176 -0.00109
C 20.87731 23.42593 -0.00491
C 20.96283 21.9627 0.03338
C 19.66247 21.27396 -0.0258
C 19.69314 19.90202 -0.0331
C 20.87253 19.22173 -0.00316
C 20.9522 6.41042 -0.0054
C 20.88057 17.78264 0.02188
C 19.70717 15.68121 0.02691
C 20.83532 14.863 -0.01581
C 20.88508 13.47189 0.01452
C 19.76493 12.79876 0.04892
C 19.60567 11.38432 -0.00111
C 20.87446 10.64974 -0.03557
C 20.85454 9.23547 0.03754
C 19.66833 8.49406 0.01739
C 19.64282 16.94569 -0.01979
C 15.98484 31.95633 0.00415
C 14.78935 32.64713 -0.02162
C 12.27876 0.00709 0.01363
C 6.12791 30.46236 0.03007
C 4.86486 29.79475 -0.00095
C 4.90106 28.37345 0.01572
C 6.09176 27.66365 -0.04848
C 6.18103 26.24339 -0.00892
C 4.99368 25.58503 -0.01362
C 4.78916 24.19911 -0.0008
C 4.88606 8.51651 0.0288
C 6.11976 31.94559 0.00054
C 4.9189 7.13352 0.00393
C 6.16816 5.02522 0.00685
C 4.95017 4.20305 0.02888
C 4.88614 2.83548 -0.00482
C 6.1066 2.15132 -0.01384
C 6.11017 0.70106 0.03693
C 4.90892 34.07905 0.01745
C 7.36501 32.72571 0.00488
C 8.6168 31.94037 -0.01004
C 6.17531 6.45161 0.00895
C 8.6096 30.57538 -0.02896
C 4.91971 32.65427 -0.00494
C 3.62518 0.76933 -0.01142
C 3.69359 30.56078 0.00988
C 2.43127 29.80789 0.0276
C 2.40804 28.39836 0.01305
C 3.62786 27.73682 -0.00077
C 3.7344 26.2285 0.03368
C 2.539 25.58142 -0.02929
C 2.45275 24.11436 -0.00966
C 3.81866 23.43663 -0.03337
C 2.46936 0.00134 -0.00562
C 2.35212 21.27838 0.01227
C 3.713 9.3071 -0.00049
C 2.48057 8.53903 0.00848
C 2.48694 7.07686 -0.01303
C 3.69041 6.41974 -0.01378
C 3.75501 4.95709 0.02635
C 2.44857 4.22126 0.0127
C 2.51084 2.83934 0.01396
C 3.60811 2.08809 0.01849
C 2.43598 11.48279 0.00873
C 7.34443 29.86085 -0.00131
C 7.34032 28.41187 -0.01118
C 8.63868 27.74499 -0.014
C 11.05266 2.06172 -0.01111
C 11.11912 0.70723 -0.01275
C 9.87782 0.07449 0.00985
C 12.29863 32.71132 -0.02245
C 13.5048 31.94899 -0.00428
C 13.46304 30.47999 0.03101
C 12.26631 29.79455 -0.01536
C 12.3298 28.39527 -0.02689
C 9.84386 2.80278 0.02841
C 13.52584 27.72147 -0.01046
C 12.32628 25.65233 0.02819
C 12.26296 7.09374 0.00165
C 13.59347 6.43 -0.02971
C 13.58605 4.96871 0.02894
C 12.31077 4.31707 -0.01789
C 12.24069 2.72953 0.00444
C 13.49697 2.09803 -0.00925
C 13.49615 0.71633 0.01877
C 13.46939 26.21645 -0.00891
C 9.83198 4.2568 0.00943
C 11.04363 5.00376 0.00406
C 11.03981 6.4852 0.03592
C 8.63809 26.16715 0.02147
C 7.35634 25.61683 0.00373
C 7.36815 7.14798 -0.00191
C 8.64183 6.4496 0.00438
C 8.59725 4.9545 0.01291
C 7.3814 4.27554 0.00093
C 7.40466 2.87693 0.00057
C 8.6019 2.15091 -0.01634
C 8.5863 0.77065 -0.00334
C 7.43087 0.01326 0.02339
C 9.8514 32.72755 0.01641
C 11.0714 32.01141 -0.00719
C 11.10852 30.60322 0.01364
C 9.79742 29.94482 -0.01062
C 9.81357 28.4733 -0.00033
C 11.07425 27.72008 0.03589
C 11.0043 26.22947 -0.02759
C 9.84296 25.64268 0.0402
C 9.83999 7.06783 0.00572
C 23.36662 17.73168 -0.02422
C 3.64611 31.99493 -0.01343
C 22.07656 17.07203 0.01277
C 23.35648 14.90424 -0.01527
C 33.12592 31.94937 -0.01694
C 33.14762 30.56349 0.01428
C 31.97401 29.78504 -0.02142
C 31.99703 28.38199 0.0544
C 33.16712 27.74877 0.00026
C 33.17432 26.3175 0.00682
C 32.0228 25.61298 -0.01779
C 31.9926 24.0878 0.03794
C 31.96119 32.67758 0.01713
C 33.15413 23.41043 0.01927
C 31.99016 21.30081 -0.02383
C 31.93784 19.93074 -0.01429
C 33.10775 19.17222 -0.0136
C 33.13541 17.76229 0.00594
C 31.93745 16.97258 -0.02474
C 31.99659 15.65894 0.00369
C 33.15672 14.89008 0.00455
C 33.22416 13.51582 -0.00644
C 33.21715 21.9662 0.01574
C 31.97774 12.76613 -0.01839
C 29.50794 0.0238 0.00346
C 30.79582 2.13989 0.00716
C 29.53963 21.34979 -0.03039
C 29.53034 19.88195 0.01836
C 30.73562 19.16484 0.03531
C 30.71177 17.74083 -0.00669
C 29.44224 17.09195 0.0101
C 29.5659 15.61382 0.01705
C 30.78052 14.86472 -0.0405
C 30.80228 13.46608 -0.01303
C 30.74671 0.72725 0.00307
C 29.52637 12.80493 -0.01461
C 30.74752 10.65986 -0.00944
C 30.72999 9.2129 -0.03735
C 29.51199 8.50478 -0.00971
C 29.5023 7.12357 0.01518
C 30.79475 6.44375 0.01908
C 30.74917 4.90199 0.07705
C 29.54686 4.22128 0.0103
C 29.53968 2.83316 0.02108
C 29.51615 11.40311 -0.02155
C 30.77621 21.97662 -0.01415
C 31.912 11.37742 0.00137
C 33.25675 9.19061 0.04381
C 1.17908 19.05606 -0.01678
C 1.15798 17.84817 0.01223
C 34.39326 17.0103 0.00648
C 34.39138 15.63703 0.02114
C 1.19322 14.8301 -0.02957
C 1.2404 13.49608 0.00343
C 0.05745 12.76824 -0.02656
C 34.4022 11.37936 -0.02442
C 0.07293 19.86908 0.01951
C 1.25234 10.61845 -0.00027
C 0.02814 8.53194 -0.02302
C 0.03517 7.07011 -0.02849
C 1.19777 6.36048 0.02931
C 1.2349 4.92973 0.00628
C 34.41895 4.25972 -0.0345
C 34.41441 2.82736 -0.00931
C 1.26392 2.20462 -0.00939
C 1.22256 0.72682 -0.00468
C 1.26482 9.27901 -0.00583
C 33.14523 10.68359 0.00199
C 34.42831 21.29269 -0.02213
C 1.2091 23.44322 0.00723
C 32.01948 8.57773 0.02806
C 32.01873 7.11184 0.01504
C 33.17268 6.35122 -0.00069
C 33.20334 5.001 0.04926
C 31.98387 4.29751 -0.03838
C 32.0182 2.89938 0.00349
C 33.15249 2.04189 -0.00323
C 33.17657 0.67198 -0.00841
C 1.22733 22.00799 0.02712
C 32.02384 34.06502 0.0001
C 1.14977 31.91462 -0.01404
C 1.15274 30.54338 0.01027
C 34.40694 29.78761 0.01831
C 34.39852 28.38888 -0.01037
C 1.21267 27.64734 -0.00439
C 1.24691 26.31092 -0.00598
C 0.00183 25.62795 -0.05239
C 34.43098 24.15897 0.03076
C 34.41946 32.65213 -0.02927
C 30.69687 23.39925 -0.01854
C 29.4571 24.14131 -0.02049
C 29.51264 25.56302 0.03265
C 24.64034 24.09037 -0.01586
C 25.85052 23.42419 -0.01971
C 25.78258 22.05939 -0.02118
C 24.60597 21.31598 0.00733
C 24.55663 19.94211 -0.00178
C 25.7862 19.19062 0.00768
C 25.77825 17.75342 -0.0276
C 24.58353 17.0875 0.03005
C 24.61578 25.54327 -0.01107
C 24.59977 15.63182 -0.04078
C 25.81552 13.47447 0.02737
C 24.58668 12.77927 -0.00498
C 24.58949 11.39294 0.00135
C 25.81193 10.71977 0.03102
C 25.83288 9.16793 0.02555
C 24.58261 8.47098 0.01423
C 24.52743 7.07428 -0.00285
C 25.81579 6.40011 -0.009
C 25.85778 14.91783 0.02117
C 25.73281 4.90008 -0.01199
C 25.77951 26.28093 0.00071
C 24.60481 28.40079 0.01515
C 23.35478 13.43356 0.01087
C 22.10703 12.77641 0.00199
C 22.15206 11.30748 0.01511
C 23.38226 10.64659 -0.00478
C 23.39266 9.2438 -0.01662
C 22.11776 8.49456 -0.01185
C 22.16232 7.03331 0.01126
C 23.36339 6.336 0.01852
C 25.78094 27.69792 -0.00225
C 23.33447 4.95421 -0.00381
C 22.1872 2.82728 0.0296
C 23.37067 2.15908 0.03374
C 23.26093 0.70645 -0.02845
C 22.04372 34.05486 -0.03213
C 24.59617 32.62088 0.02239
C 25.77431 31.94736 0.01153
C 25.85978 30.50678 0.02734
C 24.61208 29.81207 -0.0055
C 22.03331 4.27259 0.03046
C 24.52464 4.19136 -0.00229
C 24.60139 2.82853 -0.00938
C 25.84753 2.12602 -0.0264
C 28.35539 10.59915 0.00194
C 28.33494 9.18317 -0.00621
C 27.09581 8.50337 0.02611
C 27.05257 7.10217 0.02198
C 28.31583 6.31074 0.01094
C 28.24161 4.9246 0.00235
C 27.02558 4.27554 0.01495
C 27.10246 2.78194 0.01259
C 27.14441 11.31265 0.04185
C 28.26904 2.09116 0.01799
C 27.05272 34.05465 -0.00416
C 29.53915 32.66476 0.01177
C 30.73846 31.92343 0.04266
C 30.79117 30.52241 0.01324
C 29.47503 29.81238 0.0014
C 29.53304 28.41439 0.00924
C 30.8024 27.66955 0.02326
C 30.80235 26.27042 0.00261
C 28.31542 0.73032 0.01699
C 27.06937 12.80036 0.02316
C 28.30554 13.41559 0.01257
C 28.27894 14.90941 0.00152
C 25.85567 0.73388 -0.01154
C 24.56933 0.08573 0.00684
C 27.03038 32.6427 -0.01052
C 28.28419 31.97621 -0.01679
C 28.25811 30.5638 0.00367
C 27.04108 29.81176 0.04306
C 27.0847 28.42897 0.00996
C 28.26938 27.763 0.00195
C 28.29536 26.24538 -0.00802
C 27.07227 25.63682 -0.00218
C 27.10605 24.16186 -0.01654
C 28.31878 23.3873 -0.00037
C 28.22599 21.9644 -0.0032
C 27.06457 21.31337 0.00622
C 27.03752 19.84459 -0.02815
C 28.41597 19.20176 -0.00942
C 28.23804 17.78716 0.00487
C 27.039 17.03983 0.00826
C 27.06409 15.60298 -0.00294
C 22.02543 15.63438 0.00096
C 2.3721 32.67204 0.01087
