360
Graphene
C 0.00682 0.05256 0.01295
C 16.99387 25.61582 0.02058
C 17.17644 24.22275 -0.01957
C 18.12082 23.25629 -0.0108
C 18.43274 21.96694 -0.00368
C 18.39402 19.092 -0.02696
C 18.31534 17.9312 -0.00114
C 18.29415 14.93885 0.00228
C 18.20073 13.55788 0.00798
C 18.29646 26.32019 0.01965
C 17.0616 12.83482 0.00422
C 18.44605 10.5013 -0.03113
C 18.47903 9.0619 0.02098
C 17.21277 8.42941 0.01848
C 17.1876 6.98068 -0.00619
C 18.40207 6.26639 -0.02162
C 18.39666 4.88286 0.00889
C 17.14543 4.19709 -0.00481
C 17.20321 2.73597 0.00979
C 17.24709 11.29132 0.0351
C 18.47642 27.70433 -0.03682
C 17.19842 28.45867 0.00052
C 17.20777 29.9411 0.00374
C 14.78909 29.82806 -0.00925
C 14.82252 28.46282 0.01877
C 15.96382 27.71207 0.01363
C 15.81492 26.30089 -0.02162
C 14.70868 11.25044 0.00415
C 16.06899 10.6131 -0.0014
C 16.00294 9.17464 0.02162
C 14.76579 8.47288 0.0076
C 14.73909 7.10927 0.01241
C 15.89567 6.24751 -0.01454
C 15.98699 4.87252 0.01945
C 14.72259 4.2459 0.01416
C 14.67483 2.89687 0.03542
C 16.00353 2.16388 0.02299
C 15.9501 0.73885 0.00244
C 14.69035 0.05416 -0.01717
C 17.27265 32.65122 0.05265
C 18.48193 31.92159 -0.01952
C 18.49444 30.55354 -0.02813
C 18.45063 2.05922 0.01443
C 15.94054 30.57046 0.00444
C 18.42581 0.64211 0.03505
C 19.811 32.64023 -0.04147
C 19.61277 7.01891 0.00755
C 20.85297 6.30098 -0.0054
C 20.8981 4.91667 0.00667
C 19.66925 4.24761 0.00143
C 19.6322 2.78464 -0.017
C 20.82797 2.08052 0.00364
C 20.83221 0.6684 -0.00831
C 19.62072 34.0397 -0.02957
C 19.68486 8.42534 0.01739
C 22.21717 32.66951 -0.04422
C 23.3592 30.47969 -0.00703
C 22.15876 29.73961 -0.04076
C 22.17437 28.33046 -0.00652
C 23.38722 27.65175 0.0058
C 23.28529 26.26179 -0.00865
C 22.0191 25.65506 0.00675
C 22.0969 24.1816 -0.00311
C 23.2519 23.44469 0.00742
C 23.42449 31.97201 0.00654
C 20.90774 9.1277 0.03754
C 20.8982 10.57261 -0.03557
C 19.68696 11.34574 -0.00111
C 21.01353 31.92873 -0.05302
C 20.97733 30.49144 0.00213
C 19.71523 29.74878 -0.00066
C 19.67899 28.3812 -0.00289
C 20.88642 27.64026 0.00028
C 20.74305 26.22636 -0.02213
C 19.48543 25.58277 0.03698
C 19.58696 24.12678 -0.00109
C 20.82399 23.43703 -0.00491
C 20.81402 22.00784 0.03338
C 19.59503 21.34373 -0.0258
C 19.5488 19.90737 -0.0331
C 20.75721 19.17878 -0.00316
C 20.8124 17.79409 0.02188
C 19.51794 17.03055 -0.01979
C 19.50934 15.66642 0.02691
C 20.79903 14.83725 -0.01581
C 20.88006 13.43398 0.01452
C 19.55371 12.77763 0.04892
C 17.19049 0.03152 -0.02815
C 23.3302 21.94281 -0.01594
C 15.98386 32.01218 -0.01789
C 12.1441 0.01347 -0.02971
C 4.77519 30.00131 0.01396
C 4.78469 28.58085 0.01849
C 5.99071 27.83048 -0.01142
C 5.03397 11.28958 -0.00562
C 6.05312 10.83023 -0.00494
C 6.22342 9.29434 0.00054
C 4.86912 8.61659 0.03007
C 4.98069 7.17284 -0.00095
C 6.06293 30.64389 0.0127
C 6.14209 6.51857 0.01572
C 4.83166 4.40263 -0.00892
C 4.80957 3.046 -0.01362
C 5.98447 2.29403 -0.0008
C 6.03293 0.78655 0.0288
C 4.78497 0.084 0.00393
C 7.33222 32.75379 0.00895
C 8.52837 32.04202 0.00685
C 8.51205 30.5851 0.02888
C 6.04092 5.12798 -0.04848
C 6.10679 32.07262 0.02635
C 4.84282 32.77553 -0.01378
C 2.39111 0.07969 -0.01303
C 3.62153 30.67044 -0.02566
C 2.41931 29.84144 -0.00094
C 2.41737 28.47363 0.02322
C 3.62879 27.74048 -0.00725
C 3.72661 26.39229 -0.05697
C 2.66699 25.494 0.01087
C 2.35134 24.22797 -0.01343
C 2.50927 12.72816 0.00988
C 2.47252 11.36559 0.0276
C 3.71442 10.74343 0.01305
C 3.65515 9.33722 -0.00077
C 2.41111 8.58838 0.03368
C 2.50511 7.15162 -0.02929
C 3.67031 6.52645 -0.00966
C 3.60263 5.11041 -0.03337
C 2.48549 4.36548 0.01227
C 2.53814 2.94815 0.00873
C 3.6829 2.1641 -0.00049
C 3.59682 0.74882 0.00848
C 7.26098 29.88791 -0.00482
C 14.74321 32.72386 0.02894
C 7.21584 28.36597 -0.01384
C 8.59433 9.33075 0.01745
C 10.97333 0.78739 0.0402
C 9.73215 0.05337 0.00572
C 12.24888 32.70257 0.03592
C 13.51909 32.03395 0.00406
C 13.51802 30.54039 0.00943
C 12.29211 29.85551 0.02841
C 12.28926 28.24942 -0.01111
C 13.62182 27.62981 -0.01275
C 11.05939 2.2007 -0.02759
C 13.72172 10.65114 0.00985
C 12.28874 8.62196 -0.00428
C 12.31484 7.18106 0.03101
C 13.53098 6.43826 -0.01536
C 13.49861 4.94107 -0.02689
C 12.26007 4.33473 -0.01046
C 12.32273 2.91788 -0.00891
C 13.47906 2.22823 0.02819
C 13.35531 0.74025 0.00165
C 13.54479 9.23072 -0.02245
C 9.80208 2.93749 0.03589
C 9.8325 4.3491 -0.00033
C 11.08096 5.02861 -0.01062
C 7.39771 8.60973 0.00488
C 7.38308 7.2125 -0.01004
C 8.63071 6.49757 -0.02896
C 8.59937 5.09566 -0.00131
C 7.38731 4.39177 -0.01118
C 7.2973 2.93983 -0.014
C 8.50489 2.18301 0.02147
C 8.56176 0.71713 0.00373
C 7.29265 0.07766 -0.00191
C 9.78573 32.67773 0.00438
C 10.9974 31.95961 0.01291
C 11.05147 30.52966 0.00093
C 9.72819 29.92948 0.00057
C 9.80491 28.35639 -0.01634
C 11.05753 27.86185 -0.00334
C 11.10568 9.31247 0.02339
C 9.88592 8.64276 0.01641
C 9.87487 7.22748 -0.00719
C 11.08926 6.44021 0.01364
C 8.52835 27.88023 0.03693
C 22.08698 21.22485 0.0106
C 22.08268 19.81782 -0.01154
C 23.29257 19.06043 -0.01721
C 32.0219 32.67473 0.01713
C 33.24799 31.92213 -0.01694
C 33.22073 30.46487 0.01428
C 31.88718 29.79974 -0.02142
C 31.93119 28.40268 0.0544
C 33.22906 27.63853 0.00026
C 33.21599 26.19601 0.00682
C 31.99795 25.55774 -0.01779
C 29.52129 0.05526 0.00346
C 31.93399 24.18461 0.03794
C 33.04658 22.03371 0.01574
C 31.83497 21.30803 -0.02383
C 31.82087 19.88357 -0.01429
C 33.08763 19.15029 -0.0136
C 33.06377 17.79606 0.00594
C 31.83979 17.12488 -0.02474
C 31.82045 15.64842 0.00369
C 33.09547 14.90344 0.00455
C 33.15699 23.47865 0.01927
C 30.7654 0.75835 0.00307
C 30.7165 2.19841 0.00716
C 29.47332 2.90623 0.02108
C 30.68324 23.41385 -0.01854
C 30.63226 22.01357 -0.01415
C 29.42361 21.28096 -0.03039
C 29.41071 19.90554 0.01836
C 30.57876 19.15938 0.03531
C 30.65755 17.74395 -0.00669
C 29.4265 16.97186 0.0101
C 29.45496 15.52612 0.01705
C 30.70891 14.87305 -0.0405
C 30.74243 13.44109 -0.01303
C 29.46395 12.7362 -0.01461
C 29.49429 11.36409 -0.02155
C 30.66983 10.64599 -0.00944
C 30.68181 9.29079 -0.03735
C 29.45076 8.56152 -0.00971
C 29.47401 7.14955 0.01518
C 30.7281 6.47081 0.01908
C 30.73398 4.98708 0.07705
C 29.46291 4.26227 0.0103
C 33.28118 13.50576 -0.00644
C 29.43878 24.09682 -0.02049
C 31.97098 12.7884 -0.01839
C 33.17717 10.72488 0.00199
C 1.06119 19.10919 -0.01678
C 1.10295 17.91863 0.01223
C 34.35134 17.04666 0.00648
C 34.41566 15.63887 0.02114
C 1.08326 14.88911 -0.02957
C 1.38562 13.62529 0.00343
C 0.05752 12.79214 -0.02656
C 34.43084 11.46246 -0.02442
C 34.36074 19.86909 0.01951
C 1.21512 10.72443 -0.00027
C 34.43246 8.5308 -0.02302
C 0.05069 7.06702 -0.02849
C 1.23342 6.37508 0.02931
C 1.24274 5.02983 0.00628
C 34.40532 4.30706 -0.0345
C 34.41449 2.90346 -0.00931
C 1.2489 2.27423 -0.00939
C 1.18057 0.80286 -0.00468
C 1.18825 9.2542 -0.00583
C 34.32752 21.25821 -0.02213
C 1.20219 21.98214 0.02712
C 1.2618 23.39204 0.00723
C 33.22032 9.3342 0.04381
C 31.98462 8.53469 0.02806
C 31.92068 7.19024 0.01504
C 33.2469 6.4717 -0.00069
C 33.14497 5.05322 0.04926
C 31.97193 4.33145 -0.03838
C 31.9288 2.97549 0.00349
C 33.18717 2.20255 -0.00323
C 33.20343 0.71582 -0.00841
C 31.95158 0.10524 0.0001
C 34.40518 32.67704 -0.02927
C 1.19645 32.02457 -0.01404
C 1.21721 30.54979 0.01027
C 0.01058 29.83198 0.01831
C 0.02289 28.38917 -0.01037
C 1.29175 27.68712 -0.00439
C 1.22455 26.28528 -0.00598
C 0.01331 25.57099 -0.05239
C 34.42611 24.19533 0.03076
C 31.90571 11.35787 0.00137
C 29.50535 25.51687 0.03265
C 30.73695 26.22044 0.00261
C 30.73394 27.69303 0.02326
C 25.80856 27.65563 -0.00225
C 25.80854 26.27906 0.00071
C 24.51373 25.56046 -0.01107
C 24.45751 24.10934 -0.01586
C 25.71958 23.47748 -0.01971
C 25.6995 22.03782 -0.02118
C 24.5157 21.26885 0.00733
C 24.48968 19.78805 -0.00178
C 24.62377 28.4242 0.01515
C 25.72499 19.08693 0.00768
C 24.52356 16.98499 0.03005
C 24.48189 15.56628 -0.04078
C 25.69061 14.87447 0.02117
C 25.71586 13.44978 0.02737
C 24.51632 12.79947 -0.00498
C 24.53452 11.37321 0.00135
C 25.76545 10.611 0.03102
C 25.76985 9.20207 0.02555
C 25.79005 17.65437 -0.0276
C 24.60702 29.85346 -0.0055
C 25.71332 30.60365 0.02734
C 25.83414 31.99741 0.01153
C 23.27265 17.68867 -0.02422
C 22.08033 16.98744 0.01277
C 21.98871 15.52255 0.00096
C 23.28657 14.86972 -0.01527
C 23.2374 13.44562 0.01087
C 22.0086 12.7097 0.00199
C 22.06894 11.30177 0.01511
C 23.36291 10.63253 -0.00478
C 23.34596 9.2247 -0.01662
C 22.09048 8.51278 -0.01185
C 22.11186 7.02541 0.01126
C 23.27978 6.32978 0.01852
C 23.35134 4.91878 -0.00381
C 22.23176 4.22492 0.03046
C 22.13843 2.77864 0.0296
C 23.38904 2.14758 0.03374
C 23.29715 0.68874 -0.02845
C 22.02487 34.07203 -0.03213
C 24.57015 32.73234 0.02239
C 24.56031 8.51087 0.01423
C 24.53491 7.04839 -0.00285
C 25.79144 6.43902 -0.009
C 25.80176 4.96679 -0.01199
C 28.23841 13.38989 0.01257
C 26.90263 12.65574 0.02316
C 27.03017 11.2925 0.04185
C 28.30404 10.62049 0.00194
C 28.24194 9.21858 -0.00621
C 27.02888 8.47776 0.02611
C 27.00099 7.04658 0.02198
C 28.28184 6.35905 0.01094
C 28.21945 4.94789 0.00235
C 26.93642 4.2237 0.01495
C 26.97465 2.81093 0.01259
C 28.25861 2.18404 0.01799
C 28.24785 0.77141 0.01699
C 27.06485 0.03896 -0.00416
C 29.54704 32.74986 0.01177
C 30.81226 31.99223 0.04266
C 30.73332 30.54239 0.01324
C 29.53004 29.88227 0.0014
C 29.5243 28.42864 0.00924
C 28.22923 14.78524 0.00152
C 3.64232 32.08225 -0.03113
C 27.0084 15.51978 -0.00294
C 28.13018 17.66589 0.00487
C 24.54941 4.26861 -0.00229
C 24.61355 2.86528 -0.00938
C 25.75413 2.13798 -0.0264
C 25.77381 0.73383 -0.01154
C 24.5181 0.01864 0.00684
C 27.02316 32.60986 -0.01052
C 28.36542 32.01064 -0.01679
C 28.19279 30.50788 0.00367
C 26.98225 29.87362 0.04306
C 26.98184 28.42416 0.00996
C 28.22794 27.73912 0.00195
C 28.24965 26.21995 -0.00802
C 27.04411 25.56734 -0.00218
C 26.96657 24.14922 -0.01654
C 28.18081 23.43363 -0.00037
C 28.1618 22.00914 -0.0032
C 26.93271 21.31356 0.00622
C 26.96622 19.9097 -0.02815
C 28.17474 19.1529 -0.00942
C 27.008 16.88649 0.00826
C 2.39775 32.72283 0.017
