353
Graphene
C 34.38548 0.04539 0.01295
C 16.9675 15.65255 -0.00114
C 18.33072 14.86115 0.00228
C 18.35372 13.48984 0.00798
C 17.14811 12.78784 0.00422
C 17.25816 11.27728 0.0351
C 18.45895 10.64844 -0.03113
C 18.44834 9.22485 0.02098
C 17.20459 8.5566 0.01848
C 16.97966 17.12336 -0.02696
C 17.09394 7.18426 -0.00619
C 18.33029 5.07351 0.00889
C 17.10553 4.33199 -0.00481
C 17.0505 2.90261 0.00979
C 18.34463 2.13499 0.01443
C 18.39577 0.67528 0.03505
C 17.19525 34.03916 -0.02815
C 19.79323 32.70419 -0.04147
C 20.94432 31.91654 -0.05302
C 18.34254 6.48564 -0.02162
C 20.8494 30.43247 0.00213
C 18.19198 17.81287 -0.00368
C 18.4785 22.18468 -0.01957
C 15.99905 9.23661 0.02162
C 14.69702 8.6304 0.0076
C 14.58629 7.28122 0.01241
C 15.81947 6.48721 -0.01454
C 15.90756 5.0988 0.01945
C 14.66631 4.39038 0.01416
C 14.6719 2.94568 0.03542
C 15.89998 2.17732 0.02299
C 18.34904 19.21172 -0.0108
C 15.95713 0.72483 0.00244
C 17.16772 32.62237 0.05265
C 18.49366 31.9519 -0.01952
C 18.45697 30.49386 -0.02813
C 17.23255 29.76878 0.00374
C 17.108 28.42774 0.00052
C 18.22801 27.54775 -0.03682
C 18.4962 26.19908 0.01965
C 18.52656 23.33202 0.02058
C 14.66646 34.06219 -0.01717
C 16.02556 10.63861 -0.0014
C 19.67199 29.74965 -0.00066
C 20.86324 27.67769 0.00028
C 19.57061 2.87376 -0.017
C 20.78708 2.13181 0.00364
C 20.85015 0.65801 -0.00831
C 19.63677 34.03144 -0.02957
C 22.18849 32.57855 -0.04422
C 23.3859 31.85922 0.00654
C 23.31455 30.40244 -0.00703
C 22.10878 29.74714 -0.04076
C 19.58207 4.24859 0.00143
C 22.02047 28.41973 -0.00652
C 23.38553 26.2505 -0.00865
C 22.20611 25.61255 0.00675
C 22.17447 24.14724 -0.00311
C 23.39749 23.45841 0.00742
C 23.3861 21.99773 -0.01594
C 22.16773 21.22981 0.0106
C 22.08517 19.8799 -0.01154
C 23.27848 19.15792 -0.01721
C 23.31412 27.71693 0.0058
C 19.59514 28.38756 -0.00289
C 20.82257 4.91689 0.00667
C 19.59131 7.11636 0.00755
C 20.93318 26.25271 -0.02213
C 19.73488 25.5657 0.03698
C 19.74198 24.06886 -0.00109
C 20.98288 23.35435 -0.00491
C 20.88375 21.98452 0.03338
C 19.60534 21.29299 -0.0258
C 19.56664 19.87965 -0.0331
C 20.81274 19.22587 -0.00316
C 20.83457 6.34861 -0.0054
C 20.82295 17.74962 0.02188
C 19.51413 15.67737 0.02691
C 20.77878 14.91385 -0.01581
C 20.85303 13.48011 0.01452
C 19.60477 12.85308 0.04892
C 19.75045 11.48029 -0.00111
C 20.94659 10.67885 -0.03557
C 20.95768 9.21173 0.03754
C 19.71835 8.53343 0.01739
C 19.62861 17.04124 -0.01979
C 14.86304 11.53987 0.00415
C 15.7542 13.3307 -0.02162
C 15.90309 14.68916 0.01363
C 6.13671 32.00967 0.03007
C 6.01137 30.59908 -0.00095
C 4.8093 29.86199 0.01572
C 4.85997 28.41621 -0.04848
C 6.01042 27.63658 -0.00892
C 5.1194 25.90693 -0.01362
C 6.35667 9.27818 -0.0008
C 5.05223 8.76783 0.0288
C 4.89372 32.72874 0.00054
C 4.93503 7.28498 0.00393
C 6.08044 5.11734 0.00685
C 4.89839 4.38515 0.02888
C 4.89921 2.90623 -0.00482
C 6.09749 2.18505 -0.01384
C 6.06186 0.77034 0.03693
C 4.83328 0.02302 0.01745
C 7.32989 32.7746 0.00488
C 8.47992 31.95809 -0.01004
C 6.09025 6.53883 0.00895
C 8.44899 30.47999 -0.02896
C 2.45378 0.04489 -0.00494
C 3.74234 2.18801 -0.01142
C 3.61056 30.59123 0.00988
C 2.42614 29.85181 0.0276
C 2.3771 28.43516 0.01305
C 3.62148 27.77386 -0.00077
C 3.72215 26.41524 0.03368
C 2.52255 25.48595 -0.02929
C 2.56216 24.04483 -0.00966
C 3.66107 23.30599 -0.03337
C 3.63474 0.70382 -0.00562
C 2.43706 21.07448 0.01227
C 3.56736 10.84982 -0.00049
C 3.70954 9.47531 0.00848
C 2.48404 8.7175 -0.01303
C 2.46079 7.32587 -0.01378
C 3.708 6.57423 0.02635
C 3.70808 5.20627 0.0127
C 2.51094 4.40876 0.01396
C 2.46355 2.91644 0.01849
C 2.45916 11.45253 0.00873
C 7.22325 29.78543 -0.00131
C 7.10191 28.40444 -0.01118
C 7.45542 8.55754 -0.014
C 13.54195 31.89321 -0.01111
C 13.57111 30.31324 -0.01275
C 12.29332 29.94948 0.00985
C 13.65464 10.90565 -0.02245
C 13.46639 9.49847 -0.00428
C 12.18894 8.85087 0.03101
C 12.16255 7.28322 -0.01536
C 13.38152 6.55372 -0.02689
C 12.25617 32.64979 0.02841
C 13.45393 5.14201 -0.01046
C 12.28173 2.91784 0.02819
C 13.45731 2.17444 0.00165
C 13.4312 0.79263 -0.02971
C 12.19545 34.05403 0.02894
C 14.73662 32.6865 -0.01789
C 15.92941 31.97563 0.00444
C 15.99655 30.55271 -0.00925
C 14.83531 29.81441 0.01877
C 12.2741 4.35656 -0.00891
C 9.78589 0.02607 0.00943
C 11.00968 0.78346 0.00406
C 11.0462 2.2549 0.03592
C 7.39156 7.22251 0.02147
C 8.54165 6.39598 0.00373
C 8.57803 4.93387 -0.00191
C 7.3042 4.29828 0.00438
C 7.36565 2.93703 0.01291
C 8.6832 2.26771 0.00093
C 8.52121 0.76672 0.00057
C 7.27587 0.08529 -0.01634
C 9.78862 32.71544 -0.00334
C 10.99379 31.91739 0.02339
C 11.0093 30.37912 0.01641
C 9.70648 29.7608 -0.00719
C 10.80688 9.25583 0.01364
C 9.69513 8.50609 -0.01062
C 9.73511 7.07493 -0.00033
C 11.00644 6.46618 0.03589
C 11.05584 5.06519 -0.02759
C 9.90698 4.31851 0.0402
C 9.84634 2.98788 0.00572
C 23.29843 17.77355 -0.02422
C 3.67801 31.93624 -0.01343
C 22.14969 17.02787 0.01277
C 23.30717 14.89915 -0.01527
C 33.20121 31.9769 -0.01694
C 33.20825 30.5398 0.01428
C 31.92681 29.77965 -0.02142
C 32.00866 28.39186 0.0544
C 33.26415 27.71722 0.00026
C 33.26463 26.27009 0.00682
C 32.00487 25.58468 -0.01779
C 31.96463 24.20429 0.03794
C 31.9155 32.68968 0.01713
C 33.22719 23.48147 0.01927
C 31.89427 21.32666 -0.02383
C 31.83134 19.9004 -0.01429
C 33.07796 19.26709 -0.0136
C 33.23802 17.85679 0.00594
C 31.95021 17.06996 -0.02474
C 31.88321 15.58421 0.00369
C 33.18508 14.87198 0.00455
C 33.14605 13.51337 -0.00644
C 33.22541 22.02956 0.01574
C 31.86522 12.74935 -0.01839
C 29.39391 0.02531 0.00346
C 30.64342 2.121 0.00716
C 29.52431 21.33294 -0.03039
C 29.44957 19.87231 0.01836
C 30.61809 19.17271 0.03531
C 30.73128 17.7417 -0.00669
C 29.4663 16.97805 0.0101
C 29.47283 15.58506 0.01705
C 30.63224 14.87922 -0.0405
C 30.69199 13.455 -0.01303
C 30.5844 0.78586 0.00307
C 29.46933 12.76631 -0.01461
C 30.7306 10.57587 -0.00944
C 30.71095 9.22159 -0.03735
C 29.53839 8.48472 -0.00971
C 29.54291 7.10376 0.01518
C 30.74258 6.41375 0.01908
C 30.74592 5.03053 0.07705
C 29.50082 4.23171 0.0103
C 29.42168 2.81691 0.02108
C 29.52324 11.30061 -0.02155
C 30.66811 22.0161 -0.01415
C 31.88447 11.3012 0.00137
C 33.1801 9.20912 0.04381
C 1.2037 19.28396 -0.01678
C 1.22722 18.03616 0.01223
C 0.10166 17.01645 0.00648
C 0.04855 15.64264 0.02114
C 1.20053 14.82665 -0.02957
C 1.1571 13.49072 0.00343
C 34.29736 12.70452 -0.02656
C 34.34702 11.35128 -0.02442
C 34.23837 19.93458 0.01951
C 1.20188 10.80711 -0.00027
C 34.41638 8.546 -0.02302
C 0.05674 7.12884 -0.02849
C 1.29689 6.54188 0.02931
C 1.25764 5.14442 0.00628
C 0.06677 4.30386 -0.0345
C 0.03456 2.89836 -0.00931
C 1.25452 2.16905 -0.00939
C 1.2294 0.69891 -0.00468
C 1.19855 9.31101 -0.00583
C 33.14649 10.62165 0.00199
C 34.36587 21.33585 -0.02213
C 1.32431 23.28748 0.00723
C 31.99642 8.43633 0.02806
C 31.99339 7.02365 0.01504
C 33.26466 6.41285 -0.00069
C 33.25802 4.94668 0.04926
C 31.94852 4.26651 -0.03838
C 31.92582 2.87349 0.00349
C 33.22398 2.18459 -0.00323
C 33.1268 0.72767 -0.00841
C 1.19626 21.87946 0.02712
C 31.82521 0.08366 0.0001
C 1.17054 31.92984 -0.01404
C 1.22306 30.47977 0.01027
C 34.39859 29.73969 0.01831
C 34.42851 28.38979 -0.01037
C 1.18545 27.57696 -0.00439
C 1.23821 26.14828 -0.00598
C 0.03985 25.51011 -0.05239
C 0.05713 24.05592 0.03076
C 34.36899 32.70477 -0.02927
C 30.76396 23.42708 -0.01854
C 29.57914 24.11174 -0.02049
C 29.53885 25.62557 0.03265
C 24.59931 24.14257 -0.01586
C 25.8281 23.51075 -0.01971
C 25.75437 22.03426 -0.02118
C 24.53681 21.29968 0.00733
C 24.50744 19.81634 -0.00178
C 25.78288 19.17923 0.00768
C 25.766 17.77584 -0.0276
C 24.53643 17.06795 0.03005
C 24.63667 25.60379 -0.01107
C 24.45897 15.60639 -0.04078
C 25.77987 13.45413 0.02737
C 24.61267 12.77467 -0.00498
C 24.5786 11.31067 0.00135
C 25.82489 10.5917 0.03102
C 25.76496 9.22771 0.02555
C 24.57657 8.52828 0.01423
C 24.62143 7.03061 -0.00285
C 25.87444 6.38104 -0.009
C 25.73031 14.9275 0.02117
C 25.88238 4.98409 -0.01199
C 25.85656 26.31754 0.00071
C 24.549 28.46669 0.01515
C 23.40456 13.43628 0.01087
C 22.16902 12.79138 0.00199
C 22.13753 11.42976 0.01511
C 23.30732 10.69667 -0.00478
C 23.35031 9.23064 -0.01662
C 22.14861 8.52496 -0.01185
C 22.11378 7.08048 0.01126
C 23.30201 6.35629 0.01852
C 25.77667 27.75309 -0.00225
C 23.35485 4.91124 -0.00381
C 22.04311 2.83527 0.0296
C 23.27331 2.11144 0.03374
C 23.3733 0.67241 -0.02845
C 22.09977 34.01331 -0.03213
C 24.56916 32.64448 0.02239
C 25.8029 31.93099 0.01153
C 25.75683 30.49839 0.02734
C 24.54367 29.76921 -0.0055
C 22.09822 4.21021 0.03046
C 24.5817 4.30865 -0.00229
C 24.55609 2.86228 -0.00938
C 25.67179 2.12013 -0.0264
C 28.30409 10.63388 0.00194
C 28.26564 9.21781 -0.00621
C 27.0293 8.50642 0.02611
C 27.03625 7.07413 0.02198
C 28.36606 6.39948 0.01094
C 28.33743 4.93906 0.00235
C 27.04267 4.21746 0.01495
C 26.92533 2.82483 0.01259
C 27.05869 11.25942 0.04185
C 28.1323 2.10836 0.01799
C 26.93918 0.04224 -0.00416
C 29.42566 32.69352 0.01177
C 30.73873 31.9358 0.04266
C 30.70833 30.56582 0.01324
C 29.4721 29.84748 0.0014
C 29.54486 28.43656 0.00924
C 30.73442 27.72114 0.02326
C 30.74817 26.30351 0.00261
C 28.1683 0.73247 0.01699
C 26.96715 12.72092 0.02316
C 28.26124 13.46353 0.01257
C 28.25227 14.86167 0.00152
C 25.80008 0.73568 -0.01154
C 24.57332 34.0245 0.00684
C 26.93355 32.63991 -0.01052
C 28.1862 31.95681 -0.01679
C 28.22611 30.56413 0.00367
C 27.00093 29.84073 0.04306
C 27.04138 28.42131 0.00996
C 28.28966 27.70604 0.00195
C 28.22409 26.28685 -0.00802
C 27.0013 25.57916 -0.00218
C 26.98246 24.15064 -0.01654
C 28.31588 23.44561 -0.00037
C 28.18571 22.0371 -0.0032
C 27.00155 21.29669 0.00622
C 26.98794 19.90045 -0.02815
C 28.25358 19.2147 -0.00942
C 28.17067 17.6977 0.00487
C 26.96698 16.95708 0.00826
C 26.98537 15.54516 -0.00294
C 22.04015 15.54675 0.00096
C 2.4156 32.72354 0.01087
