351
Graphene
C 0.05475 34.02053 0.01295
C 14.84108 4.2655 0.00228
C 14.76763 2.81069 0.00798
C 15.93552 2.08443 0.00422
C 15.96516 0.6222 0.0351
C 14.7689 33.95994 -0.03113
C 17.21301 32.54404 0.02098
C 18.4297 31.85833 0.01848
C 18.39781 30.43505 -0.00619
C 15.83944 4.99971 -0.00114
C 17.1586 29.72109 -0.02162
C 18.37129 27.58319 -0.00481
C 18.41114 26.11316 0.00979
C 17.30826 25.44929 0.01443
C 17.23948 23.98144 0.03505
C 18.4234 23.29716 -0.02815
C 18.40892 21.89706 -0.04147
C 17.013 21.32098 -0.05302
C 17.35363 19.86503 0.00213
C 17.1331 28.2914 0.00889
C 18.35736 19.22998 -0.00066
C 14.61606 21.60366 -0.02696
C 15.83627 23.67404 -0.0108
C 13.49201 27.48935 0.0076
C 12.13468 25.02787 0.01241
C 13.51122 25.36235 -0.01454
C 13.35812 21.69208 0.01945
C 12.09675 21.65825 0.01416
C 12.19602 4.35548 0.03542
C 12.35157 2.91461 0.02299
C 13.54139 2.13404 0.00244
C 15.88277 22.14559 -0.00368
C 13.51388 0.68221 -0.01717
C 14.75817 32.55104 -0.01952
C 15.98739 31.84543 -0.02813
C 15.9805 30.4829 0.00374
C 14.72902 29.77474 0.00052
C 14.73312 28.16587 -0.03682
C 15.89873 27.49285 0.01965
C 16.03618 26.11404 0.02058
C 14.90861 24.9246 -0.01957
C 12.31935 0.00076 0.05265
C 12.36359 28.30655 0.02162
C 18.31312 6.36561 -0.00289
C 17.07861 4.3011 -0.02213
C 20.87902 10.85389 0.00364
C 20.70637 9.4852 -0.00831
C 19.57287 8.55425 -0.02957
C 19.52652 7.18438 -0.04422
C 20.83993 6.47846 0.00654
C 20.84092 4.98048 -0.00703
C 19.62527 4.24956 -0.04076
C 19.74773 2.83305 -0.00652
C 21.028 13.70145 -0.017
C 20.92268 2.16817 0.0058
C 19.6385 34.04874 0.00675
C 22.10657 32.658 -0.00311
C 23.32015 31.95795 0.00742
C 23.4116 30.54136 -0.01594
C 22.13567 29.81069 0.0106
C 22.13553 28.36883 -0.01154
C 23.4097 27.61231 -0.01721
C 23.59925 26.16453 -0.02422
C 20.97379 0.70159 -0.00865
C 18.26897 4.92395 0.00028
C 20.83783 15.19882 0.00143
C 20.95039 17.57875 -0.0054
C 17.15333 2.83575 0.03698
C 18.43921 2.12377 -0.00109
C 18.43509 0.65079 -0.00491
C 17.1653 34.02638 0.03338
C 19.66889 32.61027 -0.0258
C 20.87555 31.84577 -0.0331
C 20.87252 30.50432 -0.00316
C 19.60056 29.73738 0.02188
C 19.88141 16.46181 0.00667
C 19.64392 28.24981 -0.01979
C 20.98971 26.17482 -0.01581
C 19.71446 25.56793 0.01452
C 19.66871 24.09539 0.04892
C 20.90358 23.40086 -0.00111
C 20.81006 21.93034 -0.03557
C 19.63885 21.1554 0.03754
C 19.66021 19.67308 0.01739
C 20.86484 19.02751 0.00755
C 20.93268 27.61997 0.02691
C 22.31209 25.5259 0.01277
C 12.32236 29.78551 -0.0014
C 13.54387 31.93331 -0.02162
C 3.66402 2.13248 0.01572
C 3.70197 0.74906 -0.04848
C 2.52119 0.0212 -0.00892
C 4.918 32.75248 -0.01362
C 6.07882 32.02745 -0.0008
C 6.11334 30.53497 0.0288
C 4.92481 29.82845 0.00393
C 4.92786 28.43051 0.00895
C 2.4623 2.84348 -0.00095
C 6.11376 27.75908 0.00685
C 4.8044 25.65978 -0.00482
C 4.6586 24.18047 -0.01384
C 5.9864 23.48766 0.03693
C 6.00906 22.01035 0.01745
C 4.69857 21.36868 0.00488
C 4.64519 11.90366 -0.01004
C 4.98556 8.48357 -0.02896
C 5.13238 7.15203 -0.00131
C 6.09254 26.23182 0.02888
C 6.24378 6.31157 -0.01118
C 2.4445 4.24496 0.03007
C 3.75161 6.39925 -0.00494
C 3.73136 30.5528 0.01305
C 2.47283 29.87537 -0.00077
C 2.42254 28.4441 0.03368
C 3.6453 27.80485 -0.02929
C 3.60549 26.36846 -0.00966
C 2.30913 25.6889 -0.03337
C 2.22793 24.19469 0.01227
C 3.45633 23.56949 0.00873
C 3.70339 4.95964 0.00054
C 3.51574 22.08794 -0.00049
C 2.33301 19.96524 -0.01303
C 4.08836 12.77889 -0.01378
C 2.52697 12.88582 0.02635
C 2.33464 11.42784 0.0127
C 3.55768 10.77276 0.01396
C 3.87489 9.35252 0.01849
C 2.55785 8.62165 -0.01142
C 2.51838 7.1849 -0.00562
C 2.36145 21.3236 0.00848
C 13.51492 30.51682 0.00415
C 6.16436 4.90178 -0.014
C 4.89159 2.78544 0.00373
C 11.09624 31.92848 -0.01275
C 11.07181 30.52654 0.00985
C 9.89602 29.74973 -0.02245
C 9.93817 28.28934 -0.00428
C 11.23165 27.47669 0.03101
C 11.16972 26.07873 -0.01536
C 9.80763 25.59237 -0.02689
C 9.75308 24.20437 -0.01046
C 9.91511 32.67924 -0.01111
C 11.11787 23.80253 -0.00891
C 9.96415 21.36632 0.00165
C 11.15188 4.88004 -0.02971
C 9.66174 4.58415 0.02894
C 9.73651 2.98086 -0.01789
C 11.01663 2.20933 0.00444
C 11.05934 0.87063 -0.00925
C 9.84353 0.05967 0.01877
C 12.27914 32.66097 0.01363
C 10.958 22.3785 0.02819
C 4.8933 4.17813 0.02147
C 7.37694 34.05618 0.02841
C 8.54299 2.20308 0.00406
C 6.14013 2.06649 -0.00191
C 6.21863 0.64757 0.00438
C 4.95486 34.07326 0.01291
C 7.41384 32.61436 0.00093
C 8.68595 31.92649 0.00057
C 8.64071 30.52872 -0.01634
C 7.37771 29.82412 -0.00334
C 7.42077 28.36359 0.02339
C 8.61159 0.73164 0.00943
C 8.68903 27.67126 0.01641
C 7.26238 25.49399 0.01364
C 7.303 24.10309 -0.01062
C 8.53272 23.41669 -0.00033
C 8.55149 21.84284 0.03589
C 7.26299 21.46342 -0.02759
C 8.44914 5.12676 0.0402
C 7.40911 4.25912 0.00572
C 7.30011 2.9097 0.03592
C 8.57626 26.21928 -0.00719
C 3.69599 32.01642 0.0276
C 22.15257 24.09318 0.00096
C 23.26565 22.00183 0.01087
C 33.2081 31.93312 -0.01694
C 33.16792 30.47978 0.01428
C 31.89725 29.74271 -0.02142
C 31.8671 28.36803 0.0544
C 33.12614 27.7602 0.00026
C 33.02223 26.29698 0.00682
C 31.7715 25.55733 -0.01779
C 31.66262 24.21949 0.03794
C 31.91663 32.61348 0.01713
C 32.9511 23.5192 0.01927
C 31.72301 21.43871 -0.02383
C 31.77147 20.01025 -0.01429
C 33.07016 19.29102 -0.0136
C 33.09499 17.88639 0.00594
C 31.91104 17.18924 -0.02474
C 31.86413 15.68983 0.00369
C 33.15439 14.98042 0.00455
C 33.18157 13.53401 -0.00644
C 33.01143 22.14009 0.01574
C 31.92447 12.83099 -0.01839
C 29.51808 0.01886 0.00346
C 30.69546 2.17007 0.00716
C 29.1926 21.42559 -0.03039
C 29.39685 19.97858 0.01836
C 30.51835 19.32245 0.03531
C 30.6817 17.87642 -0.00669
C 29.44075 17.12828 0.0101
C 29.47662 15.57742 0.01705
C 30.68641 14.96203 -0.0405
C 30.70948 13.49503 -0.01303
C 30.71968 0.70741 0.00307
C 29.54626 12.71269 -0.01461
C 30.76625 10.61893 -0.00944
C 30.79688 9.22944 -0.03735
C 29.50391 8.48724 -0.00971
C 29.52878 7.08761 0.01518
C 30.74464 6.32985 0.01908
C 30.74018 4.89003 0.07705
C 29.48453 4.22203 0.0103
C 29.47328 2.8404 0.02108
C 29.5727 11.30719 -0.02155
C 30.25934 22.24767 -0.01415
C 31.9715 11.35584 0.00137
C 33.24922 9.26312 0.04381
C 1.19717 19.229 -0.01678
C 1.163 17.78585 0.01223
C 34.32622 17.16623 0.00648
C 34.39858 15.68045 0.02114
C 1.18142 14.99533 -0.02957
C 1.385 13.64819 0.00343
C 34.42385 12.94371 -0.02656
C 34.38766 11.45061 -0.02442
C 34.28484 20.0351 0.01951
C 1.20659 10.67398 -0.00027
C 0.10411 8.59676 -0.02302
C 0.05523 7.1302 -0.02849
C 1.32314 6.43032 0.02931
C 1.2992 4.98516 0.00628
C 0.11513 4.27903 -0.0345
C 34.43131 2.84719 -0.00931
C 1.24739 2.09503 -0.00939
C 1.24426 0.63363 -0.00468
C 1.24989 9.28018 -0.00583
C 33.19744 10.65425 0.00199
C 34.29654 21.43755 -0.02213
C 1.0494 23.49273 0.00723
C 32.04799 8.42605 0.02806
C 32.03468 7.01048 0.01504
C 33.31767 6.29321 -0.00069
C 33.26396 4.9085 0.04926
C 31.98332 4.16637 -0.03838
C 32.00196 2.77004 0.00349
C 33.20904 2.07457 -0.00323
C 33.25198 0.64186 -0.00841
C 1.11322 22.1153 0.02712
C 31.97023 0.02507 0.0001
C 1.20305 31.93755 -0.01404
C 1.26745 30.53691 0.01027
C 0.02174 29.85127 0.01831
C 34.34449 28.47723 -0.01037
C 1.18883 27.78747 -0.00439
C 1.07076 26.35757 -0.00598
C 34.27992 25.65219 -0.05239
C 34.22597 24.17787 0.03076
C 34.38886 32.61534 -0.02927
C 23.38916 23.40773 -0.01527
C 30.29386 23.75991 -0.01854
C 30.5288 26.24793 0.03265
C 25.78835 32.01365 -0.01971
C 25.7711 30.59142 -0.02118
C 24.57097 29.86021 0.00733
C 24.71094 28.25745 -0.00178
C 25.89577 27.55173 0.00768
C 26.35782 26.12339 -0.0276
C 25.01435 25.34629 0.03005
C 24.63155 24.03968 -0.04078
C 24.55309 32.67402 -0.01586
C 24.46237 21.41471 0.02117
C 25.78349 19.28282 -0.00498
C 25.81211 17.79839 0.00135
C 24.54678 17.19267 0.03102
C 24.60231 15.7131 0.02555
C 25.77039 14.97208 0.01423
C 25.80128 13.53206 -0.00285
C 24.60053 12.80591 -0.009
C 24.54221 11.35952 -0.01199
C 24.52977 19.97566 0.02737
C 25.70073 10.67337 -0.00229
C 22.15128 34.02447 -0.01107
C 23.30841 2.0889 -0.00225
C 22.1149 21.21562 0.00199
C 22.09151 19.83088 0.01511
C 23.40104 19.19684 -0.00478
C 23.29886 17.84045 -0.01662
C 22.16447 17.06659 -0.01185
C 22.17491 15.62962 0.01126
C 23.38848 15.02554 0.01852
C 23.42243 13.57354 -0.00381
C 23.3673 0.70294 0.00071
C 22.13547 12.90249 0.03046
C 23.27377 10.75119 0.03374
C 23.34875 9.28431 -0.02845
C 22.0946 8.56569 -0.03213
C 22.1507 7.19338 0.02239
C 23.3154 6.37383 0.01153
C 23.31886 4.98377 0.02734
C 22.11498 4.36615 -0.0055
C 22.17008 2.87437 0.01515
C 22.08632 11.47675 0.0296
C 29.33981 25.39135 -0.02049
C 25.77955 9.23946 -0.00938
C 24.52882 7.07195 -0.01154
C 26.98936 11.26146 0.00194
C 28.29493 10.54944 -0.00621
C 28.26938 9.13255 0.02611
C 26.96699 8.50833 0.02198
C 27.03508 7.04535 0.01094
C 28.27912 6.36225 0.00235
C 28.28158 4.93573 0.01495
C 27.0638 4.24272 0.01259
C 27.03386 12.74081 0.04185
C 27.00058 2.77792 0.01799
C 28.35333 0.70383 -0.00416
C 27.10574 34.04522 0.01177
C 29.53875 32.66359 0.04266
C 30.66628 31.91111 0.01324
C 30.7007 30.48621 0.0014
C 29.46564 29.86686 0.00924
C 29.37748 28.42569 0.02326
C 30.52159 27.6701 0.00261
C 28.22965 2.12333 0.01699
C 24.5161 8.48365 -0.0264
C 28.26602 13.39798 0.02316
C 27.01669 15.59273 0.00152
C 25.79672 6.39518 0.00684
C 25.74264 4.91384 -0.01052
C 24.54026 4.18411 -0.01679
C 24.59076 2.74193 0.00367
C 25.86116 2.15168 0.04306
C 25.84668 0.68502 0.00996
C 24.59245 34.0346 0.00195
C 27.06754 32.66284 -0.00802
C 28.24275 14.8848 0.01257
C 28.28882 31.91638 -0.00218
C 27.00288 29.85432 -0.00037
C 26.99319 28.44307 -0.0032
C 28.14283 27.70692 0.00622
C 27.96255 26.1247 -0.02815
C 27.04664 19.95738 -0.00942
C 28.17664 19.22551 0.00487
C 28.21003 17.76705 0.00826
C 26.98185 17.04715 -0.00294
C 28.22287 30.51872 -0.01654
C 2.38964 32.70819 0.00988
