399
Graphene
C 34.42934 0.10107 0.01295
C 9.68441 0.13206 -0.02971
C 12.21335 32.62895 0.02894
C 13.38839 31.91185 -0.01789
C 13.40384 30.49784 0.00444
C 12.14004 29.71407 -0.00925
C 12.12941 28.3356 0.01877
C 13.43559 27.72755 0.01363
C 13.5068 26.32221 -0.02162
C 12.31048 25.63687 0.00415
C 12.31141 24.15443 -0.0014
C 13.52028 23.42804 0.02162
C 13.47076 22.00111 0.0076
C 12.28986 21.30565 0.01241
C 12.37389 19.84868 -0.01454
C 13.67701 19.12436 0.01945
C 13.51165 17.81802 0.01416
C 12.32165 17.08695 0.03542
C 12.33549 15.66449 0.02299
C 13.44717 14.95793 0.00244
C 13.57378 13.5093 -0.01717
C 12.35613 12.7906 0.05265
C 10.98494 0.82618 0.00165
C 12.39171 11.40253 -0.01952
C 11.05808 2.14665 0.02819
C 9.79768 4.3097 -0.01046
C 11.01226 26.26475 0.01641
C 9.73579 25.5831 -0.00719
C 9.7482 24.08328 0.01364
C 11.10432 23.44324 -0.01062
C 11.12162 21.98753 -0.00033
C 9.8827 21.28867 0.03589
C 9.84132 19.81769 -0.02759
C 11.14138 19.17113 0.0402
C 11.17073 17.69422 0.00572
C 9.8755 17.07185 0.03592
C 9.80505 15.61205 0.00406
C 11.00364 14.88429 0.00943
C 11.01825 13.58866 0.02841
C 9.92988 12.77781 -0.01111
C 9.85272 11.37927 -0.01275
C 11.06693 10.69942 0.00985
C 11.14736 9.32349 -0.02245
C 9.82188 8.60041 -0.00428
C 9.77919 7.15685 0.03101
C 11.05979 6.46114 -0.01536
C 11.05566 5.03116 -0.02689
C 9.77681 2.81754 -0.00891
C 10.90609 27.65972 0.02339
C 13.61796 10.68501 -0.02813
C 12.31902 8.52318 0.00052
C 16.00507 14.89551 0.00213
C 16.00676 13.51924 -0.00066
C 14.78111 12.79974 -0.00289
C 14.87433 11.39428 0.00028
C 16.08897 10.70398 -0.02213
C 16.13433 9.24117 0.03698
C 14.88052 8.5627 -0.00109
C 14.83985 7.08538 -0.00491
C 16.08438 6.429 0.03338
C 15.99749 5.00566 -0.0258
C 14.761 4.31143 -0.0331
C 14.75497 2.87663 -0.00316
C 15.94818 2.13778 0.02188
C 15.91843 0.67574 -0.01979
C 14.67501 34.05463 0.02691
C 17.16235 32.60738 -0.01581
C 18.39627 31.87288 0.01452
C 18.37057 30.44653 0.04892
C 17.1321 29.78291 -0.00111
C 17.15569 28.37734 -0.03557
C 18.40918 27.7299 0.03754
C 14.71368 15.62807 -0.05302
C 13.58903 9.26708 0.00374
C 14.74246 17.02228 -0.04147
C 16.11278 19.04746 0.03505
C 12.34171 7.12167 -0.03682
C 13.5446 6.47788 0.01965
C 13.53138 5.01627 0.02058
C 12.26036 4.35389 -0.01957
C 12.23829 2.89549 -0.0108
C 13.53083 2.15001 -0.00368
C 13.48301 0.7168 -0.02696
C 12.21601 0.07013 -0.00114
C 14.66547 32.6369 0.00228
C 15.95062 31.90893 0.00798
C 15.8548 30.53036 0.00422
C 14.66728 29.88532 0.0351
C 14.6185 28.44634 -0.03113
C 15.94984 27.76578 0.02098
C 15.93179 26.27282 0.01848
C 14.70331 25.52712 -0.00619
C 14.86138 24.09474 -0.02162
C 16.01218 23.34568 0.00889
C 16.00088 21.82295 -0.00481
C 14.76892 21.21191 0.00979
C 14.91821 19.84765 0.01443
C 16.0418 17.66557 -0.02815
C 18.39428 26.26455 0.01739
C 9.75377 28.38814 -0.00334
C 10.92646 30.57618 0.00057
C 2.44129 4.37283 0.0073
C 2.39863 2.96953 0.0174
C 3.57119 2.27101 0.03828
C 3.67309 0.84525 0.01226
C 2.42898 0.09071 -0.00279
C 4.84612 32.88191 0.01996
C 5.98527 32.0159 -0.03996
C 6.04383 30.60105 0.01465
C 4.85615 29.92659 -0.00074
C 4.85125 28.36934 -0.00518
C 6.108 27.77972 0.0086
C 6.04248 26.30473 -0.00643
C 4.90801 25.58187 0.017
C 4.95103 24.12769 -0.03113
C 6.09309 23.43594 -0.02566
C 6.10218 22.02347 -0.00094
C 4.9125 21.32753 0.02322
C 4.93047 19.9412 -0.00725
C 6.16165 19.20468 -0.05697
C 6.22485 17.80779 0.01087
C 4.9353 16.96514 -0.01343
C 3.65348 5.17795 0.00402
C 4.78319 15.6439 0.00988
C 3.59287 6.54841 0.02374
C 2.36484 8.59008 -0.01509
C 3.68443 30.67657 0.00211
C 2.4372 29.85219 -0.00449
C 2.46151 28.44513 -0.01979
C 3.6054 27.69417 0.02784
C 3.65785 26.24542 -0.01977
C 2.37619 25.55462 -0.00561
C 2.37312 24.05607 0.00208
C 3.68357 23.44555 0.01707
C 3.6507 22.06693 0.02769
C 2.42275 21.27815 -0.03291
C 2.38543 19.86313 -0.04999
C 3.71916 19.18536 0.04505
C 3.68128 17.71045 0.03284
C 2.36368 17.03057 -0.04307
C 2.28248 15.62408 0.03189
C 3.53543 14.92136 0.00031
C 3.58655 13.51399 -0.003
C 2.31025 12.79246 0.01402
C 2.43915 11.42532 0.02379
C 3.63 10.75234 0.00907
C 3.60531 9.27044 0.00643
C 2.32916 7.13521 0.03267
C 9.666 29.92268 -0.01634
C 6.0873 14.91601 0.0276
C 4.8321 12.77876 -0.00077
C 8.61526 19.23037 0.0288
C 8.61022 17.78652 0.00393
C 7.37366 17.04489 0.00895
C 7.34522 15.63848 0.00685
C 8.53341 14.94224 0.02888
C 8.64843 13.49288 -0.00482
C 7.30423 12.75881 -0.01384
C 7.33929 11.43211 0.03693
C 8.57884 10.67259 0.01745
C 8.63368 9.32178 0.00488
C 7.32943 8.60986 -0.01004
C 7.34188 7.18786 -0.02896
C 8.65136 6.46074 -0.00131
C 8.55605 5.03393 -0.01118
C 7.30552 4.39289 -0.014
C 7.29478 3.00123 0.02147
C 8.4685 2.16692 0.00373
C 8.49615 0.73128 -0.00191
C 7.26839 0.06779 0.00438
C 9.70862 32.73262 0.01291
C 10.99515 32.03412 0.00093
C 7.35466 19.91219 -0.0008
C 6.02885 13.53783 0.01305
C 7.25445 21.29504 -0.01362
C 8.60038 23.33282 -0.04848
C 4.91157 11.40417 0.03368
C 6.11149 10.7289 -0.02929
C 6.11486 9.32404 -0.00966
C 4.89469 8.54492 -0.03337
C 4.82558 7.20144 0.01227
C 6.07228 6.58592 0.00873
C 6.10232 5.06782 -0.00049
C 4.80482 4.40302 0.00848
C 4.82456 2.92658 -0.01303
C 6.06189 2.30477 -0.01378
C 6.08243 0.84391 0.02635
C 4.87357 0.20714 0.0127
C 7.25127 32.72978 0.01396
C 8.54537 32.03914 0.01849
C 8.54243 30.63624 -0.01142
C 7.28185 29.91638 -0.00562
C 7.35586 28.54319 -0.00494
C 8.55482 27.74491 0.00054
C 8.56209 26.34711 0.03007
C 7.37007 25.58226 -0.00095
C 7.35056 24.15272 0.01572
C 8.59278 21.9626 -0.00892
C 3.66091 32.10595 0.0064
C 17.14635 25.55487 0.00755
C 18.36152 23.3487 0.00667
C 30.50225 13.38461 0.01518
C 30.54442 6.29385 0.01908
C 30.72898 4.92235 0.07705
C 29.52619 4.17133 0.0103
C 29.46856 2.8482 0.02108
C 30.71263 2.15063 0.00716
C 30.77977 0.76675 0.00307
C 29.55334 0.01992 0.00346
C 31.94684 32.67468 0.01713
C 33.17764 32.00726 -0.01694
C 33.18969 30.57303 0.01428
C 31.94288 29.79746 -0.02142
C 31.9297 28.3162 0.0544
C 33.1856 27.66055 0.00026
C 33.13204 26.31162 0.00682
C 31.86489 25.57081 -0.01779
C 31.87182 24.09875 0.03794
C 33.17379 23.44427 0.01927
C 33.12614 22.03969 0.01574
C 31.92904 21.31939 -0.02383
C 31.90766 19.91374 -0.01429
C 30.43361 14.83432 -0.00971
C 33.10437 19.17795 -0.0136
C 29.36975 15.75318 -0.03735
C 30.61345 17.82874 -0.02155
C 28.19618 19.26513 -0.00416
C 28.36943 5.02928 0.01177
C 27.0788 4.48206 0.04266
C 27.01686 2.91172 0.01324
C 28.15082 2.1558 0.0014
C 28.22636 0.73482 0.00924
C 27.04961 34.02229 0.02326
C 29.54487 32.69869 0.00261
C 30.80714 31.94151 0.03265
C 30.70235 30.52913 -0.02049
C 29.5212 29.80421 -0.01854
C 29.43118 28.41135 -0.01415
C 30.62716 27.66258 -0.03039
C 30.64179 26.2461 0.01836
C 29.39923 25.48047 0.03531
C 29.38958 24.08069 -0.00669
C 30.64209 23.4403 0.0101
C 30.69856 22.05741 0.01705
C 29.41234 21.39187 -0.0405
C 29.39819 19.97335 -0.01303
C 30.65264 19.28336 -0.01461
C 29.38186 17.0886 -0.00944
C 27.13265 19.93577 0.01699
C 33.07767 17.75382 0.00594
C 31.78565 15.60145 0.00369
C 1.14279 21.95178 0.02712
C 34.33902 21.24491 -0.02213
C 34.2352 19.84461 0.01951
C 1.16725 19.19966 -0.01678
C 1.13171 17.72572 0.01223
C 34.31902 17.00566 0.00648
C 34.25745 15.56747 0.02114
C 1.08253 14.94853 -0.02957
C 1.06845 13.53483 0.00343
C 34.25052 12.79372 -0.02656
C 34.31059 11.4355 -0.02442
C 1.1609 10.70214 -0.00027
C 1.22701 9.2487 -0.00583
C 34.42111 8.55492 -0.02302
C 34.28223 7.21291 -0.02849
C 1.02851 6.49696 0.02931
C 1.18976 5.05049 0.00628
C 0.02046 4.27258 -0.0345
C 34.35629 2.89282 -0.00931
C 1.18685 2.16873 -0.00939
C 1.23183 0.75936 -0.00468
C 1.16054 23.3438 0.00723
C 31.77864 16.97285 -0.02474
C 34.41298 24.18369 0.03076
C 1.17573 26.31246 -0.00598
C 33.00304 14.79108 0.00455
C 32.94566 13.40256 -0.00644
C 31.66146 12.6085 -0.01839
C 31.90224 11.17969 0.00137
C 33.12442 10.67687 0.00199
C 33.16589 9.32176 0.04381
C 31.93154 8.64162 0.02806
C 31.58092 7.24907 0.01504
C 32.99716 6.53415 -0.00069
C 33.15395 5.10646 0.04926
C 31.92692 4.23962 -0.03838
C 31.98914 2.84976 0.00349
C 33.23444 2.20535 -0.00323
C 33.22283 0.78283 -0.00841
C 31.99748 0.08348 0.0001
C 34.37964 32.74348 -0.02927
C 1.23146 32.01338 -0.01404
C 1.23479 30.55968 0.01027
C 34.43242 29.87731 0.01831
C 0.0551 28.45642 -0.01037
C 1.26593 27.69578 -0.00439
C 34.39645 25.62512 -0.05239
C 17.14303 24.11476 -0.0054
C 26.97684 21.32905 0.01799
C 28.19721 23.43862 0.01495
C 19.67224 29.84916 0.01511
C 19.66405 28.42519 -0.00478
C 20.86207 27.66956 -0.01662
C 20.79852 26.29438 -0.01185
C 19.59678 25.60459 0.01126
C 19.61346 24.13702 0.01852
C 20.84516 23.46538 -0.00381
C 20.83394 22.03782 0.03046
C 19.68334 21.31697 0.0296
C 19.93578 19.95402 0.03374
C 19.66128 12.98414 -0.02845
C 19.73566 11.46473 -0.03213
C 20.95032 10.68754 0.02239
C 21.03841 9.3478 0.01153
C 19.75157 8.55922 0.02734
C 19.79639 7.07846 -0.0055
C 20.9866 6.39983 0.01515
C 20.89686 4.94948 -0.00225
C 19.75422 4.25627 0.00071
C 19.76769 2.77987 -0.01107
C 20.89901 2.05949 -0.01586
C 20.90079 30.55498 0.00199
C 20.82869 0.64544 -0.01971
C 20.93717 31.92443 0.01087
C 17.11742 34.00556 0.00096
C 18.39295 21.90741 0.00143
C 17.21595 21.12741 -0.017
C 17.38444 19.68316 0.00364
C 18.69245 18.98591 -0.00831
C 18.51966 17.56318 -0.02957
C 17.20171 16.97691 -0.04422
C 17.14141 15.62237 0.00654
C 18.45176 15.10882 -0.00703
C 18.51572 13.71014 -0.04076
C 17.26666 12.80961 -0.00652
C 17.3221 11.38896 0.0058
C 18.51231 10.69963 -0.00865
C 18.47947 9.24883 0.00675
C 17.34438 8.42023 -0.00311
C 17.3621 7.15974 0.00742
C 18.48252 6.33984 -0.01594
C 18.49733 4.93946 0.0106
C 17.21808 4.27932 -0.01154
C 17.24912 2.8541 -0.01721
C 18.3988 2.14248 -0.02422
C 18.41226 0.73013 0.01277
C 19.51879 32.56355 -0.01527
C 28.25478 22.0443 0.01259
C 19.56243 34.00907 -0.02118
C 23.31484 31.99197 -0.00178
C 25.7381 26.19898 -0.00802
C 24.516 25.46885 -0.00218
C 24.58884 24.09176 -0.01654
C 25.77032 23.38819 -0.00037
C 25.66304 21.98697 -0.0032
C 24.57473 21.21654 0.00622
C 25.7964 4.98284 -0.02815
C 24.68228 4.18496 -0.00942
C 24.67337 2.79324 0.00487
C 25.92317 2.09903 0.00826
C 25.86179 0.67152 -0.00294
C 24.68249 34.03054 0.00152
C 27.12523 32.63814 0.01257
C 28.32732 31.96739 0.02316
C 28.25904 30.47365 0.04185
C 27.01864 29.8571 0.00194
C 26.97172 28.40529 -0.00621
C 28.18105 27.67803 0.02611
C 28.19533 26.24317 0.02198
C 26.96192 25.56649 0.01094
C 26.94647 24.13853 0.00235
C 25.73481 27.64529 0.00195
C 22.1438 32.6835 0.00733
C 24.46611 28.31858 0.00996
C 25.75548 30.50145 0.00367
C 23.36408 30.52784 0.00768
C 22.10453 29.79625 -0.0276
C 22.07464 28.38293 0.03005
C 23.22611 27.64419 -0.04078
C 23.28624 26.25534 0.02117
C 22.07929 25.57991 0.02737
C 22.13786 24.11586 -0.00498
C 23.28817 23.28972 0.00135
C 23.23376 21.72202 0.03102
C 21.89982 21.15225 0.02555
C 22.21917 8.51289 0.01423
C 22.42376 7.07451 -0.00285
C 23.51887 6.14172 -0.009
C 23.45693 4.78118 -0.01199
C 22.07729 4.2651 -0.00229
C 22.15409 2.80895 -0.00938
C 23.3405 2.06416 -0.0264
C 23.4336 0.69835 -0.01154
C 22.10507 0.00113 0.00684
C 24.52977 32.6572 -0.01052
C 25.88318 31.85579 -0.01679
C 24.5845 29.75997 0.04306
C 2.41058 32.70336 -0.00039
