318
Graphene
C 34.37577 0.04236 0.01295
C 14.69878 32.66042 -0.00109
C 15.98422 31.94209 -0.00491
C 15.99084 30.51469 0.03338
C 14.61881 29.96844 -0.0258
C 14.73849 15.60318 -0.0331
C 16.01787 14.91606 -0.00316
C 15.91002 13.4884 0.02188
C 14.66631 12.73681 -0.01979
C 14.73596 11.24603 0.02691
C 16.05599 10.65161 -0.01581
C 16.0859 9.22936 0.01452
C 14.83908 8.50045 0.04892
C 14.78984 7.05713 -0.00111
C 16.0371 6.4453 -0.03557
C 15.9751 4.98339 0.03754
C 12.28924 33.96575 0.03698
C 13.54413 0.57059 -0.02213
C 13.55804 1.98169 0.00028
C 12.31995 2.70858 -0.00289
C 11.04747 0.68084 0.0351
C 9.85148 33.99321 -0.03113
C 12.1684 32.6631 0.02098
C 13.37712 31.94294 0.01848
C 13.63515 30.52532 -0.00619
C 13.72096 14.997 -0.02162
C 13.5001 13.5765 0.00889
C 14.72947 4.33583 0.01739
C 12.3355 12.80414 -0.00481
C 13.4847 10.57216 0.01443
C 13.62137 9.23167 0.03505
C 12.34792 8.63305 -0.02815
C 12.31658 7.18071 -0.04147
C 13.53083 6.44199 -0.05302
C 13.50238 5.0134 0.00213
C 12.33181 4.1864 -0.00066
C 12.29709 11.39794 0.00979
C 14.83029 2.84212 0.00755
C 15.98086 2.05617 -0.0054
C 16.06857 0.61765 0.00667
C 17.17046 4.29651 0.01277
C 17.23295 2.87908 0.00096
C 18.41089 2.0415 -0.01527
C 18.50545 0.69378 0.01087
C 17.26677 34.0504 0.00199
C 19.67519 32.64297 0.01511
C 20.86362 32.01075 -0.00478
C 18.50489 5.0981 -0.02422
C 20.93771 30.62135 -0.01662
C 19.62306 28.38401 0.01126
C 20.8813 27.70622 0.01852
C 20.89752 26.24298 -0.00381
C 19.51999 25.53942 0.03046
C 19.68294 24.11179 0.0296
C 20.89335 23.45169 0.03374
C 20.88759 22.00542 -0.02845
C 19.71886 29.79998 -0.01185
C 11.12167 2.00286 0.00422
C 18.39608 6.46571 -0.01721
C 17.18839 8.54487 0.0106
C 14.7822 33.98492 0.00143
C 17.20166 32.65422 -0.017
C 18.39087 31.87549 0.00364
C 18.48265 30.51385 -0.00831
C 17.22107 29.83393 -0.02957
C 17.19386 28.48483 -0.04422
C 18.25172 27.63442 0.00654
C 17.30439 7.16661 -0.01154
C 18.40089 26.32539 -0.00703
C 18.23069 17.86472 -0.00652
C 17.25954 16.97865 0.0058
C 17.23087 15.69979 -0.00865
C 18.62664 14.85771 0.00675
C 18.38203 13.57639 -0.00311
C 17.27687 12.76229 0.00742
C 17.2458 11.404 -0.01594
C 18.50752 19.1716 -0.04076
C 9.84706 2.79152 0.00798
C 9.84522 4.1832 0.00228
C 11.09281 4.93084 -0.00114
C 3.68302 5.02983 -0.00719
C 2.47725 4.32578 0.01364
C 2.43669 2.88523 -0.01062
C 3.66058 2.14701 -0.00033
C 3.64852 0.66607 0.03589
C 2.4661 33.99537 -0.02759
C 4.80314 32.56312 0.0402
C 3.75285 6.43751 0.01641
C 4.78253 21.22051 0.00572
C 6.07295 19.02495 0.00406
C 6.15422 17.71465 0.00943
C 4.8888 16.96216 0.02841
C 4.90894 15.60181 -0.01111
C 6.12975 14.88611 -0.01275
C 6.15077 13.51724 0.00985
C 4.91923 12.82823 -0.02245
C 5.0728 19.89509 0.03592
C 4.97672 11.38475 -0.00428
C 2.48747 7.11825 0.02339
C 3.72478 9.20927 -0.01634
C 2.4237 29.60016 -0.01384
C 2.41812 25.5507 0.03693
C 2.46578 24.21434 0.01745
C 3.52466 23.41616 0.00488
C 3.78373 22.08902 -0.01004
C 2.43981 21.28247 -0.02896
C 2.48041 19.89427 -0.00131
C 2.44676 8.56132 -0.00334
C 3.70208 19.19749 -0.01118
C 2.52105 17.0978 0.02147
C 2.40793 15.66835 0.00373
C 3.5891 14.91439 -0.00191
C 3.589 13.54527 0.00438
C 2.41867 12.78229 0.01291
C 2.42615 11.35993 0.00093
C 3.69933 10.7174 0.00057
C 3.75899 17.76676 -0.014
C 19.70308 21.37035 -0.03213
C 6.16447 10.64242 0.03101
C 4.95187 8.5371 -0.02689
C 7.3765 4.3268 0.03542
C 7.33472 2.8689 0.02299
C 8.58056 2.14035 0.00244
C 8.55913 0.66108 -0.01717
C 7.39797 0.07696 0.05265
C 10.04933 32.65566 -0.01952
C 9.74284 15.46885 -0.02813
C 8.58832 4.88954 0.01416
C 10.804 14.84669 0.00374
C 9.7676 12.83662 -0.03682
C 9.78318 11.44281 0.01965
C 11.00936 10.74289 0.02058
C 11.0839 9.26175 -0.01957
C 9.89041 8.46505 -0.0108
C 9.86487 7.00371 -0.00368
C 11.1489 6.43751 -0.02696
C 11.12337 13.53606 0.00052
C 6.1825 9.24551 -0.01536
C 8.65682 6.34319 0.01945
C 7.39298 8.51839 0.01241
C 4.98555 7.07891 -0.01046
C 6.18605 6.42855 -0.00891
C 6.14344 5.0125 0.02819
C 4.92921 4.29161 0.00165
C 4.90074 2.85691 -0.02971
C 6.16691 2.16532 0.02894
C 6.17778 0.64279 -0.01789
C 7.4036 7.09696 -0.01454
C 4.92181 34.01475 0.00444
C 7.33733 15.69143 0.01877
C 8.5043 14.91885 0.01363
C 8.54512 13.52772 -0.02162
C 7.36481 12.7492 0.00415
C 7.37204 11.34718 -0.0014
C 8.59934 10.63812 0.02162
C 8.62829 9.19613 0.0076
C 7.33643 17.0279 -0.00925
C 19.59996 19.91019 0.02239
C 20.91684 19.16979 0.01153
C 20.95269 17.80035 0.02734
C 32.00644 25.61405 -0.01779
C 31.98515 24.15364 0.03794
C 33.2032 23.47431 0.01927
C 33.22586 22.04025 0.01574
C 31.95568 21.33975 -0.02383
C 31.9676 19.91632 -0.01429
C 33.17641 19.24064 -0.0136
C 33.23661 26.31808 0.00682
C 33.20126 17.84077 0.00594
C 31.97205 15.73356 0.00369
C 33.1386 14.94887 0.00455
C 33.10809 13.54471 -0.00644
C 31.89595 12.69074 -0.01839
C 32.04752 11.34286 0.00137
C 33.24282 10.6927 0.00199
C 33.23453 9.2317 0.04381
C 31.9653 17.08795 -0.02474
C 32.0483 8.59223 0.02806
C 33.17726 27.74267 0.00026
C 31.93092 29.87963 -0.02142
C 30.7654 19.18282 -0.01461
C 30.68404 17.7772 -0.02155
C 29.46705 17.08677 -0.00944
C 29.519 15.70308 -0.03735
C 30.68149 14.9359 -0.00971
C 30.77679 13.5417 0.01518
C 30.76668 6.38468 0.01908
C 31.9175 28.46105 0.0544
C 30.61401 5.04539 0.07705
C 29.45206 2.84265 0.02108
C 30.68338 2.13101 0.00716
C 30.60326 0.6854 0.00307
C 29.41194 33.97824 0.00346
C 31.90199 32.66188 0.01713
C 33.12567 32.01525 -0.01694
C 33.16754 30.57082 0.01428
C 29.54534 4.23877 0.0103
C 29.50816 19.88647 -0.01303
C 31.88447 7.18111 0.01504
C 33.17933 4.99419 0.04926
C 34.41116 17.14591 0.00648
C 34.41778 15.66918 0.02114
C 1.18581 14.94929 -0.02957
C 1.15933 13.51595 0.00343
C 34.36264 12.85291 -0.02656
C 0.03492 11.37971 -0.02442
C 1.24221 10.64482 -0.00027
C 1.2646 17.80595 0.01223
C 1.23418 9.23219 -0.00583
C 0.01861 7.1105 -0.02849
C 1.25389 6.42335 0.02931
C 1.21841 4.99286 0.00628
C 34.40585 4.26313 -0.0345
C 34.41084 2.79854 -0.00931
C 1.19233 2.12518 -0.00939
C 1.19976 0.71304 -0.00468
C 0.02414 8.53351 -0.02302
C 33.21522 6.4109 -0.00069
C 1.26542 19.1355 -0.01678
C 34.42674 21.25175 -0.02213
C 31.96499 4.2514 -0.03838
C 31.89668 2.77514 0.00349
C 33.19086 2.10414 -0.00323
C 33.13934 0.70058 -0.00841
C 31.87427 0.02298 0.0001
C 34.38704 32.70657 -0.02927
C 1.20519 31.92658 -0.01404
C 0.021 19.84742 0.01951
C 1.30965 30.46254 0.01027
C 0.02438 28.36038 -0.01037
C 1.26861 27.79726 -0.00439
C 1.27426 26.27783 -0.00598
C 34.42809 25.54212 -0.05239
C 34.42813 24.15743 0.03076
C 1.17338 23.38386 0.00723
C 1.20248 21.98054 0.02712
C 0.00816 29.87847 0.01831
C 3.74468 32.01373 -0.00482
C 29.46474 21.30855 -0.0405
C 30.78522 23.43256 0.0101
C 23.38343 19.23211 0.01423
C 23.33609 17.72837 -0.00285
C 22.09378 17.1361 -0.009
C 21.98615 2.77604 -0.01199
C 23.37587 2.2691 -0.00229
C 23.2745 0.72777 -0.00938
C 22.13556 0.04264 -0.0264
C 22.19217 19.8821 0.02555
C 24.50353 32.63071 -0.01154
C 25.86391 30.48728 -0.01052
C 24.5292 29.78345 -0.01679
C 24.55821 28.30517 0.00367
C 25.82616 27.62668 0.04306
C 25.87411 26.23622 0.00996
C 24.56137 25.61979 0.00195
C 24.53746 24.17657 -0.00802
C 25.82201 31.93901 0.00684
C 25.74078 23.41071 -0.00218
C 22.14848 21.31037 0.03102
C 23.29366 23.42678 -0.00498
C 19.70809 17.00546 -0.0055
C 19.66449 15.74394 0.01515
C 19.59295 4.19029 -0.00225
C 19.55952 2.82478 0.00071
C 20.82401 2.18261 -0.01107
C 20.89962 0.72453 -0.01586
C 19.73842 34.05938 -0.01971
C 23.34898 22.02925 0.00135
C 22.12238 32.67174 -0.02118
C 23.35461 30.54843 -0.00178
C 22.12794 29.89324 0.00768
C 22.06934 28.44635 -0.0276
C 23.27131 27.71697 0.03005
C 23.35376 26.32952 -0.04078
C 22.14109 25.57903 0.02117
C 22.0964 24.17851 0.02737
C 23.35977 31.96207 0.00733
C 30.791 22.04933 0.01705
C 25.84555 22.02555 -0.01654
C 24.56537 19.94706 -0.0032
C 28.25442 19.13128 -0.00416
C 28.19631 17.69538 0.01177
C 26.96122 17.04941 0.04266
C 27.14409 2.81973 0.01324
C 28.24604 2.10148 0.0014
C 28.22868 0.6428 0.00924
C 26.95854 34.04075 0.02326
C 27.02566 19.80121 0.01699
C 29.47881 32.56921 0.00261
C 30.71592 30.57859 -0.02049
C 29.51197 29.76858 -0.01854
C 29.58239 28.34277 -0.01415
C 30.70709 27.63356 -0.03039
C 30.74458 26.25416 0.01836
C 29.52123 25.51032 0.03531
C 29.47306 24.09371 -0.00669
C 30.69917 31.95047 0.03265
C 24.59711 21.42511 -0.00037
C 27.01944 21.25304 0.01799
C 28.22392 23.38682 0.01495
C 25.76585 19.17417 0.00622
C 25.71144 17.63506 -0.02815
C 24.48196 16.94064 -0.00942
C 24.6575 2.83563 0.00487
C 25.86626 2.23771 0.00826
C 25.78934 0.6858 -0.00294
C 24.57114 0.0345 0.00152
C 28.27183 21.99572 0.01259
C 26.9946 32.60402 0.01257
C 28.29623 30.49122 0.04185
C 27.10278 29.76286 0.00194
C 27.11089 28.31989 -0.00621
C 28.34269 27.62154 0.02611
C 28.33146 26.20461 0.02198
C 27.06353 25.52036 0.01094
C 26.99307 24.08227 0.00235
C 28.24531 31.90285 0.02316
C 2.45306 32.56309 0.02888
