274
Graphene
C 34.38824 0.05225 0.01295
C 12.28511 34.05625 0.01087
C 13.48208 0.79966 -0.01527
C 13.5694 2.20651 0.00096
C 12.27211 2.83607 0.01277
C 12.2292 4.26765 -0.02422
C 13.52657 4.92982 -0.01721
C 13.53979 6.34293 -0.01154
C 12.26811 7.03669 0.0106
C 12.27381 8.51475 -0.01594
C 13.58638 8.98332 0.00742
C 13.56458 27.71011 -0.00311
C 12.35474 28.3869 0.00675
C 12.3184 29.79129 -0.00865
C 13.57188 30.50107 0.0058
C 14.70893 32.69073 0.00199
C 13.53035 31.98171 -0.00652
C 9.79904 34.037 -0.00703
C 11.03542 0.72091 0.00654
C 11.03381 2.12232 -0.04422
C 9.82388 2.7842 -0.02957
C 9.83764 4.21365 -0.00831
C 10.99089 4.98827 0.00364
C 10.99115 6.3929 -0.017
C 9.83302 7.25145 0.00143
C 9.80318 8.84155 0.00667
C 11.04234 9.24198 -0.0054
C 10.98269 26.28197 0.00755
C 11.06662 27.67977 0.01739
C 9.82998 28.37225 0.03754
C 9.8944 29.78017 -0.03557
C 12.29108 32.69931 -0.04076
C 11.16265 30.503 -0.00111
C 15.94153 32.03172 0.01511
C 14.82187 29.79652 -0.01662
C 20.9199 26.25933 0.00135
C 20.96473 27.62727 -0.00498
C 19.73279 28.37095 0.02737
C 19.71047 29.81342 0.02117
C 20.95961 30.4875 -0.04078
C 20.9779 31.92005 0.03005
C 19.68235 32.71931 -0.0276
C 17.27837 0.07954 0.00768
C 18.50997 0.7405 -0.00178
C 18.4837 2.12004 0.00733
C 17.33042 2.79258 -0.02118
C 17.23776 25.74848 -0.01971
C 18.52621 26.32479 -0.01586
C 18.46765 27.69309 -0.01107
C 16.01739 30.60278 -0.00478
C 17.19894 28.40891 0.00071
C 18.46068 30.46765 0.01515
C 18.43286 31.92531 -0.0055
C 17.20731 32.6992 0.02734
C 14.76187 0.05041 0.01153
C 16.01354 0.84267 0.02239
C 16.08281 2.17957 -0.03213
C 14.89253 2.95681 -0.02845
C 14.81568 4.33625 0.03374
C 16.05227 5.11045 0.0296
C 14.89418 6.7706 0.03046
C 14.47233 8.11839 -0.00381
C 16.02838 26.23152 0.01852
C 16.03131 27.63936 0.01126
C 14.80742 28.35378 -0.01185
C 17.20472 29.7876 -0.00225
C 11.11529 31.88831 0.04892
C 9.81281 32.66306 0.01452
C 7.35487 34.04079 -0.01581
C 4.92825 28.43292 -0.0108
C 4.88857 29.88709 -0.01957
C 6.17365 30.51128 0.02058
C 6.12071 31.94637 0.01965
C 4.92386 32.65706 -0.03682
C 2.42211 0.04324 0.00052
C 3.71944 0.76008 0.00374
C 3.6792 2.16549 -0.02813
C 2.41852 2.90013 -0.01952
C 2.38732 4.33209 0.05265
C 3.60529 5.02833 -0.01717
C 3.64093 6.44767 0.00244
C 2.47461 7.18248 0.02299
C 2.42215 8.59844 0.03542
C 6.13094 27.67361 -0.00368
C 3.65858 9.30825 0.01416
C 2.43277 11.34384 -0.01454
C 2.46368 12.77321 0.01241
C 3.7826 19.26716 0.0076
C 2.46421 19.74226 0.02162
C 2.47196 21.2547 -0.0014
C 3.60664 22.06375 0.00415
C 3.52054 23.45287 -0.02162
C 2.37486 24.22152 0.01363
C 2.42161 25.643 0.01877
C 3.66571 26.29745 -0.00925
C 3.64091 27.74583 0.00444
C 2.40197 28.4976 -0.01789
C 2.35627 29.87029 0.02894
C 3.62179 30.56207 -0.02971
C 3.60234 10.66313 0.01945
C 6.16044 26.24793 -0.02696
C 4.9177 25.53921 -0.00114
C 4.78332 24.14585 0.00228
C 8.56502 0.73972 0.02691
C 8.57149 2.09601 -0.01979
C 7.33354 2.85861 0.02188
C 7.38536 4.31631 -0.00316
C 8.58996 5.0076 -0.0331
C 8.61526 6.53493 -0.0258
C 7.31849 7.1686 0.03338
C 7.423 8.55626 -0.00491
C 8.57109 9.32728 -0.00109
C 7.36327 25.5589 0.03698
C 8.58187 26.22177 -0.02213
C 8.64506 27.62981 0.00028
C 7.32271 28.3581 -0.00289
C 7.37403 29.76863 -0.00066
C 8.63284 30.46654 0.00213
C 8.56576 31.94638 -0.05302
C 7.35023 32.65797 -0.04147
C 5.80375 23.10998 0.00798
C 5.05408 21.70148 0.00422
C 4.8679 11.26138 0.0351
C 6.06927 10.71586 -0.03113
C 6.20928 9.28651 0.02098
C 4.9287 8.561 0.01848
C 19.72191 25.65193 0.03102
C 4.89168 7.12937 -0.00619
C 6.16557 5.00212 0.00889
C 4.84582 4.33137 -0.00481
C 4.87734 2.89551 0.00979
C 6.13374 2.21538 0.01443
C 6.13216 0.75955 0.03505
C 4.91662 0.01761 -0.02815
C 6.15522 6.45312 -0.02162
C 19.6301 24.30885 0.02555
C 20.74023 23.45057 0.01423
C 20.92301 22.02018 -0.00285
C 31.91816 4.16878 -0.03838
C 32.96337 5.04689 0.04926
C 33.26866 6.36638 -0.00069
C 33.19413 9.36359 0.01504
C 33.20213 10.72609 0.02806
C 31.80211 13.01864 0.04381
C 33.17335 13.56874 0.00199
C 33.23634 14.94815 0.00137
C 32.02838 15.65508 -0.01839
C 31.9772 17.03381 -0.00644
C 33.16639 17.77601 0.00455
C 33.16692 19.19255 0.00369
C 31.9399 19.90459 -0.02474
C 31.92392 21.32144 0.00594
C 31.90033 2.84651 0.00349
C 33.15625 21.98864 -0.0136
C 31.96378 24.19659 -0.02383
C 31.94349 25.62604 0.01574
C 33.20406 26.24765 0.01927
C 33.15521 27.67576 0.03794
C 31.94598 28.41809 -0.01779
C 31.94098 29.866 0.00682
C 33.17006 30.61018 0.00026
C 33.12905 31.98958 0.0544
C 31.92491 32.70257 -0.02142
C 29.53817 34.05107 0.01428
C 30.73579 0.71222 -0.01694
C 30.63566 2.06945 0.01713
C 30.85164 14.95495 0.00346
C 29.80275 15.71241 0.00307
C 33.15664 23.40792 -0.01429
C 33.15943 2.1612 -0.00323
C 33.16005 0.73886 -0.00841
C 31.96586 0.06028 0.0001
C 1.232 0.78159 -0.00468
C 1.20798 2.2419 -0.00939
C 34.36204 2.94855 -0.00931
C 34.34087 4.31955 -0.0345
C 1.12606 5.01866 0.00628
C 1.18948 6.43712 0.02931
C 34.40465 7.07714 -0.02849
C 34.31175 8.52191 -0.02302
C 1.12565 9.23742 -0.00583
C 1.11263 10.72393 -0.00027
C 34.3936 11.45722 -0.02442
C 0.05957 12.83362 -0.02656
C 1.27908 13.58912 0.00343
C 1.28664 14.98738 -0.02957
C 34.40424 15.66638 0.02114
C 34.40421 17.03125 0.00648
C 1.17046 17.67851 0.01223
C 34.33247 32.71834 -0.02927
C 1.17972 32.07252 -0.01404
C 1.18973 30.60533 0.01027
C 34.37781 29.83489 0.01831
C 34.40297 28.41473 -0.01037
C 1.21342 27.66126 -0.00439
C 29.4122 17.04637 0.00716
C 1.24035 26.29574 -0.00598
C 34.38112 24.11035 0.03076
C 1.18483 23.41833 0.00723
C 1.11861 21.96074 0.02712
C 34.33774 21.24366 -0.02213
C 34.36859 19.88138 0.01951
C 1.18689 19.09577 -0.01678
C 34.41648 25.58513 -0.05239
C 3.60651 31.965 0.00165
C 30.67232 17.74692 0.02108
C 29.4244 19.8626 0.07705
C 24.52502 21.31368 -0.00621
C 25.77767 22.02781 0.00194
C 25.8 23.44344 0.04185
C 24.53814 24.12944 0.02316
C 24.58493 25.57141 0.01257
C 25.82462 26.22114 0.00152
C 25.90282 27.65347 -0.00294
C 24.71137 28.3755 0.00826
C 24.67131 29.82835 0.00487
C 25.8652 30.61606 -0.00942
C 25.81728 31.97651 -0.02815
C 24.55495 32.60501 0.00622
C 22.06947 33.90893 -0.0032
C 23.12887 17.77892 -0.00037
C 24.55076 19.91977 0.02611
C 23.37828 19.23349 -0.01654
C 21.96823 21.20017 -0.00802
C 23.32838 21.93952 0.00195
C 23.34556 23.34454 0.00996
C 22.14384 24.06711 0.04306
C 22.1053 25.51489 0.00367
C 23.41208 26.23272 -0.01679
C 23.3815 27.62665 -0.01052
C 22.1209 28.30887 0.00684
C 22.23628 29.74984 -0.01154
C 23.39617 30.47417 -0.0264
C 23.4272 31.86662 -0.00938
C 22.19628 32.56312 -0.00229
C 19.66848 0.03295 -0.01199
C 20.93048 0.53577 -0.009
C 22.08703 19.77453 -0.00218
C 25.75837 19.26833 0.02198
C 25.74814 17.80762 0.01094
C 25.77243 0.75891 0.00235
C 29.4379 21.28784 0.01908
C 30.70939 21.95973 0.01518
C 30.67568 23.40384 -0.00971
C 29.49135 24.21181 -0.03735
C 29.52909 25.55845 -0.00944
C 30.72308 26.37615 -0.02155
C 30.72333 27.76517 -0.01461
C 29.47162 28.35188 -0.01303
C 29.49094 29.81677 -0.0405
C 30.69846 30.55352 0.01705
C 30.68201 32.00681 0.0101
C 29.50654 32.66989 -0.00669
C 27.0439 0.21038 0.03531
C 28.32574 0.80481 0.01836
C 26.91315 17.19417 -0.03039
C 28.1684 17.71296 -0.01415
C 28.1908 19.1627 -0.01854
C 24.64969 33.96279 0.01495
C 27.01701 32.76879 0.01259
C 28.25649 32.01699 0.01799
C 28.21913 30.56081 0.01699
C 27.04603 29.85703 -0.00416
C 27.06821 28.40736 0.01177
C 30.65478 19.16151 0.0103
C 28.3261 27.65504 0.04266
C 27.0651 25.60985 0.0014
C 27.0397 24.20902 0.00924
C 28.27815 23.46379 0.02326
C 28.27519 22.07614 0.00261
C 27.05266 21.40546 0.03265
C 27.04512 19.91069 -0.02049
C 28.28778 26.29098 0.01324
C 2.41675 32.72241 0.02819
