408
Graphene
C 34.4101 34.04155 0.01295
C 13.52943 6.42264 -0.01536
C 13.55812 5.00205 -0.02689
C 12.34423 4.35817 -0.01046
C 12.30679 2.87215 -0.00891
C 13.50703 2.16335 0.02819
C 13.53774 0.71631 0.00165
C 12.34046 0.03316 -0.02971
C 14.71811 32.59151 0.02894
C 16.00942 31.96895 -0.01789
C 15.93916 30.47595 0.00444
C 14.77991 29.73728 -0.00925
C 16.09115 17.69563 0.01877
C 14.84415 17.17914 0.01363
C 14.83083 15.63904 -0.02162
C 16.01916 14.82378 0.00415
C 15.99815 13.40181 -0.0014
C 14.77466 12.7625 0.02162
C 14.70941 11.37142 0.0076
C 15.9262 10.65274 0.01241
C 15.93187 9.21293 -0.01454
C 14.72536 8.55158 0.01945
C 12.32093 7.1807 0.03101
C 12.27441 8.5912 -0.00428
C 13.49276 9.2388 -0.02245
C 13.50912 10.66997 0.00985
C 11.03221 10.71111 0.00438
C 11.01962 9.30497 0.01291
C 9.83656 8.61376 0.00093
C 9.86982 7.18992 0.00057
C 11.10078 6.48974 -0.01634
C 11.08252 5.04187 -0.00334
C 9.8393 4.3622 0.02339
C 9.86441 2.93581 0.01641
C 11.09024 2.20272 -0.00719
C 11.05742 0.79489 0.01364
C 14.72429 7.18705 0.01416
C 9.81082 0.13117 -0.01062
C 13.42755 31.81836 0.03589
C 13.47083 30.33282 -0.02759
C 12.17986 29.98872 0.0402
C 13.53581 17.48453 0.00572
C 12.25068 17.12689 0.03592
C 12.27663 15.62032 0.00406
C 13.53169 14.93998 0.00943
C 13.54025 13.52236 0.02841
C 12.2888 12.82908 -0.01111
C 12.2194 11.46958 -0.01275
C 12.25741 32.60709 -0.00033
C 9.76307 11.43099 -0.00191
C 15.97806 6.42566 0.03542
C 14.79359 4.27525 0.00244
C 18.46737 2.16385 0.01443
C 18.44215 0.67716 0.03505
C 17.21569 34.07579 -0.02815
C 19.65106 32.64246 -0.04147
C 20.88804 31.96658 -0.05302
C 20.86863 30.48799 0.00213
C 19.64609 29.80488 -0.00066
C 19.71111 28.40435 -0.00289
C 20.86702 27.62539 0.00028
C 20.78558 26.24203 -0.02213
C 19.62111 25.49117 0.03698
C 19.72685 24.12822 -0.00109
C 20.85324 23.3367 -0.00491
C 20.79957 21.97688 0.03338
C 19.50847 21.4273 -0.0258
C 19.30758 20.01267 -0.0331
C 20.76493 19.19093 -0.00316
C 20.82533 17.75339 0.02188
C 19.68527 16.94762 -0.01979
C 19.67794 15.57395 0.02691
C 20.94316 14.85438 -0.01581
C 17.24452 2.86439 0.00979
C 17.20524 4.2863 -0.00481
C 18.47915 5.01636 0.00889
C 18.44814 6.44904 -0.02162
C 14.75076 2.8815 -0.01717
C 16.04807 2.23036 0.05265
C 15.97213 0.74364 -0.01952
C 14.76353 34.03088 -0.02813
C 17.24349 32.65091 0.00374
C 18.40971 31.90761 0.00052
C 18.45609 30.48089 -0.03682
C 17.1864 29.7342 0.01965
C 17.26107 28.338 0.02058
C 18.49477 27.89444 -0.01957
C 16.05085 4.99655 0.02299
C 18.26928 19.09051 -0.0108
C 17.26547 16.90487 -0.02696
C 17.26649 15.52484 -0.00114
C 18.47866 14.86527 0.00228
C 18.45186 13.4303 0.00798
C 17.18774 12.7488 0.00422
C 17.18154 11.30079 0.0351
C 18.39149 10.64179 -0.03113
C 18.37934 9.22748 0.02098
C 17.16122 8.51798 0.01848
C 17.2542 7.10718 -0.00619
C 18.49038 17.68176 -0.00368
C 20.93895 13.4253 0.01452
C 9.77696 12.84609 0.00373
C 11.00998 14.9772 -0.014
C 2.38627 2.8458 0.01402
C 3.67619 2.14365 0.02379
C 3.65809 0.74444 0.00907
C 2.40164 0.00444 0.00643
C 4.87633 32.72404 -0.01509
C 6.10924 32.05568 0.03267
C 5.97904 30.63536 0.02374
C 4.83171 29.84309 0.00402
C 4.85921 28.42849 0.0073
C 6.14069 27.78113 0.0174
C 6.12892 26.37599 0.03828
C 4.97907 25.56754 0.01226
C 4.96672 24.19066 -0.00279
C 6.24749 23.4201 0.01996
C 6.16222 22.00021 -0.03996
C 4.91669 21.33891 0.01465
C 4.91159 19.94856 -0.00074
C 6.24878 19.29926 -0.00518
C 6.15296 17.84859 0.0086
C 4.87757 17.02339 -0.00643
C 4.87197 15.66874 0.017
C 2.43247 4.30417 -0.003
C 3.67625 4.98077 0.00031
C 3.63536 6.35081 0.03189
C 2.42526 7.11538 -0.04307
C 3.61443 30.50742 0.00558
C 2.33562 29.82361 -0.0059
C 2.39299 28.37947 -0.01386
C 3.57826 27.74379 -0.02805
C 3.66879 26.31782 0.00081
C 2.41876 25.55955 0.00245
C 2.49527 24.05663 0.02728
C 3.76139 23.39724 -0.00039
C 3.68498 21.99101 0.0064
C 2.45402 21.36246 0.00211
C 6.15268 14.96454 -0.03113
C 2.40217 19.91929 -0.00449
C 3.67309 17.79654 0.02784
C 2.43242 17.10089 -0.01977
C 2.40353 15.67506 -0.00561
C 3.6268 14.93982 0.00208
C 3.6518 13.53973 0.01707
C 2.45915 12.83671 0.02769
C 2.44646 11.32812 -0.03291
C 3.65062 10.6706 -0.04999
C 3.66545 9.27797 0.04505
C 2.44637 8.49728 0.03284
C 3.66527 19.17961 -0.01979
C 11.02285 13.54261 0.02147
C 6.10773 13.54968 -0.02566
C 4.83896 11.34411 0.02322
C 8.5457 13.51807 0.03007
C 7.33016 12.78295 -0.00095
C 7.37219 11.37905 0.01572
C 8.56048 10.63332 -0.04848
C 8.59493 9.22974 -0.00892
C 7.31985 8.57648 -0.01362
C 7.35346 7.21075 -0.0008
C 8.6147 6.47724 0.0288
C 8.63285 5.06893 0.00393
C 7.40715 4.33263 0.00895
C 7.34584 2.95541 0.00685
C 8.60841 2.29512 0.02888
C 8.59551 0.89612 -0.00482
C 7.31688 0.12538 -0.01384
C 9.79527 32.69751 0.03693
C 10.94894 31.95609 0.01745
C 10.84504 30.47108 0.00488
C 9.57896 29.66741 -0.01004
C 10.96979 17.76673 -0.02896
C 9.7755 17.08286 -0.00131
C 9.79016 15.63506 -0.01118
C 8.57938 14.98536 0.00054
C 7.32855 15.69553 -0.00494
C 7.31483 17.08788 -0.00562
C 8.5921 17.78769 -0.01142
C 6.15512 10.64439 -0.00725
C 6.0882 9.26621 -0.05697
C 4.85384 8.5477 0.01087
C 4.93767 7.06946 -0.01343
C 6.17382 6.39967 0.00988
C 6.15254 5.01914 0.0276
C 4.91658 4.29307 0.01305
C 4.95195 2.87331 -0.00077
C 6.15274 2.19221 0.03368
C 6.1341 0.74302 -0.02929
C 4.86416 12.82528 -0.00094
C 4.89182 0.04285 -0.00966
C 8.55564 32.00073 0.01227
C 8.51891 30.60109 0.00873
C 7.17593 29.89845 -0.00049
C 7.33572 28.50651 0.00848
C 8.78275 28.0836 -0.01303
C 7.26206 25.52061 -0.01378
C 7.41508 24.19403 0.02635
C 7.3658 21.34784 0.0127
C 7.56857 19.9685 0.01396
C 8.63678 19.1369 0.01849
C 7.3417 32.81964 -0.03337
C 19.69822 12.72091 0.04892
C 19.73753 11.32873 -0.00111
C 20.91937 10.61767 -0.03557
C 29.4503 8.44207 -0.00971
C 29.47262 7.06896 0.01518
C 30.71427 6.38082 0.01908
C 30.78662 4.9324 0.07705
C 29.49514 4.21893 0.0103
C 29.53196 2.83786 0.02108
C 30.75976 2.11266 0.00716
C 30.77727 0.67763 0.00307
C 29.52078 34.05102 0.00346
C 31.98691 32.61167 0.01713
C 33.24087 31.95261 -0.01694
C 33.2282 30.52901 0.01428
C 31.94906 29.81503 -0.02142
C 31.86611 28.38399 0.0544
C 33.12929 27.67052 0.00026
C 33.13264 26.21869 0.00682
C 31.88899 25.58021 -0.01779
C 31.88646 24.17443 0.03794
C 33.17691 23.44591 0.01927
C 33.18584 22.00401 0.01574
C 31.97649 21.30586 -0.02383
C 30.69809 9.20716 -0.03735
C 30.75375 10.61062 -0.00944
C 29.44191 11.32151 -0.02155
C 29.5159 12.76242 -0.01461
C 28.29449 2.081 0.01799
C 28.28929 0.66681 0.01699
C 27.04354 0.03582 -0.00416
C 29.50893 32.62598 0.01177
C 30.81063 31.92013 0.04266
C 30.74724 30.57327 0.01324
C 29.50533 29.85275 0.0014
C 29.50676 28.42152 0.00924
C 30.68271 27.66571 0.02326
C 30.66682 26.33412 0.00261
C 31.98772 19.87188 -0.01429
C 29.48994 25.62389 0.03265
C 30.65309 23.46335 -0.01854
C 30.64856 21.9874 -0.01415
C 29.46787 21.26428 -0.03039
C 29.50168 19.83769 0.01836
C 30.70092 19.19781 0.03531
C 30.76122 17.78027 -0.00669
C 29.45841 17.05884 0.0101
C 29.44917 15.63334 0.01705
C 30.67711 14.89992 -0.0405
C 30.70445 13.45272 -0.01303
C 29.43858 24.19201 -0.02049
C 27.08283 2.76686 0.01259
C 33.13705 19.11838 -0.0136
C 31.90023 17.00484 -0.02474
C 1.15976 22.00845 0.02712
C 34.36829 21.3008 -0.02213
C 34.3464 19.86983 0.01951
C 1.16994 19.17635 -0.01678
C 1.21227 17.73075 0.01223
C 34.40116 17.02626 0.00648
C 34.37721 15.65676 0.02114
C 1.2125 14.9105 -0.02957
C 1.21293 13.48385 0.00343
C 34.3795 12.7253 -0.02656
C 0.00219 11.36964 -0.02442
C 1.22594 10.67796 -0.00027
C 1.26105 9.19778 -0.00583
C 34.4108 8.53071 -0.02302
C 34.42773 7.15283 -0.02849
C 1.1867 6.40771 0.02931
C 1.21922 4.99505 0.00628
C 34.42237 4.24365 -0.0345
C 34.40011 2.83668 -0.00931
C 1.20551 2.13279 -0.00939
C 1.17906 0.69048 -0.00468
C 1.19479 23.4031 0.00723
C 34.40151 24.06129 0.03076
C 34.42335 25.49019 -0.05239
C 1.18902 26.29268 -0.00598
C 31.88558 15.57746 0.00369
C 33.12301 14.90323 0.00455
C 33.15352 13.46186 -0.00644
C 31.90084 12.75807 -0.01839
C 32.01215 11.29296 0.00137
C 33.24369 10.64418 0.00199
C 33.16101 9.25463 0.04381
C 32.00404 8.44424 0.02806
C 31.95105 7.08673 0.01504
C 33.21993 6.38986 -0.00069
C 33.13476 17.71571 0.00594
C 33.17625 4.9611 0.04926
C 32.01285 2.83836 0.00349
C 33.18102 2.13481 -0.00323
C 33.18994 0.68362 -0.00841
C 31.98298 34.05613 0.0001
C 34.42106 32.66799 -0.02927
C 1.21321 31.9602 -0.01404
C 1.13446 30.50036 0.01027
C 34.37801 29.72234 0.01831
C 34.38793 28.36511 -0.01037
C 1.17194 27.63228 -0.00439
C 32.01914 4.18668 -0.03838
C 27.10382 4.1842 0.01495
C 28.33283 4.96553 0.00235
C 28.27974 6.36254 0.01094
C 22.12246 15.61838 0.00096
C 23.38811 14.95022 -0.01527
C 23.35205 13.46367 0.01087
C 22.17242 12.75939 0.00199
C 22.16213 11.33352 0.01511
C 23.41465 10.57885 -0.00478
C 23.39635 9.15816 -0.01662
C 22.10714 8.55078 -0.01185
C 22.13371 7.08845 0.01126
C 23.36427 6.36454 0.01852
C 23.40647 4.93158 -0.00381
C 22.16092 4.27538 0.03046
C 22.14024 2.84777 0.0296
C 23.3648 2.08866 0.03374
C 23.3946 0.68153 -0.02845
C 22.14315 34.07779 -0.03213
C 24.60161 32.67273 0.02239
C 25.86992 31.97255 0.01153
C 25.86181 30.5549 0.02734
C 24.68861 29.8302 -0.0055
C 24.6372 28.37369 0.01515
C 22.09381 17.03007 0.01277
C 23.27794 17.77586 -0.02422
C 23.31945 19.20637 -0.01721
C 22.0512 19.90162 -0.01154
C 20.89791 9.24079 0.03754
C 19.62923 8.55861 0.01739
C 19.64259 7.13104 0.00755
C 20.91351 6.37133 -0.0054
C 20.95038 4.96527 0.00667
C 19.75089 4.25966 0.00143
C 19.66522 2.84827 -0.017
C 20.8951 2.12648 0.00364
C 20.89768 0.66885 -0.00831
C 19.65532 34.05519 -0.02957
C 25.88594 27.63534 -0.00225
C 22.12888 32.65502 -0.04422
C 23.39578 30.43472 -0.00703
C 22.18174 29.78109 -0.04076
C 22.10749 28.37109 -0.00652
C 23.36763 27.67687 0.0058
C 23.3177 26.25127 -0.00865
C 22.0432 25.58705 0.00675
C 22.02043 24.17484 -0.00311
C 23.26449 23.43054 0.00742
C 23.31078 21.94895 -0.01594
C 22.05958 21.24167 0.0106
C 23.35681 31.9285 0.00654
C 25.78738 26.20462 0.00071
C 24.55099 25.52663 -0.01107
C 24.53615 24.10277 -0.01586
C 27.09163 29.83669 0.04306
C 27.1172 28.39962 0.00996
C 28.29863 27.7258 0.00195
C 28.22367 26.26678 -0.00802
C 27.01126 25.46952 -0.00218
C 27.00621 24.05661 -0.01654
C 28.2616 23.41847 -0.00037
C 28.28611 22.03425 -0.0032
C 27.03708 21.28197 0.00622
C 27.06741 19.84839 -0.02815
C 28.25403 30.54627 0.00367
C 28.2875 19.17444 -0.00942
C 27.0666 17.09734 0.00826
C 27.04007 15.68885 -0.00294
C 28.26105 14.92915 0.00152
C 28.37968 13.54907 0.01257
C 27.09092 12.85792 0.02316
C 27.09802 11.4032 0.04185
C 28.23546 10.59278 0.00194
C 28.27951 9.19711 -0.00621
C 27.03944 8.5725 0.02611
C 27.00364 7.09157 0.02198
C 28.26596 17.78856 0.00487
C 3.66338 32.00785 -0.02375
C 28.3004 31.94364 -0.01679
C 24.56239 34.02634 0.00684
C 25.75104 23.38804 -0.01971
C 25.77086 22.00914 -0.02118
C 24.51975 21.36107 0.00733
C 24.57218 19.87904 -0.00178
C 25.78633 19.13306 0.00768
C 25.82259 17.77865 -0.0276
C 24.59305 17.01731 0.03005
C 24.58521 15.54628 -0.04078
C 25.83412 14.89094 0.02117
C 25.8064 13.46199 0.02737
C 27.04998 32.69078 -0.01052
C 24.58961 12.76763 -0.00498
C 25.89656 10.67622 0.03102
C 25.81941 9.26107 0.02555
C 24.66353 8.48208 0.01423
C 24.58764 7.07379 -0.00285
C 25.78411 6.3643 -0.009
C 25.90684 4.87548 -0.01199
C 24.62136 4.1999 -0.00229
C 24.69285 2.73775 -0.00938
C 25.89469 2.0558 -0.0264
C 25.8573 0.66778 -0.01154
C 24.63304 11.3265 0.00135
C 2.43898 32.67334 0.00828
