400
Graphene
C 34.41494 0.0185 0.01295
C 14.63049 29.91346 0.00165
C 14.8102 28.48762 -0.02971
C 15.97702 27.73781 0.02894
C 16.02768 26.21708 -0.01789
C 14.74332 25.48512 0.00444
C 14.67778 24.09227 -0.00925
C 15.99038 23.38631 0.01877
C 15.96578 21.94046 0.01363
C 14.7814 21.21045 -0.02162
C 14.85583 19.84814 0.00415
C 15.87404 18.98308 -0.0014
C 16.15619 9.24096 0.02162
C 14.96085 8.5122 0.0076
C 14.80856 7.15841 0.01241
C 16.04063 6.44151 -0.01454
C 16.04476 5.00151 0.01945
C 14.74976 4.36798 0.01416
C 14.78167 2.88455 0.03542
C 15.95564 2.24298 0.02299
C 15.99082 0.76677 0.00244
C 14.79658 0.06271 -0.01717
C 15.94125 30.56118 0.02819
C 17.23949 32.74684 0.05265
C 16.03694 31.96816 -0.00891
C 12.32132 0.06644 -0.02689
C 10.99378 0.7729 0.02339
C 9.7104 0.06339 0.01641
C 12.29635 32.70016 -0.00719
C 13.5746 31.99931 0.01364
C 13.43736 30.59019 -0.01062
C 12.1909 29.86509 -0.00033
C 12.36022 28.43329 0.03589
C 13.5967 27.80114 -0.02759
C 13.54234 26.2664 0.0402
C 12.24242 25.62633 0.00572
C 12.21539 24.15739 0.03592
C 13.42989 23.46448 0.00406
C 13.50961 22.01748 0.00943
C 12.29429 21.30162 0.02841
C 12.29026 7.02237 -0.01111
C 13.52293 6.42143 -0.01275
C 13.49605 5.03799 0.00985
C 12.2707 4.34778 -0.02245
C 12.22268 2.90884 -0.00428
C 13.49648 2.16942 0.03101
C 13.58324 0.79094 -0.01536
C 14.81227 32.68455 -0.01046
C 10.99748 2.21484 -0.00334
C 18.47731 32.05807 -0.01952
C 17.18739 29.90833 0.00374
C 17.21427 0.07399 -0.05302
C 19.6766 32.72815 0.00213
C 20.89682 31.86955 -0.00066
C 20.76339 30.4739 -0.00289
C 19.50925 29.97422 0.00028
C 19.67175 28.53001 -0.02213
C 20.9771 28.09775 0.03698
C 21.01373 26.67001 -0.00109
C 19.78124 25.72683 -0.00491
C 19.71278 24.31212 0.03338
C 20.95515 23.56664 -0.0258
C 20.88776 22.16236 -0.0331
C 19.69845 21.36523 -0.00316
C 19.67705 19.92276 0.02188
C 20.86578 19.15329 -0.01979
C 20.82716 17.73902 0.02691
C 19.64674 17.01712 -0.01581
C 19.58312 15.57734 0.01452
C 20.79486 14.83727 0.04892
C 20.78502 13.38744 -0.00111
C 19.52255 12.80564 -0.03557
C 18.45254 0.72806 -0.04147
C 18.3029 30.59613 -0.02813
C 18.49544 2.09543 -0.02815
C 17.25949 4.2341 0.01443
C 17.19872 28.50451 0.00052
C 18.41872 27.75894 -0.03682
C 18.44899 26.31246 0.01965
C 17.26712 25.53541 0.02058
C 17.23023 24.14368 -0.01957
C 18.51164 23.50555 -0.0108
C 18.40229 22.04663 -0.00368
C 17.20242 21.27326 -0.02696
C 17.14021 19.71267 -0.00114
C 18.44855 19.07636 0.00228
C 18.29085 17.59317 0.00798
C 17.06579 16.9902 0.00422
C 18.31357 14.83173 0.0351
C 18.2682 13.57101 -0.03113
C 17.14986 11.24116 0.02098
C 18.33792 10.7159 0.01848
C 18.46993 9.17634 -0.00619
C 17.24818 8.48085 -0.02162
C 17.19564 7.14151 0.00889
C 18.52841 6.30979 -0.00481
C 18.49785 4.98144 0.00979
C 17.34875 2.85141 0.03505
C 19.63617 11.3958 0.03754
C 9.79158 2.88871 -0.01634
C 11.02802 5.05079 0.00093
C 2.39042 4.32324 0.00402
C 2.42613 2.93179 0.0073
C 3.63745 2.25293 0.0174
C 3.64086 0.82671 0.03828
C 2.4294 0.03498 0.01226
C 4.89125 32.76736 -0.00279
C 6.10782 32.01925 0.01996
C 6.05022 30.62493 -0.03996
C 4.81744 29.89521 0.01465
C 4.89809 28.40481 -0.00074
C 6.12909 27.78503 -0.00518
C 6.10209 26.40372 0.0086
C 4.86094 25.59046 -0.00643
C 4.91227 24.08688 0.017
C 6.09985 23.52291 -0.03113
C 6.07038 22.03514 -0.02566
C 4.92389 21.32545 -0.00094
C 5.0094 19.89105 0.02322
C 6.28634 19.22186 -0.00725
C 6.05369 17.8753 -0.05697
C 4.98118 16.93439 0.01087
C 3.6049 5.07545 0.02374
C 4.75757 15.42406 -0.01343
C 3.63254 6.50349 0.03267
C 2.45336 8.62366 0.00643
C 3.68736 30.70048 0.0064
C 2.42275 29.89068 0.00211
C 2.45682 28.46152 -0.00449
C 3.59089 27.64672 -0.01979
C 3.62439 26.25299 0.02784
C 2.39403 25.52541 -0.01977
C 2.43586 24.05883 -0.00561
C 3.68738 23.42331 0.00208
C 3.65169 21.95704 0.01707
C 2.47367 21.25722 0.02769
C 2.46523 19.84031 -0.03291
C 3.76417 19.05597 -0.04999
C 3.71863 17.66759 0.04505
C 2.39179 17.07447 0.03284
C 2.30451 15.67144 -0.04307
C 3.54715 14.93097 0.03189
C 3.58756 13.46261 0.00031
C 2.35381 12.76108 -0.003
C 2.47253 11.42186 0.01402
C 3.70817 10.76046 0.02379
C 3.75434 9.29736 0.00907
C 2.39348 7.16161 -0.01509
C 9.83847 4.44434 0.00057
C 4.84267 12.96033 0.00988
C 6.1753 10.66285 0.01305
C 8.61204 6.30377 -0.0008
C 8.52714 4.9284 0.0288
C 7.26863 4.22855 0.00393
C 7.3208 2.85359 0.00895
C 8.57441 2.25276 0.00685
C 8.50922 0.788 0.02888
C 7.35127 0.03496 -0.00482
C 9.80703 32.71871 -0.01384
C 11.05113 32.00048 0.03693
C 11.00826 30.61284 0.01745
C 9.80558 29.94519 0.00488
C 9.84451 28.58343 -0.01004
C 11.10411 27.7935 -0.02896
C 10.9697 26.37 -0.00131
C 9.8026 25.6227 -0.01118
C 9.87984 24.24013 -0.014
C 11.00467 23.45378 0.02147
C 10.97668 22.0005 0.00373
C 9.67653 21.4264 -0.00191
C 9.60948 7.11447 0.00438
C 11.00162 6.58992 0.01291
C 7.39182 7.01402 -0.01362
C 5.03124 11.50502 0.0276
C 7.53875 8.49515 -0.00892
C 7.39406 21.35489 0.01572
C 6.26398 9.29217 -0.00077
C 4.96929 8.56428 0.03368
C 4.8743 7.20872 -0.02929
C 6.05434 6.36127 -0.00966
C 6.04743 4.99033 -0.03337
C 4.78443 4.27725 0.01227
C 4.84296 2.82029 0.00873
C 6.09951 2.16275 -0.00049
C 6.09799 0.71712 0.00848
C 4.84599 0.10294 -0.01303
C 7.32352 32.67673 -0.01378
C 8.59176 31.98199 0.02635
C 8.54545 30.58189 0.0127
C 7.34444 29.93014 0.01396
C 7.41986 28.50232 0.01849
C 8.58909 27.74901 -0.01142
C 8.62349 26.41083 -0.00562
C 7.32952 25.68268 -0.00494
C 7.34546 24.34224 0.00054
C 8.56595 23.61399 0.03007
C 8.50946 22.20231 -0.00095
C 7.56557 20.01159 -0.04848
C 20.87504 10.69715 0.01739
C 20.94504 9.30835 0.00755
C 19.72422 8.45225 -0.0054
C 29.43931 7.11715 0.01518
C 30.63875 6.34502 0.01908
C 30.69554 4.93303 0.07705
C 29.5013 4.21749 0.0103
C 29.43002 2.81132 0.02108
C 30.72586 2.15326 0.00716
C 30.75451 0.72055 0.00307
C 29.58008 34.01401 0.00346
C 31.9975 32.68095 0.01713
C 33.14876 31.96716 -0.01694
C 33.1582 30.47802 0.01428
C 31.91421 29.78976 -0.02142
C 31.9623 28.38508 0.0544
C 33.15714 27.58588 0.00026
C 33.13972 26.22195 0.00682
C 31.86432 25.53907 -0.01779
C 31.83764 24.09139 0.03794
C 33.13779 23.44112 0.01927
C 33.1235 22.03305 0.01574
C 31.88437 21.28205 -0.02383
C 31.84445 19.92996 -0.01429
C 29.47636 8.55916 -0.00971
C 33.15112 19.22501 -0.0136
C 30.73062 9.15787 -0.03735
C 29.45127 11.28739 -0.02155
C 27.06128 33.8921 -0.00416
C 29.61245 32.6015 0.01177
C 30.79389 31.8973 0.04266
C 30.74416 30.46857 0.01324
C 29.51268 29.8083 0.0014
C 29.49432 28.45029 0.00924
C 30.71026 27.70938 0.02326
C 30.71839 26.3121 0.00261
C 29.59621 25.50259 0.03265
C 29.51754 24.10581 -0.02049
C 30.73372 23.37869 -0.01854
C 30.73282 22.02915 -0.01415
C 29.50797 21.23324 -0.03039
C 29.44434 19.88377 0.01836
C 30.65684 19.19541 0.03531
C 30.6347 17.79796 -0.00669
C 29.4145 17.04903 0.0101
C 29.48607 15.67572 0.01705
C 30.61652 14.907 -0.0405
C 30.63994 13.54168 -0.01303
C 29.46131 12.77738 -0.01461
C 30.68343 10.63962 -0.00944
C 28.24891 0.60649 0.01699
C 33.12502 17.76586 0.00594
C 31.92205 15.67189 0.00369
C 1.26122 21.95981 0.02712
C 0.02696 21.24621 -0.02213
C 34.30131 19.86408 0.01951
C 1.15901 19.23173 -0.01678
C 1.19928 17.80288 0.01223
C 34.39727 17.13175 0.00648
C 34.36799 15.60298 0.02114
C 1.12737 14.92702 -0.02957
C 1.11374 13.44703 0.00343
C 34.30692 12.8417 -0.02656
C 34.34794 11.356 -0.02442
C 1.14682 10.6358 -0.00027
C 1.20433 9.27576 -0.00583
C 34.41285 8.58815 -0.02302
C 34.29471 7.18874 -0.02849
C 1.09855 6.48458 0.02931
C 1.13702 5.04033 0.00628
C 34.40207 4.27968 -0.0345
C 34.3905 2.85893 -0.00931
C 1.23195 2.09714 -0.00939
C 1.21431 0.72067 -0.00468
C 1.23051 23.38248 0.00723
C 31.86286 17.01667 -0.02474
C 34.40885 24.14381 0.03076
C 1.12755 26.31461 -0.00598
C 33.11782 14.90504 0.00455
C 33.08668 13.52409 -0.00644
C 31.9111 12.81966 -0.01839
C 31.93336 11.36116 0.00137
C 33.16599 10.6143 0.00199
C 33.15643 9.22418 0.04381
C 31.97611 8.50199 0.02806
C 31.8508 7.08263 0.01504
C 33.04576 6.42881 -0.00069
C 33.17549 5.05116 0.04926
C 31.95151 4.24689 -0.03838
C 31.92589 2.86101 0.00349
C 33.17515 2.17663 -0.00323
C 33.23227 0.71407 -0.00841
C 32.02102 0.012 0.0001
C 34.41638 32.71515 -0.02927
C 1.19971 31.9657 -0.01404
C 1.26549 30.56967 0.01027
C 34.41427 29.83473 0.01831
C 0.03717 28.37823 -0.01037
C 1.20898 27.69526 -0.00439
C 34.39772 25.53441 -0.05239
C 28.18698 2.07974 0.01799
C 27.02473 2.81861 0.01259
C 27.09581 4.26424 0.01495
C 22.11584 12.75938 0.00199
C 22.08861 11.4524 0.01511
C 23.32746 10.69714 -0.00478
C 23.24367 9.30926 -0.01662
C 22.11643 8.50455 -0.01185
C 22.21551 7.08726 0.01126
C 23.38665 6.42436 0.01852
C 23.40942 4.94839 -0.00381
C 22.15171 4.29916 0.03046
C 22.12841 2.87916 0.0296
C 23.33839 2.17915 0.03374
C 23.33162 0.65226 -0.02845
C 22.10723 33.9456 -0.03213
C 24.59035 32.49976 0.02239
C 25.74616 31.76089 0.01153
C 25.68996 30.28839 0.02734
C 24.41334 29.47197 -0.0055
C 24.43144 27.99667 0.01515
C 25.81798 27.56107 -0.00225
C 25.90017 26.23707 0.00071
C 24.7099 25.59337 -0.01107
C 23.24397 13.53574 0.01087
C 24.55942 24.20273 -0.01586
C 23.25965 14.92291 -0.01527
C 22.00389 16.94582 0.01277
C 19.73587 7.02545 0.00667
C 20.95076 6.38375 0.00143
C 20.95071 4.99558 -0.017
C 19.7278 4.17913 0.00364
C 19.68618 2.81353 -0.00831
C 20.99238 2.12622 -0.02957
C 20.93674 0.71407 -0.04422
C 19.72915 0.00947 0.00654
C 22.1324 32.50395 -0.00703
C 23.3261 31.73764 -0.04076
C 23.11262 30.16693 -0.00652
C 21.77165 29.50154 0.0058
C 23.67494 26.55444 -0.00865
C 22.32848 25.90359 0.00675
C 22.16302 24.34334 -0.00311
C 23.33208 23.45189 0.00742
C 23.24103 22.01565 -0.01594
C 22.00115 21.35231 0.0106
C 22.09982 19.84329 -0.01154
C 23.27754 19.0621 -0.01721
C 23.31499 17.66917 -0.02422
C 21.95114 15.53745 0.00096
C 25.78168 23.40933 -0.01971
C 25.72082 22.01353 -0.02118
C 24.49874 21.30969 0.00733
C 28.3878 26.21583 -0.00802
C 27.1273 25.55745 -0.00218
C 27.04522 24.17437 -0.01654
C 28.26527 23.43588 -0.00037
C 28.22214 21.97784 -0.0032
C 27.00992 21.36439 0.00622
C 26.95477 19.91154 -0.02815
C 28.18435 19.13295 -0.00942
C 28.2127 17.73312 0.00487
C 27.0134 17.01494 0.00826
C 26.97928 15.62123 -0.00294
C 28.22349 14.9656 0.00152
C 28.20056 13.46037 0.01257
C 26.9836 12.80991 0.02316
C 26.99022 11.33136 0.04185
C 28.19518 10.6599 0.00194
C 28.24805 9.29613 -0.00621
C 26.94696 8.46004 0.02611
C 27.04791 6.99467 0.02198
C 28.28837 6.39425 0.01094
C 28.26229 4.9833 0.00235
C 28.3061 27.61643 0.00195
C 27.00016 28.28842 0.00996
C 26.94928 29.72147 0.04306
C 28.24703 30.45826 0.00367
C 24.52779 19.8677 -0.00178
C 25.80656 19.1636 0.00768
C 25.82423 17.77431 -0.0276
C 24.55383 16.96414 0.03005
C 24.42406 15.62238 -0.04078
C 25.69469 14.94191 0.02117
C 25.79765 13.50364 0.02737
C 24.53691 12.81257 -0.00498
C 24.56295 11.38213 0.00135
C 25.77222 10.66088 0.03102
C 3.70482 32.07699 -0.00039
C 25.76776 9.21354 0.02555
C 24.56591 7.07075 -0.00285
C 25.85197 6.26989 -0.009
C 25.83276 4.90634 -0.01199
C 24.61889 4.21541 -0.00229
C 24.60609 2.81396 -0.00938
C 25.7983 2.05191 -0.0264
C 25.85008 0.54301 -0.01154
C 24.5772 33.9839 0.00684
C 27.0602 32.5416 -0.01052
C 28.30923 31.90827 -0.01679
C 24.50025 8.57351 0.01423
C 2.44152 32.73149 0.02728
