445
Graphene
C 34.42426 0.02324 0.01295
C 13.48585 17.76993 0.01291
C 12.24487 17.05356 0.00093
C 12.28914 15.65994 0.00057
C 13.50363 14.88977 -0.01634
C 13.51547 13.46234 -0.00334
C 12.27415 12.61928 0.02339
C 12.35573 11.05609 0.01641
C 13.34554 9.56916 -0.00719
C 12.29865 8.65164 0.01364
C 12.30372 7.20214 -0.01062
C 13.59107 6.58826 -0.00033
C 13.57625 4.99242 0.03589
C 12.32011 4.2452 -0.02759
C 12.33811 2.80312 0.0402
C 13.5677 2.08083 0.00572
C 13.52641 0.63225 0.03592
C 12.27363 34.07532 0.00406
C 14.64304 32.67913 0.00943
C 15.91817 31.93136 0.02841
C 15.93673 30.58741 -0.01111
C 14.66942 29.83076 -0.01275
C 14.66916 28.42884 0.00985
C 15.96463 27.76029 -0.02245
C 13.46754 19.24114 0.00438
C 12.31218 19.92076 -0.00191
C 12.2497 21.33062 0.00373
C 13.47162 22.0006 0.02147
C 11.07886 13.48063 -0.00494
C 9.82643 12.86326 0.00054
C 9.92273 11.46036 0.03007
C 11.12081 10.61583 -0.00095
C 10.98916 9.2149 0.01572
C 9.85944 8.50815 -0.04848
C 9.81923 7.09359 -0.00892
C 11.13646 6.47358 -0.01362
C 11.04828 5.00082 -0.0008
C 9.85118 4.28134 0.0288
C 9.8771 2.81997 0.00393
C 16.04131 26.27193 -0.00428
C 11.09053 2.17717 0.00895
C 9.8525 0.00504 0.02888
C 12.27562 32.69936 -0.00482
C 13.50031 31.94165 -0.01384
C 13.4499 30.52369 0.03693
C 12.1897 29.80622 0.01745
C 12.21668 28.35736 0.00488
C 13.51147 27.68189 -0.01004
C 13.46485 26.24999 -0.02896
C 12.18208 25.60301 -0.00131
C 12.23372 24.24207 -0.01118
C 13.50306 23.47539 -0.014
C 11.05322 0.73047 0.00685
C 14.78329 25.57455 0.03101
C 14.707 24.15918 -0.01536
C 15.96698 23.47852 -0.02689
C 17.23931 24.20376 0.00052
C 18.41026 23.43126 -0.03682
C 18.45452 22.03698 0.01965
C 17.22402 21.32953 0.02058
C 17.16438 19.86487 -0.01957
C 18.40033 19.23662 -0.0108
C 18.41818 17.76375 -0.00368
C 17.16171 17.07422 -0.02696
C 17.10847 15.56946 -0.00114
C 18.34418 14.86484 0.00228
C 18.35088 13.38393 0.00798
C 17.20401 25.56483 0.00374
C 17.16542 12.56101 0.00422
C 18.36912 10.61842 -0.03113
C 18.47275 9.15051 0.02098
C 17.13718 8.64739 0.01848
C 17.21461 7.1767 -0.00619
C 18.43865 6.37006 -0.02162
C 18.44063 4.90869 0.00889
C 17.24572 4.18155 -0.00481
C 17.2125 2.79463 0.00979
C 18.42634 2.11242 0.01443
C 18.42925 0.72672 0.03505
C 17.20477 0.02327 -0.02815
C 17.03788 11.0025 0.0351
C 11.1369 14.91096 -0.00562
C 18.46267 26.23365 -0.02813
C 17.20712 28.44522 0.05265
C 15.9968 22.02698 -0.01046
C 14.7005 21.32994 -0.00891
C 14.71695 19.93419 0.02819
C 15.94289 19.15417 0.00165
C 15.89205 17.77822 -0.02971
C 14.6543 17.0872 0.02894
C 14.69193 15.60922 -0.01789
C 15.8989 14.86941 0.00444
C 15.93586 13.38825 -0.00925
C 14.69944 12.84294 0.01877
C 16.11284 9.63833 0.01363
C 18.44016 27.68098 -0.01952
C 14.7322 8.88307 -0.02162
C 15.98899 6.53387 -0.0014
C 16.00314 5.05008 0.02162
C 14.83122 4.2667 0.0076
C 14.76874 2.72651 0.01241
C 15.96396 2.07418 -0.01454
C 16.018 0.70194 0.01945
C 14.73455 0.01905 0.01416
C 17.2072 32.65422 0.03542
C 18.36911 31.96282 0.02299
C 18.3679 30.48546 0.00244
C 17.17965 29.76942 -0.01717
C 14.77561 7.31442 0.00415
C 9.83385 15.64112 -0.01142
C 9.80877 17.10519 0.01849
C 11.05393 17.77803 0.01396
C 3.71014 0.71077 -0.01299
C 2.47392 34.03006 -0.00407
C 4.90447 32.67631 0.01138
C 6.19714 32.00185 0.03278
C 6.15998 30.60833 -0.00177
C 4.89076 29.84622 0.04421
C 4.93703 28.42938 0.00088
C 6.19112 27.69887 0.00828
C 6.14776 26.29676 -0.02375
C 4.95115 25.52724 0.00558
C 4.88239 24.053 -0.0059
C 3.69501 2.14716 -0.0154
C 6.06187 23.37571 -0.01386
C 4.86628 21.32041 0.00081
C 4.81905 19.93074 0.00245
C 6.01878 19.2007 0.02728
C 6.08393 17.76203 -0.00039
C 4.87491 17.0711 0.0064
C 4.87965 15.66737 0.00211
C 6.08365 14.98437 -0.00449
C 6.11536 13.52069 -0.01979
C 4.82013 12.88572 0.02784
C 4.95988 11.49275 -0.01977
C 6.12812 10.79061 -0.00561
C 6.11267 22.00198 -0.02805
C 6.09518 9.27047 0.00208
C 2.48639 2.97642 0.00662
C 3.69762 4.94642 0.03345
C 3.7472 30.57221 -0.02419
C 2.54363 29.82256 -0.03951
C 2.4405 28.40926 -0.00141
C 3.68644 27.66169 -0.00374
C 3.72905 26.19954 -0.0213
C 2.47597 25.51056 0.01116
C 2.38135 24.19788 -0.0005
C 3.57664 23.46961 -0.00018
C 3.65772 21.97499 0.01073
C 2.45785 21.29873 0.01984
C 2.45118 19.90465 0.00535
C 2.44443 4.32438 0.00748
C 3.64906 19.14695 -0.00198
C 2.43424 17.01252 -0.04306
C 2.39329 15.57668 -0.03672
C 3.717 14.89363 0.01913
C 3.59971 13.55971 0.00267
C 2.47313 12.76527 0.00787
C 2.49934 11.35648 0.02426
C 3.68231 10.62449 0.01218
C 3.65313 9.24202 -0.01471
C 2.50637 8.48458 -0.02827
C 2.43475 7.05359 0.01078
C 3.67637 6.36268 -0.00112
C 3.69639 17.6845 -0.00012
C 19.59342 32.66414 -0.04147
C 4.85543 8.50687 0.01707
C 6.10332 6.48151 -0.03291
C 8.57943 9.31461 -0.03113
C 7.36894 8.59268 -0.02566
C 7.37337 7.11671 -0.00094
C 8.5889 6.4466 0.02322
C 8.61784 5.08955 -0.00725
C 7.38762 4.3934 -0.05697
C 7.36915 2.93256 0.01087
C 8.56399 2.15912 -0.01343
C 8.59648 0.71696 0.00988
C 7.40337 0.04201 0.0276
C 9.81241 32.65923 0.01305
C 8.63642 10.72013 0.017
C 11.04518 32.06672 -0.00077
C 9.80461 29.79001 -0.02929
C 9.82831 28.35976 -0.00966
C 11.02998 27.68683 -0.03337
C 10.97275 26.34638 0.01227
C 9.76169 25.55513 0.00873
C 9.81051 24.21079 -0.00049
C 11.04331 23.52721 0.00848
C 10.99681 22.12853 -0.01303
C 9.76894 21.40747 -0.01378
C 9.73155 19.95527 0.02635
C 11.0832 19.12822 0.0127
C 11.00804 30.575 0.03368
C 4.88297 7.10396 0.02769
C 7.34209 11.48358 -0.00643
C 8.60802 13.57819 -0.00518
C 6.13063 5.02416 -0.04999
C 4.93413 4.26937 0.04505
C 4.8798 2.89801 0.03284
C 6.1697 2.18527 -0.04307
C 6.20581 0.79959 0.03189
C 4.918 0.02474 0.00031
C 7.43634 32.68998 -0.003
C 8.58422 31.97418 0.01402
C 8.5888 30.5347 0.02379
C 7.34978 29.84893 0.00907
C 7.38513 28.4232 0.00643
C 7.37204 12.88089 0.0086
C 8.59901 27.71488 -0.01509
C 7.3225 25.59049 0.02374
C 7.31785 24.16349 0.00402
C 8.56872 23.47228 0.0073
C 8.50047 22.06337 0.0174
C 7.30523 21.34116 0.03828
C 7.27148 19.98089 0.01226
C 8.58492 19.19469 -0.00279
C 8.5916 17.8429 0.01996
C 7.38859 17.0803 -0.03996
C 7.38085 15.66775 0.01465
C 8.63369 14.97605 -0.00074
C 8.56087 26.31906 0.03267
C 3.70201 31.9651 0.02438
C 20.87376 31.95005 -0.05302
C 19.6191 29.8607 -0.00066
C 29.52683 15.58933 0.01705
C 30.73304 14.85113 -0.0405
C 30.7145 13.42695 -0.01303
C 29.48868 12.70605 -0.01461
C 29.52708 11.31919 -0.02155
C 30.71865 10.61291 -0.00944
C 30.78871 9.09534 -0.03735
C 29.50419 8.48001 -0.00971
C 29.50548 7.08687 0.01518
C 30.72085 6.36666 0.01908
C 30.6629 4.96084 0.07705
C 29.49298 4.2612 0.0103
C 29.49227 2.81206 0.02108
C 30.7012 2.13212 0.00716
C 30.65275 0.72559 0.00307
C 29.48438 34.04315 0.00346
C 32.03366 32.66098 0.01713
C 33.20373 31.91493 -0.01694
C 33.26561 30.49308 0.01428
C 32.01864 29.82416 -0.02142
C 31.94544 28.43267 0.0544
C 33.21974 27.70567 0.00026
C 33.19407 26.26412 0.00682
C 29.46308 17.03399 0.0101
C 30.6575 17.7241 -0.00669
C 30.73177 19.13856 0.03531
C 29.52466 19.86125 0.01836
C 27.06981 11.32152 0.04185
C 28.35501 10.621 0.00194
C 28.28415 9.19759 -0.00621
C 26.94897 8.44347 0.02611
C 27.0154 7.08328 0.02198
C 28.27352 6.38927 0.01094
C 28.25181 4.9589 0.00235
C 27.05316 4.25162 0.01495
C 26.98149 2.83656 0.01259
C 28.26672 2.19475 0.01799
C 28.31801 0.70263 0.01699
C 31.94506 25.5561 -0.01779
C 27.0622 34.04919 -0.00416
C 30.68065 32.00317 0.04266
C 30.73832 30.54826 0.01324
C 29.45612 29.86468 0.0014
C 29.49417 28.43106 0.00924
C 30.6498 27.69611 0.02326
C 30.70627 26.28524 0.00261
C 29.50846 25.55798 0.03265
C 29.51204 24.15681 -0.02049
C 30.71254 23.42067 -0.01854
C 30.74172 22.02986 -0.01415
C 29.46013 21.35963 -0.03039
C 29.54423 32.63995 0.01177
C 31.91089 24.14052 0.03794
C 33.12443 23.43458 0.01927
C 33.15053 22.00767 0.01574
C 34.41799 25.54699 -0.05239
C 34.39606 24.06255 0.03076
C 1.16214 23.32063 0.00723
C 1.18481 21.93707 0.02712
C 34.41003 21.28337 -0.02213
C 34.36856 19.81896 0.01951
C 1.16573 19.14977 -0.01678
C 1.15254 17.73864 0.01223
C 34.36339 17.01953 0.00648
C 34.3905 15.56621 0.02114
C 1.16636 14.8008 -0.02957
C 1.22301 26.2693 -0.00598
C 1.25285 13.37757 0.00343
C 34.40567 11.31853 -0.02442
C 1.18695 10.61755 -0.00027
C 1.23637 9.21706 -0.00583
C 0.02214 8.49674 -0.02302
C 0.00578 7.091 -0.02849
C 1.26246 6.35015 0.02931
C 1.21635 4.94091 0.00628
C 34.40203 4.24044 -0.0345
C 0.05287 2.82734 -0.00931
C 1.3327 2.1311 -0.00939
C 1.26793 0.68168 -0.00468
C 0.02274 12.76502 -0.02656
C 26.9887 12.76785 0.02316
C 1.1872 27.73341 -0.00439
C 0.05912 29.85996 0.01831
C 31.86481 21.26274 -0.02383
C 31.87999 19.87472 -0.01429
C 33.09659 19.14394 -0.0136
C 33.14255 17.69333 0.00594
C 31.92722 16.93801 -0.02474
C 31.96928 15.63893 0.00369
C 33.18784 14.90793 0.00455
C 33.21627 13.42909 -0.00644
C 32.0085 12.67289 -0.01839
C 31.9285 11.30648 0.00137
C 33.22478 10.5689 0.00199
C 34.4242 28.41453 -0.01037
C 33.25248 9.16285 0.04381
C 32.00053 7.03805 0.01504
C 33.19939 6.34692 -0.00069
C 33.20973 4.92149 0.04926
C 31.92714 4.26873 -0.03838
C 31.95689 2.81628 0.00349
C 33.21828 2.1246 -0.00323
C 33.14933 0.70565 -0.00841
C 31.90181 34.05848 0.0001
C 34.40774 32.68628 -0.02927
C 1.22683 31.94534 -0.01404
C 1.31324 30.4696 0.01027
C 31.97734 8.50237 0.02806
C 28.21764 13.46971 0.01257
C 28.30818 14.89073 0.00152
C 27.05962 15.50842 -0.00294
C 22.13267 32.69565 -0.04422
C 23.32116 31.93171 0.00654
C 23.28374 30.54272 -0.00703
C 22.04393 29.83827 -0.04076
C 22.07183 28.43266 -0.00652
C 23.3157 27.71677 0.0058
C 23.28113 26.31572 -0.00865
C 22.03639 25.57368 0.00675
C 22.12672 24.1165 -0.00311
C 23.31808 23.4154 0.00742
C 23.29854 22.07646 -0.01594
C 19.60966 0.01136 -0.02957
C 22.15504 21.29039 0.0106
C 23.39956 19.22892 -0.01721
C 23.3836 17.79876 -0.02422
C 22.09988 16.98243 0.01277
C 22.16399 15.6051 0.00096
C 23.3 14.83637 -0.01527
C 23.2613 13.51344 0.01087
C 22.06903 12.79765 0.00199
C 22.07834 11.36388 0.01511
C 23.24728 10.65926 -0.00478
C 23.28588 9.25958 -0.01662
C 22.12523 8.48326 -0.01185
C 22.18129 19.8473 -0.01154
C 22.09205 7.05016 0.01126
C 20.85966 0.74053 -0.00831
C 19.69099 2.82283 -0.017
C 19.57664 28.449 -0.00289
C 20.8309 27.77698 0.00028
C 20.85867 26.3597 -0.02213
C 19.64487 25.5531 0.03698
C 19.70313 24.20087 -0.00109
C 20.90451 23.45345 -0.00491
C 20.91722 22.01024 0.03338
C 19.62753 21.30995 -0.0258
C 19.71638 19.97655 -0.0331
C 20.9214 19.11581 -0.00316
C 20.85293 17.68054 0.02188
C 20.88759 2.09311 0.00364
C 19.62522 16.9647 -0.01979
C 20.91451 14.92078 -0.01581
C 20.91793 13.53119 0.01452
C 19.65195 12.78665 0.04892
C 19.57357 11.36442 -0.00111
C 20.88121 10.73013 -0.03557
C 20.88776 9.25303 0.03754
C 19.67082 8.51542 0.01739
C 19.68345 7.07097 0.00755
C 20.85509 6.3933 -0.0054
C 20.89986 4.95471 0.00667
C 19.66852 4.23447 0.00143
C 19.62399 15.51906 0.02691
C 20.86505 30.6099 0.00213
C 23.34298 6.33594 0.01852
C 22.09872 4.30643 0.03046
C 24.53758 7.12127 -0.00285
C 25.79696 6.42956 -0.009
C 25.79102 4.96765 -0.01199
C 24.61112 4.27402 -0.00229
C 24.55975 2.86701 -0.00938
C 25.81454 2.14693 -0.0264
C 25.80516 0.67491 -0.01154
C 24.60978 0.04143 0.00684
C 27.05809 32.71491 -0.01052
C 28.22596 32.05075 -0.01679
C 28.23022 30.66208 0.00367
C 24.54932 8.51304 0.01423
C 27.00955 29.84738 0.04306
C 28.24122 27.71575 0.00195
C 28.26314 26.28679 -0.00802
C 27.01184 25.54888 -0.00218
C 27.07014 24.17262 -0.01654
C 28.25201 23.46458 -0.00037
C 28.2418 22.05732 -0.0032
C 27.07771 21.3087 0.00622
C 27.03867 19.85197 -0.02815
C 28.30136 19.15474 -0.00942
C 28.31281 17.79159 0.00487
C 27.09582 17.02444 0.00826
C 27.03977 28.42514 0.00996
C 23.28069 4.95982 -0.00381
C 25.81286 9.19835 0.02555
C 24.63169 11.37987 0.00135
C 22.10557 2.8607 0.0296
C 23.35433 2.15429 0.03374
C 23.31664 0.72596 -0.02845
C 22.12588 0.05773 -0.03213
C 24.57811 32.66137 0.02239
C 25.79332 31.98407 0.01153
C 25.83327 30.57175 0.02734
C 24.51673 29.87594 -0.0055
C 24.5439 28.38327 0.01515
C 25.74233 27.70945 -0.00225
C 25.77904 26.29072 0.00071
C 25.83062 10.65377 0.03102
C 24.54692 25.6541 -0.01107
C 25.88813 23.40321 -0.01971
C 25.80587 22.01437 -0.02118
C 24.60425 21.28993 0.00733
C 24.63755 19.91669 -0.00178
C 25.84473 19.08825 0.00768
C 25.80054 17.64809 -0.0276
C 24.58021 17.00309 0.03005
C 24.63883 15.64543 -0.04078
C 25.78327 14.8568 0.02117
C 25.69743 13.46279 0.02737
C 24.57718 12.75621 -0.00498
C 24.60051 24.12107 -0.01586
C 2.47529 32.64442 0.00297
