369
Graphene
C 34.35936 0.03891 0.01295
C 11.0338 9.22745 -0.01952
C 9.81663 8.54976 -0.02813
C 9.85384 7.12949 0.00374
C 11.02263 6.44432 0.00052
C 10.96448 5.00201 -0.03682
C 9.75109 4.24696 0.01965
C 9.79966 2.81211 0.02058
C 10.99438 2.10763 -0.01957
C 11.0459 0.68447 -0.0108
C 9.76512 34.02572 -0.00368
C 12.30613 32.63735 -0.02696
C 13.49173 31.94746 -0.00114
C 13.51353 30.57896 0.00228
C 12.29209 29.79251 0.00798
C 12.28423 28.43284 0.00422
C 13.46974 27.62161 0.0351
C 13.51054 26.29018 -0.03113
C 12.29577 25.6123 0.02098
C 12.29878 24.13397 0.01848
C 11.14117 10.68324 0.05265
C 13.51008 23.38947 -0.00619
C 9.82899 11.32015 -0.01717
C 11.08786 13.43271 0.02299
C 7.28399 34.07047 0.02819
C 9.80405 32.60911 0.00165
C 11.08707 31.97231 -0.02971
C 11.09832 30.55988 0.02894
C 9.86717 29.90561 -0.01789
C 9.87463 28.46784 0.00444
C 11.09798 27.72184 -0.00925
C 11.06633 26.32129 0.01877
C 9.85929 25.61329 0.01363
C 9.8627 24.15004 -0.02162
C 11.01296 23.44897 0.00415
C 11.05747 22.0047 -0.0014
C 9.83933 21.29785 0.02162
C 9.90108 19.85084 0.0076
C 11.09229 19.17455 0.01241
C 11.13496 17.72969 -0.01454
C 9.82309 17.00328 0.01945
C 9.8059 15.59545 0.01416
C 11.073 14.85932 0.03542
C 9.79473 12.69485 0.00244
C 8.52167 0.69607 -0.00891
C 13.52489 21.97575 -0.02162
C 12.35513 19.84642 -0.00481
C 14.65262 28.29093 0.04892
C 15.91338 27.63912 -0.00111
C 15.91184 26.24622 -0.03557
C 14.74372 25.55809 0.03754
C 14.77806 24.05682 0.01739
C 15.99651 23.3501 0.00755
C 16.02635 21.95466 -0.0054
C 14.76694 21.28459 0.00667
C 14.83985 19.84225 0.00143
C 16.06827 19.08057 -0.017
C 16.14296 17.69594 0.00364
C 14.85449 16.98007 -0.00831
C 14.83667 15.56334 -0.02957
C 16.06816 14.83432 -0.04422
C 15.92043 13.44732 0.00654
C 14.69727 12.68488 -0.00703
C 14.75592 11.36087 -0.04076
C 14.85826 6.82658 -0.00652
C 15.77843 5.21216 0.0058
C 14.73951 29.74049 0.01452
C 12.2982 21.28967 0.00889
C 15.98619 30.50412 -0.01581
C 14.7607 32.6503 -0.01979
C 13.61438 19.13858 0.00979
C 13.61702 17.75117 0.01443
C 12.33403 17.03363 0.03505
C 12.32221 15.58746 -0.02815
C 13.58097 14.84243 -0.04147
C 13.48478 13.4474 -0.05302
C 12.24704 12.71817 0.00213
C 12.34816 11.33959 -0.00066
C 13.69792 10.48074 -0.00289
C 13.54742 9.09814 0.00028
C 12.24581 8.49365 -0.02213
C 12.29874 7.11269 0.03698
C 13.50386 6.35643 -0.00109
C 13.43581 4.98871 -0.00491
C 12.18332 4.23847 0.03338
C 12.23183 2.79776 -0.0258
C 13.40931 2.11815 -0.0331
C 13.47576 0.77688 -0.00316
C 12.33315 0.00723 0.02188
C 15.97065 31.97801 0.02691
C 8.55676 2.2088 -0.01046
C 7.33786 2.93674 -0.02689
C 7.39728 4.31959 -0.01536
C 3.7085 6.47633 -0.03337
C 3.63833 5.01492 0.01227
C 2.47382 4.29808 0.00873
C 2.41186 2.83022 -0.00049
C 3.66683 2.20833 0.00848
C 3.67523 0.7664 -0.01303
C 2.41341 0.09748 -0.01378
C 4.94502 32.72367 0.02635
C 6.13299 32.00808 0.0127
C 6.12695 30.52196 0.01396
C 4.8923 29.83239 0.01849
C 4.97549 28.42228 -0.01142
C 6.18102 27.72255 -0.00562
C 6.16215 26.32115 -0.00494
C 4.93714 25.66874 0.00054
C 4.8912 24.21254 0.03007
C 6.16321 23.47881 -0.00095
C 6.16318 22.09871 0.01572
C 4.92231 21.34288 -0.04848
C 2.52332 7.18422 -0.00966
C 4.96517 19.92624 -0.00892
C 2.43229 8.51985 -0.02929
C 3.65722 10.72251 -0.00077
C 3.68562 30.53626 0.01996
C 2.43513 29.85069 -0.03996
C 2.44477 28.4702 0.01465
C 3.65787 27.743 -0.00074
C 3.67561 26.29238 -0.00518
C 2.416 25.60475 0.0086
C 2.41868 24.16367 -0.00643
C 3.66368 23.54253 0.017
C 3.68363 22.03949 -0.03113
C 2.47414 21.2625 -0.02566
C 2.42702 19.88185 -0.00094
C 3.69593 19.20246 0.02322
C 3.68221 17.76126 -0.00725
C 2.43686 17.0518 -0.05697
C 2.34622 15.62667 0.01087
C 3.59122 14.94362 -0.01343
C 3.62334 13.57845 0.00988
C 2.44419 12.82714 0.0276
C 2.4635 11.40468 0.01305
C 3.63085 9.27856 0.03368
C 6.1433 19.17 -0.01362
C 6.12558 17.78601 -0.0008
C 4.91636 17.08145 0.0288
C 7.39888 24.16655 0.01641
C 8.68242 23.46753 -0.00719
C 8.59209 22.03709 0.01364
C 7.40039 21.35569 -0.01062
C 7.37671 19.90004 -0.00033
C 8.64919 19.2552 0.03589
C 8.60591 17.80476 -0.02759
C 7.35112 17.08621 0.0402
C 7.38429 15.59065 0.00572
C 8.55832 14.8594 0.03592
C 8.59047 13.43669 0.00406
C 7.36129 12.79921 0.00943
C 7.34025 11.40041 0.02841
C 8.57282 10.61681 -0.01111
C 8.57124 9.25787 -0.01275
C 7.31512 8.60082 0.00985
C 7.36574 7.19145 -0.02245
C 8.58529 6.45345 -0.00428
C 8.59866 5.02062 0.03101
C 7.37521 25.61106 0.02339
C 8.59308 26.32021 -0.00334
C 8.61918 27.7803 -0.01634
C 7.39895 28.46726 0.00057
C 4.84212 15.68077 0.00393
C 6.1361 14.94341 0.00895
C 6.13514 13.55729 0.00685
C 4.89321 12.8925 0.02888
C 4.89093 11.50243 -0.00482
C 6.10888 10.71692 -0.01384
C 6.10633 9.31929 0.03693
C 4.87611 8.56893 0.01745
C 4.96501 7.18608 0.00488
C 14.61215 4.26818 -0.00865
C 6.14229 6.40944 -0.01004
C 4.87936 4.36614 -0.00131
C 4.92303 2.90844 -0.01118
C 6.08578 2.18724 -0.014
C 6.09358 0.74018 0.02147
C 4.88139 0.08298 0.00373
C 7.33506 32.71336 -0.00191
C 8.58181 31.96084 0.00438
C 8.58435 30.60935 0.01291
C 7.41298 29.88793 0.00093
C 6.17361 5.00748 -0.02896
C 3.66326 31.99696 -0.00279
C 14.65842 2.85645 0.00675
C 15.97119 0.73292 0.00742
C 30.74783 4.95584 0.00307
C 29.49245 4.29846 0.00346
C 29.42843 2.86885 0.01713
C 30.70632 2.15228 -0.01694
C 30.69712 0.72498 0.01428
C 29.49186 0.03667 -0.02142
C 31.94251 32.68765 0.0544
C 33.18575 32.03194 0.00026
C 33.15502 30.55678 0.00682
C 31.87667 29.82478 -0.01779
C 31.94043 28.45438 0.03794
C 33.23696 27.75361 0.01927
C 33.15009 26.29835 0.01574
C 31.92168 25.58678 -0.02383
C 31.90917 24.13529 -0.01429
C 33.19435 23.44044 -0.0136
C 33.20939 22.00226 0.00594
C 31.93787 21.29199 -0.02474
C 31.91534 19.85367 0.00369
C 30.77586 6.34621 0.00716
C 33.0022 19.14261 0.00455
C 29.59756 7.11237 0.02108
C 29.41501 21.48057 0.07705
C 28.24229 22.11713 0.03265
C 28.29697 6.37313 -0.02049
C 28.27084 5.0615 -0.01854
C 27.0556 4.23291 -0.01415
C 27.04209 2.80591 -0.03039
C 28.22037 2.11252 0.01836
C 28.20817 0.74295 0.03531
C 27.01181 0.04685 -0.00669
C 29.49852 32.65873 0.0101
C 30.73108 31.91784 0.01705
C 30.70348 30.51641 -0.0405
C 29.47577 29.78425 -0.01303
C 29.47302 28.41112 -0.01461
C 30.73045 27.69775 -0.02155
C 30.68849 26.24574 -0.00944
C 29.48776 25.55405 -0.03735
C 29.50921 24.11962 -0.00971
C 30.72623 23.39863 0.01518
C 30.71019 22.05876 0.01908
C 30.57453 9.0475 0.0103
C 28.23169 23.52185 0.00261
C 33.2835 17.8273 -0.00644
C 33.22446 13.45037 0.00137
C 34.33104 19.86818 0.01951
C 1.17659 19.20823 -0.01678
C 1.18639 17.73745 0.01223
C 34.35836 17.0202 0.00648
C 34.35631 15.62048 0.02114
C 1.14016 14.86673 -0.02957
C 1.22424 13.47548 0.00343
C 34.4315 12.70998 -0.02656
C 34.35728 11.36574 -0.02442
C 1.21822 10.70217 -0.00027
C 1.206 9.27224 -0.00583
C 34.38628 8.61013 -0.02302
C 0.02951 7.15382 -0.02849
C 1.25716 6.43984 0.02931
C 1.21912 5.02618 0.00628
C 34.41946 4.29828 -0.0345
C 34.37548 2.89431 -0.00931
C 1.15421 2.20512 -0.00939
C 1.19293 0.79179 -0.00468
C 0.03856 21.2784 -0.02213
C 33.24693 14.83532 -0.01839
C 1.20951 21.99366 0.02712
C 0.03369 24.11959 0.03076
C 33.22069 10.65244 0.00199
C 33.12911 9.29038 0.04381
C 31.9652 8.48373 0.02806
C 32.01274 7.09383 0.01504
C 33.27872 6.39329 -0.00069
C 33.17519 4.98102 0.04926
C 31.93465 4.26783 -0.03838
C 31.95577 2.89691 0.00349
C 33.18526 2.15418 -0.00323
C 33.12646 0.68058 -0.00841
C 31.88465 0.03543 0.0001
C 34.40948 32.70352 -0.02927
C 1.24806 32.03309 -0.01404
C 1.28772 30.59476 0.01027
C 0.02175 29.90236 0.01831
C 34.41747 28.5335 -0.01037
C 1.20572 27.77664 -0.00439
C 1.15828 26.35771 -0.00598
C 34.37794 25.59053 -0.05239
C 1.25626 23.42318 0.00723
C 27.07301 24.22083 0.02326
C 27.03798 25.61807 0.00924
C 28.29712 26.29232 0.0014
C 18.45157 0.65183 0.01153
C 17.13801 34.02264 0.02734
C 19.7017 32.66993 -0.0055
C 20.91883 31.94562 0.01515
C 20.8618 30.51709 -0.00225
C 19.60023 29.77231 0.00071
C 19.54392 28.33549 -0.01107
C 20.79804 27.65302 -0.01586
C 20.82888 26.22305 -0.01971
C 19.5675 25.46027 -0.02118
C 19.70356 24.04354 0.00733
C 21.01574 23.29981 -0.00178
C 20.91116 21.94868 0.00768
C 19.73894 21.22347 -0.0276
C 19.82227 19.79447 0.03005
C 20.8307 6.23642 -0.04078
C 20.75459 4.93526 0.02117
C 19.59785 4.20624 0.02737
C 19.61752 2.78166 -0.00498
C 18.33688 2.13751 0.02239
C 20.83985 2.10401 0.00135
C 17.11648 2.87884 -0.03213
C 18.35747 4.95879 0.03374
C 14.74444 34.06176 -0.01594
C 17.21205 32.65146 0.0106
C 18.46374 31.94192 -0.01154
C 18.40161 30.46167 -0.01721
C 17.14309 29.75177 -0.02422
C 17.13282 28.35325 0.01277
C 18.31123 27.65481 0.00096
C 18.35062 26.23034 -0.01527
C 17.19051 25.50113 0.01087
C 17.23254 24.08646 0.00199
C 18.44044 23.35296 0.01511
C 18.4953 21.92963 -0.00478
C 17.21438 21.27521 -0.01662
C 17.24931 19.86437 -0.01185
C 18.6133 19.15546 0.01126
C 18.28929 17.81857 0.01852
C 17.43482 16.80314 -0.00381
C 17.35363 15.36719 0.03046
C 17.0536 12.56879 0.0296
C 17.02346 4.51771 -0.02845
C 20.90345 0.64074 0.03102
C 19.65571 34.07288 0.02555
C 22.1199 32.61008 0.01423
C 25.80617 27.71081 -0.00294
C 25.76333 26.27959 0.00152
C 24.52688 25.5831 0.01257
C 24.576 24.1808 0.02316
C 25.83706 23.47602 0.04185
C 25.87512 22.04248 0.00194
C 26.01219 6.40667 -0.00621
C 25.84693 4.97657 0.02611
C 24.51229 4.30832 0.02198
C 24.57444 2.87465 0.01094
C 25.78261 2.17993 0.00235
C 25.80705 0.755 0.01495
C 24.66021 0.0536 0.01259
C 27.0885 32.68032 0.01799
C 28.28677 31.94711 0.01699
C 28.30211 30.52616 -0.00416
C 27.00647 29.85539 0.01177
C 27.08699 28.39495 0.04266
C 28.24647 27.68548 0.01324
C 24.50227 28.36158 0.00826
C 24.54994 29.77587 0.00487
C 25.802 30.49193 -0.00942
C 25.88994 31.89718 -0.02815
C 23.3771 31.90179 -0.00285
C 23.34521 30.50245 -0.009
C 22.11988 29.77557 -0.01199
C 21.98964 28.41129 -0.00229
C 23.32677 27.6152 -0.00938
C 23.28072 26.17411 -0.0264
C 22.10193 25.47267 -0.01154
C 22.20115 24.07092 0.00684
C 23.41895 23.46684 -0.01052
C 15.90773 2.18301 -0.00311
C 23.40581 22.11402 -0.01679
C 22.0299 6.99863 0.04306
C 23.26017 6.43337 0.00996
C 23.29903 5.0423 0.00195
C 22.09785 4.2348 -0.00802
C 22.10251 2.82773 -0.00218
C 23.36024 2.14144 -0.01654
C 23.373 0.71284 -0.00037
C 22.17169 34.06636 -0.0032
C 24.65353 32.65233 0.00622
C 22.219 21.35032 0.00367
C 2.51145 32.64504 0.01226
