272
Graphene
C 0.05703 0.04132 0.01295
C 13.49262 9.29089 0.00199
C 13.56682 10.71843 0.01087
C 12.44601 11.43694 -0.01527
C 12.35291 28.39629 0.00096
C 12.25703 29.77904 0.01277
C 13.57597 30.4803 -0.02422
C 13.5649 31.88739 -0.01721
C 12.32815 32.59576 -0.01154
C 9.85945 34.0259 0.0106
C 11.14921 0.71533 -0.01594
C 11.06373 2.12461 0.00742
C 9.81641 2.77762 -0.00311
C 9.85774 4.15731 0.00675
C 11.07685 4.93594 -0.00865
C 12.31914 8.53495 0.01511
C 11.01514 6.4503 0.0058
C 9.81586 8.57882 -0.04076
C 11.10384 9.2421 -0.00703
C 11.09603 10.73058 0.00654
C 9.75955 11.22517 -0.04422
C 9.69106 25.80365 -0.02957
C 10.97075 26.35251 -0.00831
C 11.12021 27.7311 0.00364
C 9.8165 28.31548 -0.017
C 9.79964 29.68744 0.00143
C 11.0094 30.46904 0.00667
C 11.03331 31.97314 -0.0054
C 9.86087 32.64034 0.00755
C 7.31623 0.01829 0.01739
C 8.58198 0.65491 0.03754
C 9.796 7.19475 -0.00652
C 8.6181 2.11429 -0.03557
C 12.26881 7.06789 -0.00478
C 13.52105 4.98399 -0.01185
C 17.18459 8.57911 0.03102
C 18.57373 9.22316 0.00135
C 18.65919 10.71361 -0.00498
C 17.38051 11.2826 0.02737
C 17.05483 12.70835 0.02117
C 18.42598 31.9093 -0.04078
C 17.24986 32.73055 0.03005
C 14.80424 34.0363 -0.0276
C 16.03648 0.73261 0.00768
C 16.00048 2.12825 -0.00178
C 14.78322 2.77944 0.00733
C 14.76624 4.27099 -0.02118
C 15.98942 4.97632 -0.01971
C 15.96154 6.46776 -0.01586
C 13.58497 6.3648 -0.01662
C 14.79523 7.17582 -0.01107
C 15.95408 9.37091 -0.00225
C 16.08299 10.68159 0.01515
C 14.81779 11.36242 -0.0055
C 14.6348 12.8397 0.02734
C 15.94805 13.42418 0.01153
C 14.82081 29.92254 0.02239
C 16.05234 30.50044 -0.03213
C 16.12086 31.91844 -0.02845
C 14.88629 32.62908 0.03374
C 12.40383 34.05052 0.0296
C 13.60196 0.65187 0.03046
C 13.51553 2.02772 -0.00381
C 12.33865 2.79457 0.01852
C 12.28576 4.258 0.01126
C 14.76567 8.62916 0.00071
C 17.22827 7.15138 0.02555
C 7.4323 2.8368 -0.00111
C 8.6125 4.87887 0.01452
C 6.06808 32.00078 -0.02696
C 4.88209 32.71164 -0.00368
C 2.4684 0.03696 -0.0108
C 3.69012 0.78052 -0.01957
C 3.67589 2.19881 0.02058
C 2.4832 2.90424 0.01965
C 2.42485 4.26081 -0.03682
C 3.70679 4.98391 0.00052
C 3.6572 6.38899 0.00374
C 2.41923 7.08185 -0.02813
C 2.41434 8.59516 -0.01952
C 3.63129 9.31656 0.05265
C 3.61411 10.66891 -0.01717
C 2.47033 11.43428 0.00244
C 6.09478 30.55812 -0.00114
C 2.53059 12.79957 0.02299
C 3.63334 14.97246 0.01416
C 2.37293 15.57945 0.01945
C 2.34628 16.98316 -0.01454
C 2.16414 20.02203 0.01241
C 2.23103 21.38495 0.0076
C 3.50384 21.93475 0.02162
C 3.6744 23.39648 -0.0014
C 2.34557 24.12243 0.00415
C 2.34801 25.55786 -0.02162
C 3.50914 26.30597 0.01363
C 3.6024 27.76608 0.01877
C 2.40345 28.44116 -0.00925
C 2.4366 29.88015 0.00444
C 3.68791 30.58731 -0.01789
C 3.70576 13.54509 0.03542
C 7.41302 4.21048 0.04892
C 4.88524 29.82649 0.00228
C 6.10818 27.74484 0.00422
C 8.62409 6.33534 -0.01581
C 7.42139 6.99723 0.02691
C 7.3296 8.57014 -0.01979
C 8.58432 9.22554 0.02188
C 8.42126 10.73935 -0.00316
C 7.21836 11.38489 -0.0331
C 7.1486 25.55753 -0.0258
C 8.43532 26.34211 0.03338
C 8.57438 27.72094 -0.00491
C 7.37846 28.52047 -0.00109
C 7.39007 29.88435 0.03698
C 8.62627 30.56318 -0.02213
C 8.57241 32.00415 0.00028
C 7.33992 32.65385 -0.00289
C 4.80532 28.48362 0.00798
C 4.90077 0.05871 -0.00066
C 6.23709 2.14598 -0.05302
C 4.93592 2.81514 -0.04147
C 4.85567 4.3148 -0.02815
C 6.15627 4.94113 0.03505
C 6.11033 6.38518 0.01443
C 4.86924 7.19568 0.00979
C 4.83635 8.6036 -0.00481
C 6.08695 9.20175 0.00889
C 6.11732 10.60513 -0.02162
C 4.81956 11.30653 -0.00619
C 4.89925 12.78174 0.01848
C 4.85999 24.17966 0.02098
C 4.75104 25.60431 -0.03113
C 5.96167 26.33763 0.0351
C 6.13439 0.74209 0.00213
C 18.45777 6.40861 0.01423
C 18.48154 5.01337 -0.00285
C 17.20443 4.20455 -0.009
C 31.90969 2.90352 0.00349
C 31.87598 4.33964 -0.03838
C 33.09813 5.07126 0.04926
C 33.09523 6.49674 -0.00069
C 31.80739 7.20017 0.01504
C 31.8122 8.65889 0.02806
C 33.12484 9.26576 0.04381
C 33.18779 10.6988 0.00199
C 31.91808 11.45519 0.00137
C 33.26486 13.56435 -0.01839
C 33.14818 14.81147 -0.00644
C 32.96694 21.9032 0.00455
C 32.97315 23.38752 0.00369
C 31.8363 24.23486 -0.02474
C 33.1395 2.21562 -0.00323
C 31.97999 25.64285 0.00594
C 33.15198 27.71813 -0.01429
C 31.93478 28.47223 -0.02383
C 31.95566 29.87789 0.01574
C 33.16699 30.59304 0.01927
C 33.14444 31.99336 0.03794
C 31.9599 32.71676 -0.01779
C 29.47593 0.03747 0.00682
C 30.7185 0.73328 0.00026
C 30.72355 2.222 0.0544
C 29.45856 2.85742 -0.02142
C 29.49745 4.32546 0.01428
C 30.71006 5.04692 -0.01694
C 30.62716 6.50423 0.01713
C 29.38597 7.18713 0.00346
C 33.23496 26.31053 -0.0136
C 29.29401 8.59194 0.00307
C 33.24067 0.77994 -0.00841
C 0.01412 32.69524 -0.02927
C 1.21805 0.74746 -0.00468
C 1.207 2.17904 -0.00939
C 34.431 2.89466 -0.00931
C 34.38941 4.3704 -0.0345
C 1.22386 5.02822 0.00628
C 1.19095 6.43213 0.02931
C 34.40334 7.12019 -0.02849
C 34.35224 8.53892 -0.02302
C 1.09211 9.31688 -0.00583
C 1.24214 10.70271 -0.00027
C 34.40845 11.33485 -0.02442
C 34.40785 12.85334 -0.02656
C 1.26939 13.5511 0.00343
C 1.17872 14.93512 -0.02957
C 31.96951 0.01728 0.0001
C 34.32294 15.62878 0.02114
C 1.11454 17.75748 0.01223
C 1.08352 19.21819 -0.01678
C 34.4287 20.03784 0.01951
C 34.17794 21.38038 -0.02213
C 0.98971 22.14698 0.02712
C 1.10651 23.43671 0.00723
C 34.29238 24.08493 0.03076
C 34.32077 25.45066 -0.05239
C 1.1054 26.25098 -0.00598
C 1.18649 27.69575 -0.00439
C 34.35174 28.36792 -0.01037
C 0.00335 29.85563 0.01831
C 1.20796 30.60554 0.01027
C 1.25096 32.01707 -0.01404
C 0.0073 17.00032 0.00648
C 30.58191 9.36513 0.00716
C 30.86838 10.78885 0.02108
C 29.55646 25.75251 0.0103
C 25.8493 32.05835 0.02611
C 24.62692 32.68827 -0.00621
C 22.16219 0.03543 0.00194
C 23.39621 0.69237 0.04185
C 23.34059 2.1196 0.02316
C 22.15459 2.81038 0.01257
C 22.13791 4.24992 0.00152
C 23.36207 4.91872 -0.00294
C 23.29424 6.37 0.00826
C 22.17999 7.14984 0.00487
C 22.18913 8.53144 -0.00942
C 23.44311 30.47246 -0.02815
C 23.44249 31.9438 0.00622
C 22.16338 32.69232 -0.0032
C 25.86372 30.63465 0.02198
C 19.66896 34.00121 -0.00037
C 20.87395 2.1345 -0.00218
C 19.58852 2.86268 -0.00802
C 19.63968 4.2603 0.00195
C 20.90078 4.9347 0.00996
C 20.89073 6.36431 0.04306
C 19.71563 7.0301 0.00367
C 19.70567 8.45526 -0.01679
C 21.16206 9.12868 -0.01052
C 21.05384 31.95743 0.00684
C 19.71202 32.51336 -0.01154
C 17.2538 0.10397 -0.0264
C 18.4908 0.69666 -0.00938
C 18.50364 2.06754 -0.00229
C 17.17595 2.77513 -0.01199
C 20.90776 0.70489 -0.01654
C 24.71171 29.87363 0.01094
C 24.55623 8.49344 0.00235
C 24.4832 7.21089 0.01495
C 30.70319 26.3708 0.07705
C 30.73917 27.81556 0.01908
C 29.43441 28.4333 0.01518
C 29.55232 29.82647 -0.00971
C 30.73649 30.54203 -0.03735
C 30.72943 32.07528 -0.00944
C 29.48611 32.67962 -0.02155
C 27.11552 33.99382 -0.01461
C 28.2227 0.71496 -0.01303
C 28.19281 2.14236 -0.0405
C 26.99535 2.91216 0.01705
C 27.09337 4.30926 0.0101
C 28.27462 5.06508 -0.00669
C 28.22685 6.47777 0.03531
C 26.92488 7.1125 0.01836
C 26.83093 8.50607 -0.03039
C 27.94182 9.08688 -0.01415
C 25.70528 6.36977 0.01259
C 25.78422 4.9696 0.01799
C 24.59595 4.27205 0.01699
C 24.49099 2.84577 -0.00416
C 25.80657 2.1639 0.01177
C 25.84608 0.67683 0.04266
C 3.69567 32.03238 0.02894
C 24.62354 34.07176 0.01324
C 28.28414 31.97085 0.00924
C 28.31123 30.58361 0.02326
C 27.09604 29.86844 0.00261
C 26.95582 28.49799 0.03265
C 28.09075 27.7849 -0.02049
C 28.29192 26.37341 -0.01854
C 27.07492 32.67561 0.0014
C 2.48139 32.71356 -0.02971
