416
Graphene
C 34.35649 34.00111 0.01295
C 13.54899 2.255 -0.01111
C 13.53179 0.7814 -0.01275
C 12.29628 0.12268 0.00985
C 14.6806 32.68306 -0.02245
C 15.8943 31.86937 -0.00428
C 15.83512 30.50258 0.03101
C 14.59366 29.76996 -0.01536
C 14.64934 28.3746 -0.02689
C 15.84006 27.67655 -0.01046
C 15.7732 26.32937 -0.00891
C 12.32032 2.91126 0.02841
C 15.84631 17.66925 0.02819
C 14.76101 15.48853 -0.02971
C 15.98905 14.89434 0.02894
C 15.96609 13.51429 -0.01789
C 14.76695 12.81185 0.00444
C 14.72472 11.34512 -0.00925
C 15.98835 10.67732 0.01877
C 15.98333 9.29626 0.01363
C 14.73323 8.58502 -0.02162
C 14.79338 7.07733 0.00415
C 16.02966 6.43373 -0.0014
C 14.79521 17.00062 0.00165
C 16.04401 5.01415 0.02162
C 12.28758 4.38952 0.00943
C 13.54085 6.4108 0.03592
C 11.02389 5.08024 -0.00131
C 9.79753 4.44642 -0.01118
C 9.82175 3.01316 -0.014
C 11.05246 2.23401 0.02147
C 11.0436 0.82467 0.00373
C 9.78903 0.13365 -0.00191
C 12.23724 32.75677 0.00438
C 13.47465 31.92114 0.01291
C 13.39657 30.48773 0.00093
C 12.29414 29.69442 0.00057
C 13.55469 5.02034 0.00406
C 12.25346 28.27677 -0.01634
C 12.26391 17.05631 0.02339
C 12.23529 15.7291 0.01641
C 13.4786 14.91241 -0.00719
C 13.56538 13.50187 0.01364
C 12.32004 12.87027 -0.01062
C 12.27326 11.52134 -0.00033
C 13.48431 10.68683 0.03589
C 13.43104 9.30418 -0.02759
C 12.23815 8.59198 0.0402
C 12.24837 7.19791 0.00572
C 13.47592 27.59878 -0.00334
C 11.00262 6.48965 -0.02896
C 14.75644 4.34848 0.0076
C 15.93121 2.24157 -0.01454
C 17.26585 7.09949 -0.00619
C 18.51136 6.38957 -0.02162
C 18.50354 4.97925 0.00889
C 17.27921 4.26831 -0.00481
C 17.28187 2.89792 0.00979
C 18.49535 2.13156 0.01443
C 18.43245 0.77956 0.03505
C 17.1699 0.04486 -0.02815
C 19.61185 32.68623 -0.04147
C 20.84222 31.91732 -0.05302
C 17.21596 8.57363 0.01848
C 20.77702 30.51693 0.00213
C 19.52407 28.28466 -0.00289
C 20.81939 27.68952 0.00028
C 20.71757 26.29304 -0.02213
C 19.48418 25.47414 0.03698
C 19.57885 24.18858 -0.00109
C 20.82086 23.43704 -0.00491
C 20.88466 21.97282 0.03338
C 19.66217 21.21482 -0.0258
C 19.70957 19.85475 -0.0331
C 20.93845 19.1468 -0.00316
C 19.53134 29.77287 -0.00066
C 14.77911 2.92956 0.01241
C 18.41827 9.16854 0.02098
C 17.24286 11.35611 0.0351
C 15.97929 0.78528 0.01945
C 14.72192 0.05465 0.01416
C 17.12526 32.6777 0.03542
C 18.29866 31.97452 0.02299
C 18.3254 30.53723 0.00244
C 17.04659 29.80406 -0.01717
C 17.1268 28.36622 0.05265
C 18.27567 27.57393 -0.01952
C 18.21893 26.11681 -0.02813
C 16.8994 25.43153 0.00374
C 18.47781 10.57745 -0.03113
C 17.14758 24.05657 0.00052
C 18.4828 21.98451 0.01965
C 17.31046 21.1533 0.02058
C 17.26804 19.86335 -0.01957
C 18.4891 19.17926 -0.0108
C 18.50428 17.68186 -0.00368
C 17.19327 16.99815 -0.02696
C 17.17734 15.55084 -0.00114
C 18.41342 14.88501 0.00228
C 18.4475 13.45562 0.00798
C 17.24726 12.77409 0.00422
C 18.35152 23.40452 -0.03682
C 20.97298 17.72717 0.02188
C 9.80913 7.25192 -0.01004
C 10.98262 9.33443 0.01745
C 2.3481 2.88553 -0.03291
C 3.57428 2.22296 -0.04999
C 3.57665 0.74991 0.04505
C 2.34382 0.00083 0.03284
C 4.84236 32.77691 -0.04307
C 6.11959 32.11582 0.03189
C 6.06058 30.62716 0.00031
C 4.88926 29.78413 -0.003
C 4.86567 28.42464 0.01402
C 6.06514 27.83761 0.02379
C 2.37493 4.27347 0.02769
C 6.37961 26.39715 0.00907
C 5.00517 24.25468 -0.01509
C 6.1169 23.38832 0.03267
C 6.08614 22.00426 0.02374
C 4.88788 21.33334 0.00402
C 4.88794 19.83375 0.0073
C 6.1947 19.29942 0.0174
C 6.12841 17.89977 0.03828
C 4.92088 17.08366 0.01226
C 4.8956 15.6524 -0.00279
C 6.09127 15.06424 0.01996
C 5.00801 25.70312 0.00643
C 6.15902 13.61859 -0.03996
C 3.64941 4.94355 0.01707
C 2.44586 7.05194 -0.00561
C 3.6608 30.53525 -0.00407
C 2.40602 29.75529 0.01138
C 2.42705 28.29068 0.03278
C 3.68328 27.64686 -0.00177
C 3.70887 26.30065 0.04421
C 2.53296 25.57182 0.00088
C 2.55853 24.11597 0.00828
C 3.79185 23.43458 -0.02375
C 3.75267 22.06582 0.00558
C 2.52 21.38418 -0.0059
C 3.6482 6.38513 0.00208
C 2.49494 19.93148 -0.01386
C 3.71673 17.72698 0.00081
C 2.46833 17.06115 0.00245
C 2.35148 15.68101 0.02728
C 3.62011 14.99966 -0.00039
C 3.6684 13.56848 0.0064
C 2.36651 12.75925 0.00211
C 2.40934 11.34525 -0.00449
C 3.62888 10.72655 -0.01979
C 3.6434 9.30951 0.02784
C 2.42856 8.4481 -0.01977
C 3.72508 19.13378 -0.02805
C 9.80674 8.64478 0.00488
C 4.94049 12.9264 0.01465
C 6.04959 10.65522 -0.00518
C 7.39278 8.55478 0.0127
C 7.39241 7.1949 0.01396
C 8.59183 6.47159 0.01849
C 8.57746 5.09366 -0.01142
C 7.37337 4.3917 -0.00562
C 7.41615 2.99234 -0.00494
C 8.62874 2.24346 0.00054
C 8.58252 0.89294 0.03007
C 7.32466 0.14983 -0.00095
C 9.86942 32.80829 0.01572
C 8.55651 9.34841 0.02635
C 11.05942 31.98675 -0.04848
C 9.68111 29.88281 -0.01362
C 9.59565 28.34725 -0.0008
C 10.88659 27.83805 0.0288
C 9.88615 17.11885 0.00393
C 9.86713 15.63111 0.00895
C 11.05048 14.95504 0.00685
C 11.08622 13.57773 0.02888
C 9.82524 12.89764 -0.00482
C 9.72304 11.43664 -0.01384
C 10.92801 10.71174 0.03693
C 10.94286 30.46762 -0.00892
C 4.88565 11.4391 -0.00074
C 8.50918 10.67256 -0.01378
C 7.34263 12.86521 0.00848
C 6.0781 9.23482 0.0086
C 4.83383 8.57893 -0.00643
C 4.89979 7.12148 0.017
C 6.07403 6.4926 -0.03113
C 6.04855 5.05871 -0.02566
C 4.85191 4.31581 -0.00094
C 4.88687 2.90299 0.02322
C 6.09604 2.30217 -0.00725
C 6.05909 0.82267 -0.05697
C 4.86438 0.07164 0.01087
C 7.24702 11.38564 -0.01303
C 7.33526 32.80727 -0.01343
C 8.56238 30.65586 0.0276
C 7.33608 29.93832 0.01305
C 7.32505 28.4889 -0.00077
C 8.34152 27.54743 0.03368
C 7.86786 26.29743 -0.02929
C 8.67842 17.65289 -0.00966
C 7.40151 17.15872 -0.03337
C 7.38763 15.79517 0.01227
C 8.57381 14.97939 0.00873
C 8.57393 13.57514 -0.00049
C 8.64098 32.06796 0.00988
C 19.73322 16.98985 -0.01979
C 19.63724 15.53489 0.02691
C 20.84564 14.83214 -0.01581
C 30.72309 10.58133 -0.00944
C 30.71097 9.13387 -0.03735
C 29.52935 8.43033 -0.00971
C 29.55592 7.05441 0.01518
C 30.79298 6.30838 0.01908
C 30.79605 4.89472 0.07705
C 29.51922 4.28398 0.0103
C 29.52035 2.80003 0.02108
C 30.75369 2.08971 0.00716
C 30.71518 0.71765 0.00307
C 29.50293 11.25661 -0.02155
C 29.54772 34.02469 0.00346
C 33.09243 31.90021 -0.01694
C 33.15958 30.50519 0.01428
C 31.9647 29.80917 -0.02142
C 31.90367 28.36964 0.0544
C 33.17321 27.6135 0.00026
C 33.16643 26.17695 0.00682
C 31.90111 25.54853 -0.01779
C 31.91537 24.11033 0.03794
C 33.13043 23.40609 0.01927
C 33.13065 21.99695 0.01574
C 31.88305 32.68574 0.01713
C 31.91428 21.21765 -0.02383
C 29.45389 12.68088 -0.01461
C 30.71059 14.86958 -0.0405
C 27.15765 4.23023 0.01495
C 27.0647 2.74018 0.01259
C 28.33474 2.12085 0.01799
C 28.29959 0.68167 0.01699
C 26.99541 0.02514 -0.00416
C 29.46582 32.61106 0.01177
C 30.62752 31.9318 0.04266
C 30.70887 30.48423 0.01324
C 29.43947 29.86449 0.0014
C 29.37102 28.4497 0.00924
C 30.65702 13.46026 -0.01303
C 30.63571 27.75554 0.02326
C 29.47863 25.54437 0.03265
C 29.47152 24.17153 -0.02049
C 30.72048 23.42303 -0.01854
C 30.79306 22.00982 -0.01415
C 29.49356 21.29757 -0.03039
C 29.46932 19.92921 0.01836
C 30.67584 19.1698 0.03531
C 30.63853 17.76081 -0.00669
C 29.48444 16.98785 0.0101
C 29.54637 15.61755 0.01705
C 30.69451 26.27864 0.00261
C 28.28426 5.05789 0.00235
C 31.91261 19.7965 -0.01429
C 33.22386 17.72951 0.00594
C 1.27639 23.48713 0.00723
C 1.219 22.02856 0.02712
C 34.37211 21.30026 -0.02213
C 34.37946 19.86674 0.01951
C 1.20619 19.22149 -0.01678
C 1.22099 17.7483 0.01223
C 34.4076 17.0375 0.00648
C 34.41967 15.64252 0.02114
C 1.21734 14.95734 -0.02957
C 1.16925 13.46804 0.00343
C 34.39404 24.14672 0.03076
C 34.38715 12.83161 -0.02656
C 1.21735 10.61605 -0.00027
C 1.19033 9.24722 -0.00583
C 34.40919 8.47998 -0.02302
C 34.41358 7.0457 -0.02849
C 1.21825 6.38945 0.02931
C 1.16159 4.95886 0.00628
C 34.36539 4.29909 -0.0345
C 34.38914 2.82226 -0.00931
C 1.1379 2.06711 -0.00939
C 1.10485 0.64745 -0.00468
C 34.42297 11.35565 -0.02442
C 33.14388 19.16249 -0.0136
C 0.03493 25.51999 -0.05239
C 1.19124 27.68565 -0.00439
C 31.90935 17.01387 -0.02474
C 31.97784 15.64277 0.00369
C 33.21228 14.94557 0.00455
C 33.12943 13.48374 -0.00644
C 31.94843 12.73442 -0.01839
C 31.90058 11.36076 0.00137
C 33.19446 10.6547 0.00199
C 33.20025 9.22517 0.04381
C 31.95004 8.51091 0.02806
C 32.00088 7.05869 0.01504
C 1.27475 26.2448 -0.00598
C 33.18124 6.32009 -0.00069
C 32.01385 4.17877 -0.03838
C 31.95208 2.76067 0.00349
C 33.19293 2.07727 -0.00323
C 33.24517 0.73587 -0.00841
C 31.98663 0.03007 0.0001
C 34.33268 32.64151 -0.02927
C 1.05825 31.89798 -0.01404
C 1.16104 30.52086 0.01027
C 34.36903 29.79736 0.01831
C 34.3633 28.36111 -0.01037
C 33.16816 4.94679 0.04926
C 28.27673 6.47663 0.01094
C 27.05266 7.0609 0.02198
C 27.07892 8.43114 0.02611
C 22.11045 19.93026 -0.01154
C 23.35123 19.19724 -0.01721
C 23.43403 17.7796 -0.02422
C 22.18335 17.01549 0.01277
C 22.11157 15.57682 0.00096
C 23.2861 14.83788 -0.01527
C 23.40528 13.45878 0.01087
C 22.15066 12.74884 0.00199
C 22.07604 11.27176 0.01511
C 23.3268 10.5824 -0.00478
C 22.07624 21.36266 0.0106
C 23.40779 9.19139 -0.01662
C 22.17585 7.06831 0.01126
C 23.46379 6.35736 0.01852
C 23.34173 4.95933 -0.00381
C 22.13981 4.28239 0.03046
C 22.13053 2.80148 0.0296
C 23.36876 2.12605 0.03374
C 23.36131 0.66511 -0.02845
C 22.0927 0.02023 -0.03213
C 24.5337 32.61666 0.02239
C 25.71023 31.88645 0.01153
C 22.19509 8.47076 -0.01185
C 25.83162 30.51663 0.02734
C 23.26194 22.04882 -0.01594
C 22.08252 24.17708 -0.00311
C 20.88677 13.40083 0.01452
C 19.67179 12.75565 0.04892
C 19.61309 11.2561 -0.00111
C 20.85668 10.60127 -0.03557
C 20.87581 9.17938 0.03754
C 19.6735 8.50721 0.01739
C 19.70338 7.08064 0.00755
C 20.98527 6.37119 -0.0054
C 20.93437 4.93478 0.00667
C 19.71824 4.21367 0.00143
C 23.30258 23.42927 0.00742
C 19.71415 2.86605 -0.017
C 20.88175 0.70992 -0.00831
C 19.64671 0.05216 -0.02957
C 22.08221 32.63188 -0.04422
C 23.29681 31.9147 0.00654
C 23.29802 30.55443 -0.00703
C 21.99889 29.84922 -0.04076
C 22.08099 28.44858 -0.00652
C 23.33062 27.76895 0.0058
C 23.33532 26.33623 -0.00865
C 22.03269 25.59357 0.00675
C 20.91961 2.06299 0.00364
C 24.56397 29.90013 -0.0055
C 24.47337 28.45947 0.01515
C 25.66209 27.72554 -0.00225
C 28.20582 32.00088 -0.01679
C 28.20632 30.57943 0.00367
C 26.99932 29.8564 0.04306
C 26.93989 28.44731 0.00996
C 28.16948 27.71794 0.00195
C 28.24086 26.22614 -0.00802
C 27.03774 25.5873 -0.00218
C 27.04345 24.20146 -0.01654
C 28.22542 23.37402 -0.00037
C 28.22656 21.90484 -0.0032
C 27.01716 32.68629 -0.01052
C 27.03506 21.2644 0.00622
C 28.23319 19.11702 -0.00942
C 28.2642 17.65879 0.00487
C 27.05871 16.9265 0.00826
C 27.00594 15.50118 -0.00294
C 28.27578 14.88785 0.00152
C 28.19735 13.4107 0.01257
C 27.0523 12.6632 0.02316
C 27.09335 11.28254 0.04185
C 28.28873 10.54628 0.00194
C 28.29695 9.14231 -0.00621
C 27.00414 19.86308 -0.02815
C 24.53072 34.07494 0.00684
C 25.68522 0.66199 -0.01154
C 25.78769 2.13479 -0.0264
C 25.79723 26.27549 0.00071
C 24.55676 25.63117 -0.01107
C 24.52665 24.17342 -0.01586
C 25.82032 23.46376 -0.01971
C 25.78331 22.03606 -0.02118
C 24.55229 21.26411 0.00733
C 24.60779 19.86981 -0.00178
C 25.86704 19.10528 0.00768
C 25.8868 17.65 -0.0276
C 24.59175 17.02631 0.03005
C 24.55377 15.64675 -0.04078
C 25.7404 14.7845 0.02117
C 25.82619 13.35811 0.02737
C 24.58859 12.66158 -0.00498
C 24.57239 11.25773 0.00135
C 25.86704 10.60084 0.03102
C 25.89227 9.18612 0.02555
C 24.60695 8.45633 0.01423
C 24.65184 7.05213 -0.00285
C 25.85791 6.32202 -0.009
C 25.89803 4.90921 -0.01199
C 24.61751 4.29347 -0.00229
C 24.56571 2.82998 -0.00938
C 3.63021 31.96726 -0.01299
C 2.40237 32.61889 -0.0154
