273
Graphene
C 0.02177 0.04647 0.01295
C 13.58748 30.49031 0.00199
C 13.52426 32.00397 0.01087
C 12.29534 32.74313 -0.01527
C 9.88422 0.01582 0.00096
C 11.11299 0.7849 0.01277
C 11.07244 2.15576 -0.02422
C 9.78103 2.81464 -0.01721
C 9.78144 4.21235 -0.01154
C 11.03591 4.80096 0.0106
C 11.06228 6.31155 -0.01594
C 9.92955 7.10589 0.00742
C 9.88805 8.48652 -0.00311
C 11.20922 9.20517 0.00675
C 11.0084 10.65439 -0.00865
C 12.29413 29.90207 0.01511
C 9.93291 11.22801 0.0058
C 11.14576 26.19726 -0.04076
C 11.01536 27.61271 -0.00703
C 9.82298 28.3026 0.00654
C 9.77017 29.80843 -0.04422
C 10.99491 30.57656 -0.02957
C 11.06775 31.94422 -0.00831
C 9.80893 32.67469 0.00364
C 7.31396 0.05358 -0.017
C 8.6114 0.75411 0.00143
C 8.63452 2.13011 0.00667
C 7.3979 2.85637 -0.0054
C 7.40371 4.27777 0.00755
C 8.58141 5.00323 0.01739
C 8.62778 6.39342 0.03754
C 11.2116 23.49223 -0.00652
C 7.39895 7.18204 -0.03557
C 12.20474 28.40965 -0.00478
C 12.23257 24.20669 -0.01185
C 20.89993 0.58096 0.03102
C 20.93095 2.11326 0.00135
C 19.71853 2.87708 -0.00498
C 19.80197 4.25582 0.02737
C 17.1402 34.01902 0.02117
C 18.41734 0.6862 -0.04078
C 18.464 2.12474 0.03005
C 17.14457 2.80372 -0.0276
C 17.23832 4.25553 0.00768
C 18.62805 4.98843 -0.00178
C 18.30373 6.44921 0.00733
C 17.32315 7.02435 -0.02118
C 14.73064 0.07364 -0.01971
C 15.96242 0.72483 -0.01586
C 12.15845 25.43483 -0.01662
C 15.96802 2.12432 -0.01107
C 14.74954 4.33846 -0.00225
C 15.98995 4.94647 0.01515
C 15.90455 6.4845 -0.0055
C 14.69561 7.0929 0.02734
C 14.7764 32.67614 0.01153
C 12.34158 0.07211 0.02239
C 13.55123 0.7123 -0.03213
C 13.54364 2.13992 -0.02845
C 12.31926 2.80801 0.03374
C 12.32832 4.16216 0.0296
C 13.47461 4.96452 0.03046
C 13.48874 6.35151 -0.00381
C 12.32318 7.01621 0.01852
C 12.33698 8.40948 0.01126
C 14.73594 2.88564 0.00071
C 7.28943 8.52371 -0.00111
C 8.57255 9.25252 0.04892
C 8.53959 10.72216 0.01452
C 6.14321 31.97931 -0.00368
C 4.92416 32.69877 -0.0108
C 2.51059 34.04639 -0.01957
C 3.71651 0.7144 0.02058
C 3.7141 2.15293 0.01965
C 2.48291 2.88575 -0.03682
C 2.50562 4.30429 0.00052
C 3.7037 4.96098 0.00374
C 3.69413 6.34492 -0.02813
C 2.4277 7.04839 -0.01952
C 2.45225 8.49623 0.05265
C 3.70099 9.27256 -0.01717
C 3.67644 10.66666 0.00244
C 2.41388 11.3723 0.02299
C 6.09993 30.54321 -0.02696
C 2.47705 12.78814 0.03542
C 3.63171 14.92354 0.01945
C 2.42727 15.65168 -0.01454
C 2.48276 17.00683 0.01241
C 3.65313 17.74848 0.0076
C 3.6591 19.0489 0.02162
C 2.47355 19.88568 -0.0014
C 2.40562 21.2854 0.00415
C 2.38098 24.10237 -0.02162
C 2.57692 25.49519 0.01363
C 3.75767 26.33343 0.01877
C 3.66078 27.74223 -0.00925
C 2.44722 28.36036 0.00444
C 2.43118 29.82882 -0.01789
C 3.66851 30.55569 0.02894
C 3.69972 13.52967 0.01416
C 4.91984 29.77833 -0.00114
C 4.8909 28.39306 0.00228
C 6.05518 27.74402 0.00798
C 7.33202 11.38874 -0.01581
C 7.40779 12.78891 0.02691
C 8.59458 13.62669 -0.01979
C 8.60534 14.7824 0.02188
C 7.41635 15.6374 -0.00316
C 7.39048 17.13825 -0.0331
C 8.59462 17.73899 -0.0258
C 8.58189 27.81887 0.03338
C 7.35567 28.35289 -0.00491
C 7.34845 29.80946 -0.00109
C 8.55565 30.50492 0.03698
C 8.59592 31.98175 -0.02213
C 7.39403 32.62128 0.00028
C 4.96247 0.01869 -0.00289
C 6.1344 0.71164 -0.00066
C 6.24702 2.10964 0.00213
C 4.96413 2.80444 -0.05302
C 6.04667 17.74188 0.00422
C 4.87889 17.13017 0.0351
C 4.92328 15.62534 -0.03113
C 6.18091 14.8931 0.02098
C 6.15558 13.52307 0.01848
C 4.96593 12.77888 -0.00619
C 19.63856 34.03368 0.02555
C 4.98005 11.35145 -0.02162
C 6.06004 9.19755 -0.00481
C 4.88122 8.60403 0.00979
C 4.84601 7.14321 0.01443
C 6.11891 6.43638 0.03505
C 6.18658 5.00966 -0.02815
C 4.92846 4.17926 -0.04147
C 6.18316 10.65445 0.00889
C 3.70735 31.99914 -0.02971
C 22.16225 32.71143 0.01423
C 23.37762 30.53058 -0.009
C 31.92112 2.76131 0.00349
C 31.96873 4.24671 -0.03838
C 33.23195 4.96031 0.04926
C 33.19666 6.3519 -0.00069
C 31.91598 7.1793 0.01504
C 31.99938 8.6067 0.02806
C 33.14789 9.24672 0.04381
C 33.24239 10.64923 0.00199
C 32.07496 11.34278 0.00137
C 31.94587 12.78465 -0.01839
C 33.16964 13.36296 -0.00644
C 33.16231 14.84578 0.00455
C 31.93152 15.6146 0.00369
C 31.90395 16.96249 -0.02474
C 33.21049 2.11624 -0.00323
C 33.17481 17.78587 0.00594
C 31.93846 19.91424 -0.01429
C 32.00653 21.24279 -0.02383
C 33.17575 22.04997 0.01574
C 33.17762 23.46604 0.01927
C 31.99151 24.14216 0.03794
C 31.95792 25.5543 -0.01779
C 33.20961 26.30112 0.00682
C 33.24809 27.73778 0.00026
C 31.96902 28.41589 0.0544
C 31.95533 29.86062 -0.02142
C 33.25166 30.52494 0.01428
C 33.18128 31.9968 -0.01694
C 31.95148 32.6996 0.01713
C 29.54827 0.04591 0.00346
C 33.12098 19.24972 -0.0136
C 30.72347 0.75727 0.00307
C 33.22871 0.7265 -0.00841
C 34.36963 32.68532 -0.02927
C 1.25944 0.75699 -0.00468
C 1.27493 2.13041 -0.00939
C 0.02407 2.80192 -0.00931
C 34.40713 4.29074 -0.0345
C 1.18786 5.00952 0.00628
C 1.20916 6.39999 0.02931
C 34.34676 7.10725 -0.02849
C 34.36224 8.55535 -0.02302
C 1.2217 9.20278 -0.00583
C 1.25107 10.6312 -0.00027
C 34.39159 11.40992 -0.02442
C 34.41113 12.81775 -0.02656
C 1.28344 13.52676 0.00343
C 1.24045 14.88409 -0.02957
C 31.95975 0.0204 0.0001
C 34.3697 15.58755 0.02114
C 1.24687 17.75433 0.01223
C 1.166 19.20401 -0.01678
C 34.33093 19.89744 0.01951
C 34.35523 21.29941 -0.02213
C 1.19146 21.94982 0.02712
C 1.21576 23.48236 0.00723
C 34.3678 24.18113 0.03076
C 34.42987 25.60553 -0.05239
C 1.24498 26.22788 -0.00598
C 1.22677 27.6827 -0.00439
C 0.01164 28.42179 -0.01037
C 0.06298 29.84332 0.01831
C 1.2466 30.60257 0.01027
C 1.19378 31.94905 -0.01404
C 34.39058 17.05387 0.00648
C 30.70136 2.14884 0.00716
C 29.425 2.89724 0.02108
C 29.56362 4.32758 0.0103
C 28.29997 26.21059 0.02611
C 28.34167 27.64373 -0.00621
C 27.04524 28.42236 0.00194
C 27.06506 29.83214 0.04185
C 28.31203 30.55639 0.02316
C 28.25001 31.91994 0.01257
C 27.05058 32.61957 0.00152
C 24.58101 0.03211 -0.00294
C 25.89553 0.70256 0.00826
C 25.82066 2.05752 0.00487
C 24.66283 2.75286 -0.00942
C 25.85852 17.83449 -0.02815
C 25.80126 19.17482 0.00622
C 24.6523 21.23178 -0.0032
C 26.99919 25.57999 0.02198
C 25.85383 21.93777 -0.00037
C 24.51859 24.11051 -0.00218
C 24.53701 25.60642 -0.00802
C 25.75776 26.25526 0.00195
C 25.77121 27.72916 0.00996
C 24.61094 28.41673 0.04306
C 24.56659 29.74414 0.00367
C 25.86253 30.51547 -0.01679
C 25.82561 31.97191 -0.01052
C 24.66129 32.65847 0.00684
C 22.12666 33.99338 -0.01154
C 23.38865 0.72569 -0.0264
C 23.41105 2.17552 -0.00938
C 22.08838 2.80839 -0.00229
C 23.42084 23.34679 -0.01199
C 25.83995 23.43167 -0.01654
C 27.01875 24.16061 0.01094
C 28.30258 23.49457 0.00235
C 28.27762 22.03439 0.01495
C 30.79118 5.06928 0.07705
C 30.69798 6.42615 0.01908
C 30.78031 13.51443 0.01518
C 30.67215 14.86267 -0.00971
C 29.6294 15.69705 -0.03735
C 29.51036 17.0459 -0.00944
C 30.72179 17.7265 -0.02155
C 30.73171 19.20008 -0.01461
C 29.52102 19.92662 -0.01303
C 29.51402 21.3534 -0.0405
C 30.75028 21.93438 0.01705
C 30.72224 23.37955 0.0101
C 29.51258 24.13461 -0.00669
C 29.57156 25.53684 0.03531
C 30.68912 26.24696 0.01836
C 30.68197 27.69496 -0.03039
C 29.51444 28.37878 -0.01415
C 27.06051 21.26581 0.01259
C 27.00873 19.82275 0.01799
C 28.30531 19.22193 0.01699
C 28.29509 17.85174 -0.00416
C 28.19635 4.88451 0.01177
C 27.18006 4.25685 0.04266
C 23.25857 31.88009 -0.00285
C 26.95314 2.8536 0.01324
C 28.30655 0.72789 0.00924
C 27.1018 34.01552 0.02326
C 29.5156 32.65642 0.00261
C 30.69189 31.98372 0.03265
C 30.74695 30.58195 -0.02049
C 29.49241 29.87791 -0.01854
C 28.23198 2.16928 0.0014
C 2.41979 32.65224 0.00165
