344
Graphene
C 0.01451 0.00778 0.01295
C 16.02283 31.94398 0.02098
C 15.95524 30.59097 0.01848
C 14.73994 29.85795 -0.00619
C 14.80663 28.42114 -0.02162
C 16.02449 27.74825 0.00889
C 15.9508 26.32721 -0.00481
C 14.69753 25.57142 0.00979
C 14.69213 24.05644 0.01443
C 15.95764 23.35584 0.03505
C 16.02839 21.94036 -0.02815
C 14.82319 21.35396 -0.04147
C 15.94526 4.80366 -0.05302
C 14.92864 4.25175 0.00213
C 14.7382 2.8472 -0.00066
C 15.96243 2.16273 -0.00289
C 15.95107 0.66724 0.00028
C 14.73902 33.99061 -0.02213
C 14.73772 32.60695 -0.03113
C 12.31663 34.017 0.0351
C 13.52011 0.66484 0.00422
C 13.50234 2.13403 0.00798
C 9.88659 2.84709 0.03542
C 10.9923 2.14779 0.02299
C 11.00293 0.77989 0.00244
C 9.81438 0.03306 -0.01717
C 12.29846 32.63167 0.05265
C 13.53063 31.92718 -0.01952
C 13.54279 30.53743 -0.02813
C 12.30216 29.84479 0.00374
C 17.21443 32.62906 0.03698
C 12.33006 28.45918 0.00052
C 13.51241 26.36664 0.01965
C 12.26892 25.65695 0.02058
C 12.29763 24.18674 -0.01957
C 13.5215 23.37945 -0.0108
C 13.58456 21.89629 -0.00368
C 12.35721 21.37331 -0.02696
C 12.48123 4.20025 -0.00114
C 12.27914 2.85166 0.00228
C 13.52252 27.76241 -0.03682
C 9.78695 4.22062 0.01416
C 18.38272 31.95026 -0.00109
C 17.2339 29.83874 0.03338
C 20.93023 27.66349 0.00654
C 20.93109 26.32881 -0.00703
C 19.64192 25.65909 -0.04076
C 19.61933 24.23591 -0.00652
C 20.85692 23.43127 0.0058
C 20.9236 21.94828 -0.00865
C 19.66686 21.25535 0.00675
C 19.69522 19.86311 -0.00311
C 20.93678 19.1107 0.00742
C 20.79622 17.74337 -0.01594
C 19.74142 17.11581 0.0106
C 19.62651 6.97504 -0.01154
C 20.96905 6.51158 -0.01721
C 20.91393 4.92725 -0.02422
C 19.69429 4.25461 0.01277
C 19.70709 2.81781 0.00096
C 20.91965 2.05162 -0.01527
C 19.61932 28.3851 -0.04422
C 19.65673 29.78967 -0.02957
C 20.91315 30.46282 -0.00831
C 20.87227 31.86355 0.00364
C 17.19355 28.45987 -0.0258
C 18.38097 27.71543 -0.0331
C 18.39102 26.2678 -0.00316
C 17.11928 25.61656 0.02188
C 17.13413 24.17358 -0.01979
C 18.43184 23.46405 0.02691
C 18.48568 21.99067 -0.01581
C 17.2501 21.27207 0.01452
C 18.43116 30.53421 -0.00491
C 17.34388 19.91064 0.04892
C 18.64322 6.42827 -0.03557
C 18.40524 4.98635 0.03754
C 17.22762 4.24124 0.01739
C 17.19611 2.80528 0.00755
C 18.41284 2.11946 -0.0054
C 18.50864 0.71105 0.00667
C 17.22717 0.00663 0.00143
C 19.61051 32.63716 -0.017
C 18.32059 19.30161 -0.00111
C 20.89802 0.69748 0.01087
C 9.76272 21.31424 0.01945
C 11.0974 23.43997 0.01241
C 2.48667 7.07898 0.00895
C 3.68309 6.33131 0.00685
C 3.64321 4.91798 0.02888
C 2.42631 4.1714 -0.00482
C 2.47695 2.79891 -0.01384
C 3.65768 2.09388 0.03693
C 3.73548 0.71608 0.01745
C 2.54689 34.04658 0.00488
C 4.92247 32.74353 -0.01004
C 6.12042 31.94537 -0.02896
C 6.11975 30.55622 -0.00131
C 4.90701 29.8856 -0.01118
C 4.95916 28.44206 -0.014
C 6.16611 27.67895 0.02147
C 6.09399 26.2736 0.00373
C 4.85934 25.57226 -0.00191
C 4.86818 24.16698 0.00438
C 2.42712 8.51659 0.00393
C 3.74037 9.34107 0.0288
C 3.65379 10.64433 -0.0008
C 2.49114 11.37379 -0.01362
C 3.70292 30.53207 0.00873
C 2.4622 29.88386 -0.00049
C 2.38457 28.44818 0.00848
C 3.65613 27.76083 -0.01303
C 3.65984 26.26351 -0.01378
C 2.41358 25.56638 0.02635
C 2.41279 24.13175 0.0127
C 3.71012 23.40161 0.01396
C 6.18305 23.43567 0.01291
C 3.63505 21.95174 0.01849
C 2.56563 19.84832 -0.00562
C 3.73906 19.1808 -0.00494
C 3.68486 17.69244 0.00054
C 2.42605 17.08703 0.03007
C 2.47776 15.64503 -0.00095
C 3.71637 14.80406 0.01572
C 3.62526 13.65172 -0.04848
C 2.52292 12.78106 -0.00892
C 2.4083 21.25662 -0.01142
C 11.1167 21.90414 -0.01454
C 6.03513 21.98516 0.00093
C 4.91161 19.88716 -0.01634
C 7.31239 21.34204 -0.02689
C 7.19362 19.84874 -0.01046
C 8.77146 4.94627 -0.00891
C 7.40067 4.24935 0.02819
C 7.43743 2.83284 0.00165
C 8.64822 2.16381 -0.02971
C 8.60704 0.78046 0.02894
C 7.35512 0.03533 -0.01789
C 9.78771 32.62452 0.00444
C 11.04707 31.92276 -0.00925
C 11.10533 30.52827 0.01877
C 9.86388 29.81645 0.01363
C 9.86173 28.4703 -0.02162
C 11.10329 27.75608 0.00415
C 11.02999 26.30968 -0.0014
C 9.8589 25.55031 0.02162
C 9.87006 24.12922 0.0076
C 8.59878 22.01775 -0.01536
C 8.56792 23.38305 0.03101
C 7.39172 24.12706 -0.00428
C 7.33379 25.60643 -0.02245
C 6.14323 19.16125 -0.00334
C 4.90498 17.0653 0.02339
C 4.85951 8.53635 0.01641
C 4.96135 7.19365 -0.00719
C 6.18184 6.32674 0.01364
C 6.14945 4.96584 -0.01062
C 4.91766 4.2822 -0.00033
C 4.95171 2.86998 0.03589
C 4.85158 21.31251 0.00057
C 6.16611 2.18442 -0.02759
C 4.95538 0.06728 0.00572
C 7.34481 32.68711 0.03592
C 8.54386 31.97604 0.00406
C 8.66438 30.55022 0.00943
C 7.38857 29.88206 0.02841
C 7.36817 28.48117 -0.01111
C 8.6127 27.76095 -0.01275
C 8.55756 26.38609 0.00985
C 6.12896 0.77082 0.0402
C 19.68507 34.07872 0.00199
C 22.09248 32.69362 0.01511
C 23.30612 31.95582 -0.00478
C 31.94436 29.79423 -0.02142
C 31.9479 28.38666 0.0544
C 33.21137 27.75359 0.00026
C 33.18174 26.35275 0.00682
C 32.00117 25.57082 -0.01779
C 31.90819 24.11301 0.03794
C 33.14175 23.4792 0.01927
C 33.21513 22.00759 0.01574
C 31.95411 21.30344 -0.02383
C 31.87775 19.92095 -0.01429
C 33.12784 19.22562 -0.0136
C 33.27206 17.80747 0.00594
C 32.031 17.01436 -0.02474
C 31.96615 15.64665 0.00369
C 33.16884 14.89164 0.00455
C 33.21591 13.45864 -0.00644
C 31.99377 12.79053 -0.01839
C 33.10635 30.53367 0.01428
C 33.1048 31.92717 -0.01694
C 31.96389 32.6336 0.01713
C 29.52024 0.03638 0.00346
C 30.67488 19.19019 0.03531
C 30.73964 17.7696 -0.00669
C 29.54527 17.02163 0.0101
C 29.53815 15.63226 0.01705
C 30.73112 14.93232 -0.0405
C 30.77662 13.54921 -0.01303
C 29.55795 12.81952 -0.01461
C 29.49354 11.36344 -0.02155
C 31.96017 11.40295 0.00137
C 30.71559 10.65862 -0.00944
C 29.48111 8.56118 -0.00971
C 29.58661 7.10177 0.01518
C 30.75824 6.32704 0.01908
C 30.79915 4.94153 0.07705
C 29.54397 4.30377 0.0103
C 29.49958 2.83708 0.02108
C 30.74689 2.16629 0.00716
C 30.75712 0.72447 0.00307
C 30.7312 9.17022 -0.03735
C 29.44864 19.90139 0.01836
C 33.17961 10.68251 0.00199
C 31.94904 8.49266 0.02806
C 1.24766 17.74077 0.01223
C 0.0099 17.08501 0.00648
C 34.41572 15.64267 0.02114
C 1.22422 14.88286 -0.02957
C 1.20585 13.4586 0.00343
C 0.03512 12.73533 -0.02656
C 34.41132 11.30713 -0.02442
C 1.17987 10.63935 -0.00027
C 1.18809 9.24395 -0.00583
C 34.39694 8.54662 -0.02302
C 0.00631 7.12225 -0.02849
C 1.25742 6.34967 0.02931
C 1.2504 4.93839 0.00628
C 34.43008 4.29498 -0.0345
C 0.05712 2.80693 -0.00931
C 1.23173 2.0335 -0.00939
C 1.24683 0.67306 -0.00468
C 1.26251 19.11731 -0.01678
C 34.42907 19.84892 0.01951
C 0.02267 21.27322 -0.02213
C 1.23259 21.98463 0.02712
C 31.98444 7.07036 0.01504
C 33.21005 6.47158 -0.00069
C 33.23998 5.02501 0.04926
C 32.02206 4.32922 -0.03838
C 31.95639 2.85909 0.00349
C 33.21314 2.15925 -0.00323
C 33.23124 0.73429 -0.00841
C 31.98809 0.00025 0.0001
C 33.21352 9.23205 0.04381
C 34.36382 32.64533 -0.02927
C 1.21738 30.59602 0.01027
C 0.00882 29.8955 0.01831
C 0.02693 28.44154 -0.01037
C 1.1657 27.65678 -0.00439
C 1.16404 26.20493 -0.00598
C 34.38322 25.55402 -0.05239
C 0.0108 24.16964 0.03076
C 1.1813 23.39754 0.00723
C 1.17103 31.95928 -0.01404
C 29.45506 21.25916 -0.03039
C 30.74253 21.95928 -0.01415
C 30.71394 23.34486 -0.01854
C 25.82469 30.60441 -0.00178
C 24.62236 29.87175 0.00768
C 24.5933 28.39631 -0.0276
C 25.82131 27.67382 0.03005
C 25.76897 26.27817 -0.04078
C 24.53718 25.54344 0.02117
C 24.59955 24.13514 0.02737
C 25.85221 23.3929 -0.00498
C 25.82489 21.98996 0.00135
C 24.5444 21.37188 0.03102
C 24.60837 19.9557 0.02555
C 25.7883 19.23922 0.01423
C 25.73902 17.80121 -0.00285
C 24.47568 17.0596 -0.009
C 25.8475 14.97038 -0.01199
C 25.87545 5.01841 -0.00229
C 24.57028 4.33768 -0.00938
C 25.79235 31.93017 0.00733
C 24.54828 32.63512 -0.02118
C 22.11547 0.00793 -0.01971
C 23.30353 0.77661 -0.01586
C 23.35174 30.49305 -0.01662
C 22.14296 29.76156 -0.01185
C 22.09634 28.40085 0.01126
C 23.38441 27.71424 0.01852
C 23.3125 26.29025 -0.00381
C 22.0553 25.50804 0.03046
C 22.08561 24.09237 0.0296
C 23.40309 23.46133 0.03374
C 24.58899 2.80941 -0.0264
C 23.33531 22.05642 -0.02845
C 22.1845 19.77451 0.02239
C 23.35254 19.12504 0.01153
C 23.48924 17.74655 0.02734
C 22.1706 7.05517 -0.0055
C 23.32393 4.88573 0.01515
C 22.13425 4.23792 -0.00225
C 22.09659 2.7882 0.00071
C 23.33986 2.18764 -0.01107
C 22.16753 21.27304 -0.03213
C 25.73573 2.11248 -0.01154
C 25.72328 0.67745 0.00684
C 24.48921 0.01534 -0.01052
C 28.25138 9.13077 0.02611
C 27.05264 7.08414 0.02198
C 28.28932 6.41139 0.01094
C 28.28155 4.95095 0.00235
C 26.94803 4.28639 0.01495
C 26.99747 2.77861 0.01259
C 28.27943 2.12766 0.01799
C 28.29872 0.68974 0.01699
C 28.25356 10.52105 -0.00621
C 27.04778 34.02836 -0.00416
C 30.70477 31.91983 0.04266
C 30.75071 30.47936 0.01324
C 29.55293 29.74459 0.0014
C 29.509 28.35225 0.00924
C 30.71944 27.68443 0.02326
C 30.82023 26.21501 0.00261
C 29.60407 25.46671 0.03265
C 29.53248 24.0988 -0.02049
C 29.54539 32.66439 0.01177
C 3.70354 31.97808 0.01227
C 27.09934 11.49726 0.00194
C 28.3306 13.57359 0.02316
C 26.96852 32.63443 -0.01679
C 28.30594 31.9439 0.00367
C 28.35793 30.50633 0.04306
C 27.14792 29.87419 0.00996
C 27.0846 28.45471 0.00195
C 28.27431 27.6777 -0.00802
C 28.34079 26.16418 -0.00218
C 27.02738 25.59006 -0.01654
C 27.14701 12.6623 0.04185
C 27.07439 24.22154 -0.00037
C 28.27684 22.00661 0.00622
C 27.04231 21.34119 -0.02815
C 27.02258 19.91856 -0.00942
C 28.25999 19.18747 0.00487
C 28.3126 17.76618 0.00826
C 27.02853 17.12164 -0.00294
C 27.01665 15.59433 0.00152
C 28.32051 14.94369 0.01257
C 28.26079 23.40355 -0.0032
C 2.49376 32.65396 -0.03337
