362
Graphene
C 0.03262 0.06591 0.01295
C 11.13277 9.13351 0.01965
C 9.83405 8.58827 0.02058
C 9.81967 7.13026 -0.01957
C 11.06758 6.41754 -0.0108
C 11.09551 4.9988 -0.00368
C 9.87061 4.29007 -0.02696
C 9.79104 2.83629 -0.00114
C 11.01195 2.06816 0.00228
C 10.92666 10.48986 -0.03682
C 11.07275 0.69213 0.00798
C 12.41103 32.694 0.0351
C 13.58514 31.91745 -0.03113
C 13.69605 21.85475 0.02098
C 12.43388 21.35192 0.01848
C 12.18275 20.02449 -0.00619
C 12.32562 16.91364 -0.02162
C 12.22976 12.63731 0.00889
C 12.24019 11.28454 -0.00481
C 9.89503 34.03175 0.00422
C 9.7494 11.29321 0.00052
C 9.74391 12.74165 0.00374
C 11.12504 13.44804 -0.02813
C 8.55278 2.18263 0.00444
C 8.55925 0.79333 -0.00925
C 7.36087 0.05262 0.01877
C 9.87629 32.662 0.01363
C 11.15812 31.98345 -0.02162
C 11.09196 30.61178 0.00415
C 9.91071 29.78142 -0.0014
C 9.80367 28.36438 0.02162
C 9.81025 25.66665 0.0076
C 9.92978 24.29045 0.01241
C 10.9732 23.42569 -0.01454
C 11.02326 22.12512 0.01945
C 9.86095 21.23587 0.01416
C 9.89847 19.88366 0.03542
C 11.17121 19.18343 0.02299
C 11.20027 17.71165 0.00244
C 9.80481 17.01977 -0.01717
C 9.86467 15.59926 0.05265
C 11.08517 14.8837 -0.01952
C 13.36874 10.57705 0.00979
C 7.34954 2.83885 -0.01789
C 13.59718 9.24444 0.01443
C 12.28048 7.14394 -0.02815
C 17.18724 7.20744 0.01739
C 18.41344 6.45887 0.00755
C 18.36618 5.01612 -0.0054
C 17.18022 4.19788 0.00667
C 17.17831 2.80591 0.00143
C 18.45935 2.15674 -0.017
C 18.40106 0.67692 0.00364
C 17.16109 0.04172 -0.00831
C 17.09931 8.58732 0.03754
C 19.64489 32.61088 -0.02957
C 20.86127 30.52679 0.00654
C 19.72504 29.79929 -0.00703
C 20.94784 27.54965 -0.04076
C 20.96778 26.37395 -0.00652
C 21.04515 23.31083 0.0058
C 19.55855 8.48381 -0.00865
C 19.64663 7.15389 0.00675
C 20.9593 6.35136 -0.00311
C 20.94891 31.97001 -0.04422
C 18.47893 32.00771 -0.03557
C 17.15554 32.58284 -0.00111
C 14.74874 0.03793 0.04892
C 13.46721 6.44754 -0.04147
C 13.47983 5.03113 -0.05302
C 12.32086 4.27309 0.00213
C 12.30899 2.8159 -0.00066
C 13.55854 2.13925 -0.00289
C 13.51532 0.74275 0.00028
C 12.33584 0.04763 -0.02213
C 14.80635 32.56733 0.03698
C 15.99592 31.99567 -0.00109
C 14.705 21.23874 -0.00491
C 16.07515 9.10869 0.03338
C 14.78699 8.54493 -0.0258
C 14.76786 7.16285 -0.0331
C 16.0045 6.38445 -0.00316
C 15.93792 4.9736 0.02188
C 14.66312 4.32986 -0.01979
C 14.72522 2.84881 0.02691
C 15.92825 2.13133 -0.01581
C 15.94905 0.73035 0.01452
C 12.40779 8.52727 0.03505
C 7.35166 4.25524 0.02894
C 8.60606 4.89199 -0.02971
C 8.56279 6.35028 0.00165
C 3.66622 6.44324 0.02635
C 3.62479 4.97295 0.0127
C 2.42859 4.29583 0.01396
C 2.53069 2.87352 0.01849
C 3.71444 2.15299 -0.01142
C 3.70051 0.72759 -0.00562
C 2.46953 0.02247 -0.00494
C 4.9168 32.68391 0.00054
C 2.48056 7.16463 -0.01378
C 6.16239 31.94981 0.03007
C 4.86805 29.85301 0.01572
C 4.92445 28.46853 -0.04848
C 6.09615 27.75371 -0.00892
C 6.14931 26.30274 -0.01362
C 4.91235 25.56224 -0.0008
C 4.8919 24.14315 0.0288
C 6.12166 23.42582 0.00393
C 6.17373 22.0426 0.00895
C 6.09484 30.5279 -0.00095
C 2.39432 8.62736 -0.01303
C 3.7022 9.29789 0.00848
C 3.70154 10.69207 -0.00049
C 3.61983 30.55624 0.017
C 2.37677 29.82314 -0.03113
C 2.50056 28.34917 -0.02566
C 3.72506 27.67551 -0.00094
C 3.72073 26.30847 0.02322
C 2.49277 25.53709 -0.00725
C 2.4668 24.12033 -0.05697
C 3.65927 23.44472 0.01087
C 3.6572 22.07623 -0.01343
C 2.45188 21.34489 0.00988
C 2.50538 19.89167 0.0276
C 3.69717 19.15396 0.01305
C 3.71239 17.7264 -0.00077
C 2.46554 16.99805 0.03368
C 2.42058 15.64185 -0.02929
C 3.64685 14.90681 -0.00966
C 3.62842 13.53258 -0.03337
C 2.44002 12.81821 0.01227
C 2.42138 11.38005 0.00873
C 4.94766 21.33932 0.00685
C 4.93096 19.86076 0.02888
C 6.18688 19.16131 -0.00482
C 6.21893 17.78671 -0.01384
C 8.61328 26.25761 0.03589
C 7.35322 25.55687 -0.02759
C 7.36628 24.1173 0.0402
C 8.59875 23.43655 0.00572
C 8.67078 21.96449 0.03592
C 7.40241 21.31053 0.00406
C 7.40444 19.9419 0.00943
C 8.6362 19.22595 0.02841
C 8.63704 17.80429 -0.01111
C 7.41181 17.01151 -0.01275
C 7.45636 15.64776 0.00985
C 8.63991 14.89836 -0.02245
C 8.55293 13.39402 -0.00428
C 7.28326 12.74117 0.03101
C 7.3393 11.38221 -0.01536
C 8.50276 10.62236 -0.02689
C 8.56121 9.19626 -0.01046
C 7.33506 8.56769 -0.00891
C 7.3325 7.16634 0.02819
C 8.66837 27.68449 -0.00033
C 20.87383 4.96643 0.00742
C 7.33987 28.39386 -0.01062
C 8.58857 30.5886 -0.00719
C 4.92278 17.03348 0.03693
C 4.92312 15.62324 0.01745
C 6.21061 14.95415 0.00488
C 6.13852 13.5375 -0.01004
C 4.85748 12.83241 -0.02896
C 4.92091 11.38376 -0.00131
C 6.11305 10.72349 -0.01118
C 6.19161 9.29601 -0.014
C 4.94251 8.62383 0.02147
C 4.87445 7.19711 0.00373
C 6.10204 6.45853 -0.00191
C 6.08372 5.04221 0.00438
C 4.89593 4.29086 0.01291
C 4.92121 2.88674 0.00093
C 6.16624 2.13964 0.00057
C 6.14876 0.71407 -0.01634
C 4.91337 0.01311 -0.00334
C 7.35783 32.68543 0.02339
C 8.63267 31.99614 0.01641
C 7.37252 29.83224 0.01364
C 19.60159 4.31975 -0.01594
C 19.6883 2.85862 0.0106
C 20.95174 2.05945 -0.01154
C 29.42713 0.05706 0.00346
C 31.97554 32.71697 0.01713
C 33.20989 32.00376 -0.01694
C 33.16313 30.54368 0.01428
C 31.93859 29.8481 -0.02142
C 31.93516 28.42484 0.0544
C 33.20776 27.72501 0.00026
C 33.14023 26.34804 0.00682
C 30.64494 0.73179 0.00307
C 31.90746 25.62597 -0.01779
C 33.20553 23.46352 0.01927
C 33.19051 22.01898 0.01574
C 31.94652 21.31109 -0.02383
C 31.98071 19.90785 -0.01429
C 33.19865 19.13074 -0.0136
C 33.24767 17.71329 0.00594
C 31.98204 17.03946 -0.02474
C 31.99188 15.67694 0.00369
C 31.99487 24.16355 0.03794
C 30.69575 2.13429 0.00716
C 29.48394 2.7922 0.02108
C 29.51947 4.24348 0.0103
C 29.43452 24.21298 -0.02049
C 30.7661 23.45044 -0.01854
C 30.78939 21.9982 -0.01415
C 29.53018 21.26054 -0.03039
C 29.50357 19.89536 0.01836
C 30.75957 19.20527 0.03531
C 30.71779 17.77838 -0.00669
C 29.48775 17.02792 0.0101
C 29.53437 15.62956 0.01705
C 30.74507 14.95994 -0.0405
C 30.74338 13.56203 -0.01303
C 29.53979 12.70385 -0.01461
C 29.54215 11.30107 -0.02155
C 30.75693 10.68627 -0.00944
C 30.73201 9.19253 -0.03735
C 29.53733 8.51244 -0.00971
C 29.53257 7.08525 0.01518
C 30.78185 6.32001 0.01908
C 30.70523 4.90376 0.07705
C 33.18156 14.87663 0.00455
C 33.13084 13.46095 -0.00644
C 31.95238 12.79025 -0.01839
C 31.96393 11.40075 0.00137
C 0.02648 19.79357 0.01951
C 1.26336 19.15469 -0.01678
C 1.26183 17.75705 0.01223
C 0.03965 17.01315 0.00648
C 0.03637 15.53672 0.02114
C 1.26274 14.8838 -0.02957
C 1.2013 13.46708 0.00343
C 34.38792 12.76973 -0.02656
C 34.39937 11.29204 -0.02442
C 1.23908 10.67757 -0.00027
C 1.18716 9.33035 -0.00583
C 34.41462 8.57613 -0.02302
C 34.41296 7.13023 -0.02849
C 1.25958 6.49731 0.02931
C 1.20409 5.01594 0.00628
C 34.3829 4.28784 -0.0345
C 0.01416 2.80789 -0.00931
C 1.29879 2.17092 -0.00939
C 1.26006 0.76368 -0.00468
C 34.41779 21.24414 -0.02213
C 29.43923 25.60699 0.03265
C 1.20687 22.02272 0.02712
C 0.0129 24.2363 0.03076
C 33.13242 10.59187 0.00199
C 33.16444 9.17182 0.04381
C 31.90753 8.53139 0.02806
C 32.00665 7.08147 0.01504
C 33.17534 6.35118 -0.00069
C 33.12455 4.93669 0.04926
C 31.91369 4.21156 -0.03838
C 31.93079 2.75615 0.00349
C 33.19078 2.14008 -0.00323
C 33.20994 0.74458 -0.00841
C 31.9169 0.04525 0.0001
C 0.0495 32.71688 -0.02927
C 1.23325 31.90341 -0.01404
C 1.14671 30.52078 0.01027
C 34.39797 29.81196 0.01831
C 0.02892 28.37039 -0.01037
C 1.29635 27.66562 -0.00439
C 1.2561 26.21402 -0.00598
C 34.37989 25.63012 -0.05239
C 1.21324 23.48855 0.00723
C 3.69298 32.02993 -0.00643
C 30.7058 26.29077 0.00261
C 29.45218 28.41306 0.00924
C 24.6146 32.66415 0.01515
C 25.89221 31.99457 -0.00225
C 25.83863 30.51706 0.00071
C 24.54915 29.80997 -0.01107
C 24.50353 28.38372 -0.01586
C 25.73192 27.72109 -0.01971
C 25.77361 26.32187 -0.02118
C 24.5855 25.49889 0.00733
C 22.12214 34.05473 -0.0055
C 24.50159 24.11364 -0.00178
C 25.81359 22.02398 -0.0276
C 24.54401 21.24167 0.03005
C 24.45163 19.85457 -0.04078
C 25.65165 19.10045 0.02117
C 25.87039 17.818 0.02737
C 25.83436 13.41322 -0.00498
C 24.60965 11.35866 0.00135
C 25.79228 10.6043 0.03102
C 25.82497 23.446 0.00768
C 23.39893 0.72943 0.02734
C 23.36644 2.12278 0.01153
C 22.15605 2.74613 0.02239
C 20.87822 0.6639 -0.01721
C 19.64975 34.05627 -0.02422
C 22.15497 32.64356 0.01277
C 23.43905 31.96391 0.00096
C 23.33255 30.48711 -0.01527
C 22.05776 29.83269 0.01087
C 22.0323 28.40646 0.00199
C 23.32979 27.64385 0.01511
C 23.31949 26.2234 -0.00478
C 22.11148 25.52482 -0.01662
C 22.09768 24.11571 -0.01185
C 23.24278 23.3256 0.01126
C 23.24602 21.91808 0.01852
C 23.26802 9.14742 -0.00381
C 22.24965 8.49773 0.03046
C 22.17033 7.02793 0.0296
C 23.44834 6.33485 0.03374
C 23.40326 4.91855 -0.02845
C 22.14136 4.2723 -0.03213
C 25.83091 9.14281 0.02555
C 24.54199 8.4708 0.01423
C 24.59168 7.08283 -0.00285
C 25.89577 6.40416 -0.009
C 28.31894 14.86527 0.00152
C 28.29496 13.38114 0.01257
C 27.0252 12.78809 0.02316
C 27.06678 11.31997 0.04185
C 28.31601 10.6338 0.00194
C 28.3213 9.20368 -0.00621
C 27.05358 8.47676 0.02611
C 27.10729 7.08603 0.02198
C 28.31061 6.40174 0.01094
C 28.33717 4.99507 0.00235
C 27.14411 4.32056 0.01495
C 27.0689 2.85165 0.01259
C 28.2895 2.11418 0.01799
C 28.25636 0.72235 0.01699
C 27.08551 0.03296 -0.00416
C 29.51369 32.7319 0.01177
C 30.65602 32.00714 0.04266
C 30.73113 30.54841 0.01324
C 29.48722 29.83653 0.0014
C 27.11055 15.51869 -0.00294
C 30.70142 27.71875 0.02326
C 26.96626 17.03897 0.00826
C 28.23904 19.15831 -0.00942
C 25.86957 5.0173 -0.01199
C 24.71643 4.23034 -0.00229
C 24.58045 2.82728 -0.00938
C 25.84515 2.10934 -0.0264
C 25.81539 0.68112 -0.01154
C 24.60533 0.01618 0.00684
C 27.16007 32.7581 -0.01052
C 28.29789 31.96822 -0.01679
C 28.28722 30.52302 0.00367
C 27.0149 29.82254 0.04306
C 26.95395 28.44663 0.00996
C 28.15132 27.71808 0.00195
C 28.18242 26.27766 -0.00802
C 26.97887 25.54949 -0.00218
C 27.009 24.13167 -0.01654
C 28.20447 23.38565 -0.00037
C 28.26421 21.93222 -0.0032
C 27.03174 21.29063 0.00622
C 26.98974 19.87495 -0.02815
C 28.26868 17.75228 0.00487
C 2.40129 32.66036 0.0086
