337
Graphene
C 34.38103 0.05342 0.01295
C 9.81656 19.97503 -0.00481
C 11.02224 19.10261 0.00979
C 11.01744 17.71642 0.01443
C 9.74868 16.92689 0.03505
C 9.72059 15.50548 -0.02815
C 11.02791 14.93244 -0.04147
C 11.15953 13.54213 -0.05302
C 9.94126 12.72083 0.00213
C 9.93045 11.34402 -0.00066
C 11.17515 10.55885 -0.00289
C 11.08531 9.08952 0.00028
C 9.88312 8.43604 -0.02213
C 9.93652 7.08468 0.03698
C 11.1027 6.28655 -0.00109
C 10.96529 4.90472 -0.00491
C 9.71046 4.2643 0.03338
C 9.83237 2.87084 -0.0258
C 9.81526 21.38757 0.00889
C 11.08047 2.19243 -0.0331
C 11.01983 22.10386 -0.02162
C 9.74172 24.09851 0.01848
C 7.40492 8.58156 -0.02813
C 7.35548 7.17555 0.00374
C 8.60292 6.44885 0.00052
C 8.51616 5.04356 -0.03682
C 7.32472 4.32187 0.01965
C 7.32305 2.82861 0.02058
C 8.58086 2.20083 -0.01957
C 8.64059 0.82226 -0.0108
C 7.36426 0.12744 -0.00368
C 9.85032 32.65611 -0.02696
C 11.10534 32.03024 -0.00114
C 11.10338 30.55274 0.00228
C 9.7779 29.79517 0.00798
C 9.72723 28.47965 0.00422
C 10.99371 27.7094 0.0351
C 10.89431 26.28087 -0.03113
C 9.68297 25.56702 0.02098
C 11.03218 23.52882 -0.00619
C 8.70178 9.19067 -0.01952
C 11.00125 0.81378 -0.00316
C 12.34602 32.8594 -0.01979
C 13.51617 9.06009 0.0058
C 12.45028 8.2364 -0.00865
C 12.53229 6.79331 0.00675
C 13.22127 5.2797 -0.00311
C 12.26822 4.26943 0.00742
C 12.35494 2.9139 -0.01594
C 13.57777 2.20173 0.0106
C 13.49653 0.76601 -0.01154
C 12.2471 0.1361 -0.01721
C 14.71361 32.69651 -0.02422
C 16.02408 31.93571 0.01277
C 16.01327 30.55896 0.00096
C 14.75999 29.87268 -0.01527
C 14.78278 28.3793 0.01087
C 16.00367 27.66778 0.00199
C 15.99331 26.28363 0.01511
C 14.77502 25.56749 -0.00478
C 13.73182 10.45692 -0.00652
C 9.84515 0.08522 0.02188
C 12.40776 11.29651 -0.04076
C 13.57373 13.43599 0.00654
C 13.4676 32.08166 0.02691
C 13.53341 30.57683 -0.01581
C 12.34741 29.77757 0.01452
C 12.26663 28.37109 0.04892
C 13.57373 27.69765 -0.00111
C 13.52679 26.28798 -0.03557
C 12.2567 25.67402 0.03754
C 12.22155 24.27554 0.01739
C 13.47211 23.50759 0.00755
C 13.54248 22.05376 -0.0054
C 12.19737 21.35142 0.00667
C 12.27172 19.84192 0.00143
C 13.46899 19.13355 -0.017
C 13.37712 17.77575 0.00364
C 12.18885 17.03928 -0.00831
C 12.25131 15.63454 -0.02957
C 13.4609 14.82306 -0.04422
C 12.3663 12.69834 -0.00703
C 8.66052 10.62454 0.05265
C 7.37089 11.34663 -0.01717
C 7.38291 12.74102 0.00244
C 2.3787 8.52262 0.01745
C 2.41332 7.15105 0.00488
C 3.6816 6.47724 -0.01004
C 3.73764 5.05608 -0.02896
C 2.44246 4.39701 -0.00131
C 2.41183 2.88649 -0.01118
C 3.66519 2.23325 -0.014
C 3.63507 0.84049 0.02147
C 2.39085 0.10674 0.00373
C 4.85546 32.75685 -0.00191
C 6.15786 31.97025 0.00438
C 6.14323 30.55796 0.01291
C 4.92529 29.87589 0.00093
C 4.85309 28.41118 0.00057
C 6.07314 27.72948 -0.01634
C 6.09032 26.32568 -0.00334
C 4.86576 25.60082 0.02339
C 3.62943 9.24403 0.03693
C 4.81495 24.10645 0.01641
C 3.61257 10.60911 -0.01384
C 2.40325 12.75747 0.02888
C 3.64454 30.576 0.01396
C 2.43578 29.86705 0.01849
C 2.43976 28.44636 -0.01142
C 3.62338 27.71719 -0.00562
C 3.67722 26.23554 -0.00494
C 2.45351 25.62316 0.00054
C 2.41362 24.17523 0.03007
C 3.63615 23.38414 -0.00095
C 3.61762 21.98688 0.01572
C 2.32336 21.29859 -0.04848
C 2.37111 19.8286 -0.00892
C 3.58839 19.20024 -0.01362
C 3.66721 17.80801 -0.0008
C 2.4486 17.06765 0.0288
C 2.50858 15.66343 0.00393
C 3.68421 14.87559 0.00895
C 3.67243 13.44691 0.00685
C 2.38502 11.37257 -0.00482
C 6.06609 23.41101 -0.00719
C 6.05077 21.99147 0.01364
C 4.86883 21.35682 -0.01062
C 8.61218 30.60831 0.02894
C 7.3467 29.93342 -0.01789
C 7.37604 28.40432 0.00444
C 8.54488 27.66705 -0.00925
C 8.51139 26.2471 0.01877
C 7.3108 25.58203 0.01363
C 7.32435 24.1244 -0.02162
C 8.50786 23.41865 0.00415
C 8.59344 22.01905 -0.0014
C 7.37141 21.27347 0.02162
C 7.34835 19.83806 0.0076
C 8.63314 19.22802 0.01241
C 8.65641 17.73296 -0.01454
C 7.33214 17.04826 0.01945
C 7.3617 15.66313 0.01416
C 8.54031 14.80349 0.03542
C 8.644 13.36349 0.02299
C 8.56824 32.08581 -0.02971
C 7.43206 32.77778 0.00165
C 4.84292 0.05641 0.02819
C 6.13887 0.74231 -0.00891
C 4.8638 19.96069 -0.00033
C 6.0513 19.18433 0.03589
C 6.11663 17.70966 -0.02759
C 4.9016 17.06499 0.0402
C 4.94759 15.5808 0.00572
C 6.17192 14.84645 0.03592
C 6.16369 13.41832 0.00406
C 4.91046 12.72025 0.00943
C 14.78295 24.12653 -0.01662
C 4.90749 11.2864 0.02841
C 6.14638 9.22707 -0.01275
C 4.91579 8.53443 0.00985
C 4.96501 7.1537 -0.02245
C 6.12676 6.37529 -0.00428
C 6.20005 4.9656 0.03101
C 5.00701 4.31004 -0.01536
C 4.89052 2.94237 -0.02689
C 6.11247 2.14846 -0.01046
C 6.17187 10.50618 -0.01111
C 3.6148 32.08208 0.0127
C 15.98287 23.37646 -0.01185
C 14.75832 21.35029 0.01852
C 30.55285 0.78397 0.0544
C 29.37956 34.04952 0.00026
C 31.86373 32.70648 0.00682
C 33.08445 32.05651 -0.01779
C 33.13868 30.71252 0.03794
C 31.97624 29.78479 0.01927
C 31.97536 28.38666 0.01574
C 33.22188 27.8076 -0.02383
C 33.22907 26.32262 -0.01429
C 32.00136 25.59997 -0.0136
C 31.95685 24.22785 0.00594
C 33.17919 23.58411 -0.02474
C 33.09755 22.06034 0.00369
C 31.82268 21.26025 0.00455
C 31.86939 19.91189 -0.00644
C 33.01911 19.15306 -0.01839
C 33.1394 17.74884 0.00137
C 30.4771 2.19502 -0.02142
C 33.20664 10.63746 0.00199
C 29.0466 2.94221 0.01428
C 30.63057 4.93973 0.01713
C 28.20516 0.72653 0.0101
C 27.03382 0.04948 0.01705
C 29.45676 32.65584 -0.0405
C 30.69582 31.90948 -0.01303
C 30.69724 30.53402 -0.01461
C 29.47947 29.83901 -0.02155
C 29.47542 28.39461 -0.00944
C 30.70409 27.76393 -0.03735
C 30.74336 26.27659 -0.00971
C 29.49978 25.64679 0.01518
C 29.54811 24.21217 0.01908
C 30.79054 23.55346 0.07705
C 30.763 22.18241 0.0103
C 30.44495 8.84214 0.02108
C 29.40137 8.20557 0.00716
C 29.26303 6.77328 0.00307
C 30.60944 6.2928 0.00346
C 29.2112 4.39402 -0.01694
C 27.95298 2.09385 -0.00669
C 33.22492 9.24583 0.04381
C 31.80666 6.99449 0.01504
C 1.17848 17.68367 0.01223
C 34.0814 16.78326 0.00648
C 34.36844 15.45047 0.02114
C 1.23081 14.94592 -0.02957
C 1.18892 13.49647 0.00343
C 34.31755 12.88365 -0.02656
C 34.32505 11.5153 -0.02442
C 1.16725 10.66587 -0.00027
C 1.20317 9.20918 -0.00583
C 34.4039 8.51673 -0.02302
C 34.378 7.1419 -0.02849
C 1.15294 6.427 0.02931
C 1.15845 5.01988 0.00628
C 34.41557 4.26357 -0.0345
C 34.33097 2.87189 -0.00931
C 1.14962 2.24567 -0.00939
C 1.13493 0.8378 -0.00468
C 1.14702 19.06325 -0.01678
C 31.82037 8.48868 0.02806
C 34.31354 19.85853 0.01951
C 1.10495 22.04554 0.02712
C 33.18475 6.41757 -0.00069
C 33.16838 4.97378 0.04926
C 31.92769 4.25765 -0.03838
C 31.7886 2.85484 0.00349
C 33.04772 2.11206 -0.00323
C 33.11665 0.71649 -0.00841
C 31.83478 0.02868 0.0001
C 34.34653 32.76943 -0.02927
C 1.20201 32.07847 -0.01404
C 1.23959 30.62275 0.01027
C 34.37703 30.01761 0.01831
C 34.39499 28.59547 -0.01037
C 1.19003 27.74832 -0.00439
C 1.21624 26.33928 -0.00598
C 0.03026 25.64294 -0.05239
C 0.01075 24.17308 0.03076
C 1.24891 23.42443 0.00723
C 34.3129 21.29107 -0.02213
C 26.52499 2.20998 0.03531
C 28.52954 5.69938 0.01836
C 28.45991 23.30188 -0.03039
C 17.18099 25.58162 0.03005
C 17.16671 24.15723 -0.04078
C 18.4381 23.58512 0.02117
C 18.50577 22.04421 0.02737
C 17.24988 21.31285 -0.00498
C 17.17763 19.75134 0.00135
C 18.46308 19.05506 0.03102
C 18.3326 17.67616 0.02555
C 17.15624 17.07202 0.01423
C 17.12274 15.60967 -0.00285
C 18.23434 14.7312 -0.009
C 18.45749 0.62633 -0.01199
C 17.14943 0.07919 -0.00229
C 19.74508 32.686 -0.00938
C 20.88815 31.873 -0.0264
C 20.94786 30.46087 -0.01154
C 19.61559 29.79061 0.00684
C 18.41005 26.32299 -0.0276
C 19.6589 28.39285 -0.01052
C 18.37965 27.73979 0.00768
C 17.19999 29.87478 0.00733
C 14.70477 19.91553 -0.00381
C 15.89578 19.14497 0.03046
C 15.91155 17.7611 0.0296
C 14.64238 17.03906 0.03374
C 14.67572 15.58232 -0.02845
C 15.85075 14.97941 -0.03213
C 16.01073 13.60681 0.02239
C 14.92795 12.72386 0.01153
C 14.61003 11.38999 0.02734
C 14.5374 4.55871 -0.0055
C 14.80206 3.174 0.01515
C 16.00612 2.23294 -0.00225
C 15.93533 0.84203 0.00071
C 14.77762 0.03226 -0.01107
C 17.22773 32.63378 -0.01586
C 18.42494 31.95954 -0.01971
C 18.38843 30.5099 -0.02118
C 17.21068 28.43767 -0.00178
C 20.95467 27.7118 -0.01679
C 20.90324 26.29615 0.00367
C 19.6558 25.59145 0.04306
C 24.61951 28.38188 0.00235
C 25.76575 27.63367 0.01495
C 25.72793 26.1845 0.01259
C 24.5746 25.36457 0.01799
C 24.61187 23.76893 0.01699
C 25.92889 23.26929 -0.00416
C 25.75683 0.92263 0.01177
C 24.63006 0.35354 0.04266
C 26.9273 32.78713 0.01324
C 28.14414 32.00208 0.0014
C 28.26451 30.59369 0.00924
C 27.03814 29.84209 0.02326
C 26.96744 28.38324 0.00261
C 28.25502 27.72285 0.03265
C 28.26482 26.29398 -0.02049
C 27.07875 25.53037 -0.01854
C 27.11418 24.01775 -0.01415
C 24.57663 29.80665 0.01094
C 25.72494 30.66197 0.02198
C 25.71699 32.06504 0.02611
C 24.51826 32.80161 -0.00621
C 19.66881 24.2459 0.00996
C 20.86545 23.46912 0.00195
C 20.86506 22.11089 -0.00802
C 19.83376 21.2361 -0.00218
C 19.55042 19.90381 -0.01654
C 19.63569 0.01889 -0.00037
C 22.0955 32.73633 -0.0032
C 23.32629 32.02346 0.00622
C 16.06391 22.03304 0.01126
C 23.38734 30.54075 -0.02815
C 22.14596 28.31394 0.00487
C 23.37026 27.56604 0.00826
C 23.35799 26.15726 -0.00294
C 22.13032 25.52148 0.00152
C 22.06073 24.14347 0.01257
C 23.2301 23.40393 0.02316
C 23.30308 0.53623 0.04185
C 22.1282 0.02887 0.00194
C 22.17721 29.80959 -0.00942
C 2.38908 32.75344 0.02635
