395
Graphene
C 34.38194 34.00455 0.01295
C 16.02124 26.30531 0.00444
C 14.71976 25.5962 -0.00925
C 14.879 24.14194 0.01877
C 15.96417 23.43042 0.01363
C 14.66378 11.31468 -0.02162
C 15.90562 10.63345 0.00415
C 15.90808 9.24507 -0.0014
C 14.76114 8.62142 0.02162
C 14.71283 7.07682 0.0076
C 15.94643 27.74677 -0.01789
C 15.97121 6.36723 0.01241
C 14.75888 4.2121 0.01945
C 14.75237 2.82461 0.01416
C 16.05648 2.05159 0.03542
C 16.05366 0.67868 0.02299
C 14.73957 0.02291 0.00244
C 17.24486 32.60191 -0.01717
C 18.46117 31.97031 0.05265
C 18.47023 30.57462 -0.01952
C 17.27056 29.79126 -0.02813
C 15.96709 4.9123 -0.01454
C 14.77537 28.4413 0.02894
C 14.82973 29.86647 -0.02971
C 16.02139 30.57651 0.00165
C 13.43761 31.9904 -0.01062
C 13.58443 30.50855 -0.00033
C 12.26257 29.8999 0.03589
C 12.26735 28.46902 -0.02759
C 13.52991 27.7626 0.0402
C 13.56757 26.3186 0.00572
C 12.2936 25.63524 0.03592
C 12.28116 24.23209 0.00406
C 13.4552 10.65313 0.00943
C 13.53196 9.31954 0.02841
C 12.3284 8.53768 -0.01111
C 12.35963 7.18112 -0.01275
C 13.57851 6.41561 0.00985
C 13.57394 4.95244 -0.02245
C 12.23702 4.20386 -0.00428
C 12.2141 2.87575 0.03101
C 13.46804 2.15756 -0.01536
C 13.41043 0.76732 -0.02689
C 12.26836 0.07819 -0.01046
C 14.71457 32.70824 -0.00891
C 15.966 32.00739 0.02819
C 17.25783 28.38523 0.00374
C 18.41413 27.70372 0.00052
C 18.43943 26.27977 -0.03682
C 17.17547 25.52302 0.01965
C 19.67741 28.42576 -0.00289
C 20.93868 27.7724 0.00028
C 20.8971 26.2793 -0.02213
C 19.65466 25.61816 0.03698
C 19.59799 24.18742 -0.00109
C 20.84297 23.44466 -0.00491
C 20.82601 22.09169 0.03338
C 19.62769 21.30322 -0.0258
C 19.75024 19.93687 -0.0331
C 20.86258 19.17215 -0.00316
C 20.88697 17.7089 0.02188
C 19.66221 16.9662 -0.01979
C 19.66752 15.55081 0.02691
C 20.89003 14.86087 -0.01581
C 20.77674 13.5016 0.01452
C 19.47922 12.89368 0.04892
C 19.56438 11.43521 -0.00111
C 20.80943 10.68521 -0.03557
C 20.74793 9.24475 0.03754
C 19.52781 8.53705 0.01739
C 19.58294 7.10489 0.00755
C 19.68023 29.87844 -0.00066
C 12.25181 32.74391 0.01364
C 20.99249 30.53574 0.00213
C 19.76556 32.62133 -0.04147
C 17.21186 24.07114 0.02058
C 18.40787 23.39217 -0.01957
C 18.39277 21.96017 -0.0108
C 17.18517 21.22113 -0.00368
C 18.47044 19.18524 -0.02696
C 18.59573 17.95608 -0.00114
C 18.40254 14.96612 0.00228
C 18.17883 13.56995 0.00798
C 17.02018 12.75434 0.00422
C 17.07021 11.3076 0.0351
C 18.30472 10.70581 -0.03113
C 18.29484 9.25557 0.02098
C 17.12765 8.5121 0.01848
C 17.09537 7.10091 -0.00619
C 18.3611 6.37266 -0.02162
C 18.45143 4.99154 0.00889
C 17.26918 4.24206 -0.00481
C 17.20947 2.81641 0.00979
C 18.49504 2.07715 0.01443
C 18.46351 0.67156 0.03505
C 17.24581 34.04011 -0.02815
C 21.0009 31.89212 -0.05302
C 20.82228 6.38639 -0.0054
C 9.77905 0.08755 -0.00719
C 11.00561 2.18813 0.02339
C 2.37661 4.24373 -0.00279
C 2.35644 2.84936 0.01996
C 3.64889 2.15867 -0.03996
C 3.58066 0.7118 0.01465
C 2.41549 0.01585 -0.00074
C 4.83659 32.72742 -0.00518
C 6.1116 31.98399 0.0086
C 6.09099 30.61245 -0.00643
C 4.89511 29.75965 0.017
C 3.59017 4.98473 0.01226
C 4.8584 28.36992 -0.03113
C 6.04705 26.37202 -0.00094
C 4.82673 25.56867 0.02322
C 4.92132 24.13422 -0.00725
C 6.18242 23.51018 -0.05697
C 6.32833 22.0224 0.01087
C 5.08649 21.28838 -0.01343
C 4.79176 19.84069 0.00988
C 4.82264 15.79751 0.0276
C 4.95097 12.81608 0.01305
C 6.10036 27.71086 -0.02566
C 3.63012 6.48823 0.03828
C 2.43393 7.14946 0.0174
C 2.45545 8.53977 0.0073
C 3.65336 30.54984 -0.01977
C 2.48735 29.83874 -0.00561
C 2.38499 28.42008 0.00208
C 3.64823 27.73173 0.01707
C 3.54854 26.27318 0.02769
C 2.42591 25.57641 -0.03291
C 2.41229 24.09141 -0.04999
C 3.70889 23.4367 0.04505
C 3.82655 22.04611 0.03284
C 2.56788 21.2466 -0.04307
C 2.55906 19.86606 0.03189
C 3.75349 18.95636 0.00031
C 3.80455 17.49237 -0.003
C 2.42312 16.94121 0.01402
C 2.47708 15.55352 0.02379
C 3.71583 14.9469 0.00907
C 3.76111 13.56067 0.00643
C 2.48262 12.78582 -0.01509
C 2.4818 11.3678 0.03267
C 3.6806 10.67328 0.02374
C 3.62043 9.27675 0.00402
C 4.86747 11.37866 -0.00077
C 6.14864 10.69441 0.03368
C 6.19472 9.32803 -0.02929
C 4.89707 8.57952 -0.00966
C 7.29169 2.93564 0.00685
C 8.50327 2.31832 0.02888
C 8.49178 0.84094 -0.00482
C 7.27707 0.10929 -0.01384
C 9.80955 32.69213 0.03693
C 11.02476 32.04124 0.01745
C 11.05591 30.5711 0.00488
C 9.80488 29.86903 -0.01004
C 9.80211 28.48663 -0.02896
C 11.07211 27.80178 -0.00131
C 11.04275 26.36869 -0.01118
C 9.7999 25.61067 -0.014
C 9.98775 24.24538 0.02147
C 11.1514 10.73585 0.00373
C 11.0918 9.37687 -0.00191
C 9.91822 8.58268 0.00438
C 9.85396 7.22652 0.01291
C 11.10553 6.4516 0.00093
C 11.09541 5.0047 0.00057
C 9.78308 4.33351 -0.01634
C 9.80131 2.90951 -0.00334
C 7.32483 4.32718 0.00895
C 10.97685 0.7613 0.01641
C 8.60515 5.04401 0.00393
C 7.36657 7.15677 -0.0008
C 4.87908 7.19204 -0.03337
C 6.09263 6.46638 0.01227
C 6.0569 5.01726 0.00873
C 4.84045 4.29598 -0.00049
C 4.82853 2.89499 0.00848
C 6.07512 2.26302 -0.01303
C 5.99797 0.7603 -0.01378
C 4.81995 34.07531 0.02635
C 7.33466 32.74419 0.0127
C 8.60045 31.91298 0.01396
C 8.63729 30.53256 0.01849
C 7.33716 29.84815 -0.01142
C 7.3571 28.49335 -0.00562
C 8.53616 27.73515 -0.00494
C 8.56165 26.3554 0.00054
C 7.24237 25.67914 0.03007
C 7.34395 24.2588 -0.00095
C 7.42924 11.34434 0.01572
C 8.54624 10.70193 -0.04848
C 8.60174 9.24858 -0.00892
C 7.2827 8.55725 -0.01362
C 8.59481 6.5028 0.0288
C 3.6272 31.92628 0.02784
C 20.84978 4.96645 0.00667
C 19.69561 2.81257 -0.017
C 30.72484 6.34442 0.01908
C 30.742 4.98423 0.07705
C 29.47301 4.27065 0.0103
C 29.52412 2.85314 0.02108
C 30.70429 2.07335 0.00716
C 30.70663 0.70099 0.00307
C 29.5081 0.0108 0.00346
C 31.93517 32.64771 0.01713
C 33.19435 31.92321 -0.01694
C 29.44306 7.0576 0.01518
C 33.19937 30.54635 0.01428
C 31.96767 28.40834 0.0544
C 33.14885 27.70892 0.00026
C 33.20046 26.25565 0.00682
C 32.03145 25.47351 -0.01779
C 31.98827 24.09489 0.03794
C 33.21222 23.39428 0.01927
C 33.24354 22.01071 0.01574
C 31.99809 21.26346 -0.02383
C 31.97664 19.85117 -0.01429
C 32.00993 29.77079 -0.02142
C 29.41995 8.50741 -0.00971
C 30.74033 9.26576 -0.03735
C 30.66321 10.69446 -0.00944
C 29.48131 32.6772 0.01177
C 30.74239 31.90075 0.04266
C 30.78302 30.56104 0.01324
C 29.5479 29.89981 0.0014
C 29.5951 28.39951 0.00924
C 30.79116 27.67615 0.02326
C 30.84692 26.26378 0.00261
C 29.61015 25.54615 0.03265
C 29.594 24.08189 -0.02049
C 30.72354 23.36835 -0.01854
C 30.72635 21.94079 -0.01415
C 29.46372 21.30695 -0.03039
C 29.48018 19.9013 0.01836
C 30.65257 19.19552 0.03531
C 30.69969 17.80838 -0.00669
C 29.47482 17.12732 0.0101
C 29.44398 15.66106 0.01705
C 30.67752 14.93553 -0.0405
C 30.62698 13.49901 -0.01303
C 29.47439 12.77519 -0.01461
C 29.4005 11.36269 -0.02155
C 33.27981 19.21251 -0.0136
C 33.19171 17.79112 0.00594
C 31.9008 17.0793 -0.02474
C 31.86325 15.66227 0.00369
C 1.29426 21.96092 0.02712
C 0.04216 21.34691 -0.02213
C 0.02329 19.8304 0.01951
C 1.29004 19.17033 -0.01678
C 1.21529 17.70044 0.01223
C 34.42043 17.03237 0.00648
C 34.3913 15.56927 0.02114
C 1.26453 14.93129 -0.02957
C 1.22653 13.47772 0.00343
C 34.37811 12.81456 -0.02656
C 34.42078 11.36195 -0.02442
C 1.22289 10.69837 -0.00027
C 1.15878 9.24227 -0.00583
C 34.38568 8.51891 -0.02302
C 0.01175 7.12309 -0.02849
C 1.19755 6.39048 0.02931
C 1.15205 5.00185 0.00628
C 0.00125 4.28569 -0.0345
C 34.36725 2.83132 -0.00931
C 1.12808 2.09503 -0.00939
C 1.11443 0.68096 -0.00468
C 1.22162 23.359 0.00723
C 27.04097 0.07362 -0.00416
C 0.00079 24.14914 0.03076
C 1.19454 26.2542 -0.00598
C 33.13291 14.93184 0.00455
C 33.13809 13.47472 -0.00644
C 31.88087 12.7999 -0.01839
C 31.9266 11.35156 0.00137
C 33.15914 10.66471 0.00199
C 33.15816 9.22467 0.04381
C 31.94051 8.5611 0.02806
C 31.92199 7.02149 0.01504
C 33.18852 6.401 -0.00069
C 33.17108 4.95762 0.04926
C 31.94901 4.27261 -0.03838
C 31.94866 2.82302 0.00349
C 33.06303 2.09156 -0.00323
C 33.14782 0.68098 -0.00841
C 31.96376 34.0771 0.0001
C 34.40081 32.54936 -0.02927
C 1.23999 31.96104 -0.01404
C 1.23144 30.47803 0.01027
C 34.42102 29.78192 0.01831
C 34.418 28.39022 -0.01037
C 1.18021 27.69861 -0.00439
C 0.00821 25.52525 -0.05239
C 19.65931 4.1847 0.00143
C 28.22231 0.76023 0.01699
C 27.04199 2.84106 0.01259
C 23.25991 9.1664 -0.01662
C 21.99034 8.49183 -0.01185
C 22.02481 7.03451 0.01126
C 23.26758 6.41078 0.01852
C 23.26543 4.97862 -0.00381
C 22.05774 4.27956 0.03046
C 22.08205 2.81327 0.0296
C 23.35218 2.08836 0.03374
C 23.38897 0.67422 -0.02845
C 23.2586 10.58694 -0.00478
C 22.22935 34.03846 -0.03213
C 25.85765 31.99813 0.01153
C 25.93394 30.51074 0.02734
C 24.71917 29.75574 -0.0055
C 24.71664 28.36147 0.01515
C 25.91717 27.64803 -0.00225
C 25.91113 26.15492 0.00071
C 24.6689 25.53836 -0.01107
C 24.60389 24.19428 -0.01586
C 25.86791 23.4315 -0.01971
C 24.66618 32.67241 0.02239
C 22.05089 11.32895 0.01511
C 22.01241 12.77898 0.00199
C 23.31002 13.43894 0.01087
C 20.86194 2.04645 0.00364
C 20.91719 0.64598 -0.00831
C 19.5853 33.97025 -0.02957
C 22.17565 32.67323 -0.04422
C 23.4159 31.92385 0.00654
C 23.46716 30.47068 -0.00703
C 22.24084 29.7604 -0.04076
C 22.17117 28.41068 -0.00652
C 23.42614 27.66554 0.0058
C 23.41486 26.28742 -0.00865
C 22.16418 25.60392 0.00675
C 22.10272 24.20907 -0.00311
C 23.35505 23.44471 0.00742
C 23.33785 22.04312 -0.01594
C 22.03379 21.32784 0.0106
C 22.06496 19.89004 -0.01154
C 23.3227 19.15509 -0.01721
C 23.34098 17.74831 -0.02422
C 22.08727 16.97427 0.01277
C 22.10386 15.62533 0.00096
C 23.33196 14.86362 -0.01527
C 25.84859 22.09626 -0.02118
C 24.52736 21.36243 0.00733
C 24.52541 19.94265 -0.00178
C 25.73547 19.154 0.00768
C 27.12995 25.41513 -0.00218
C 27.07249 24.01494 -0.01654
C 28.41401 23.38579 -0.00037
C 28.3308 22.02366 -0.0032
C 26.96073 21.30461 0.00622
C 26.99909 19.84417 -0.02815
C 28.28539 19.16619 -0.00942
C 28.21929 17.77519 0.00487
C 27.03624 17.07069 0.00826
C 26.97278 15.61424 -0.00294
C 28.3055 14.93795 0.00152
C 28.27994 13.55144 0.01257
C 26.9656 12.78938 0.02316
C 26.92108 11.36787 0.04185
C 28.18223 10.63077 0.00194
C 28.21724 9.18129 -0.00621
C 26.98738 8.51425 0.02611
C 26.94518 7.0711 0.02198
C 28.20645 6.4028 0.01094
C 28.26545 4.9959 0.00235
C 27.06929 4.26293 0.01495
C 28.30291 26.20275 -0.00802
C 28.29669 2.2029 0.01799
C 28.35228 27.57094 0.00195
C 27.09829 29.74236 0.04306
C 25.76808 17.80783 -0.0276
C 24.56644 17.03013 0.03005
C 24.54944 15.57239 -0.04078
C 25.81403 14.91171 0.02117
C 25.71868 13.44437 0.02737
C 24.4768 12.71109 -0.00498
C 24.54153 11.26047 0.00135
C 25.73135 10.57287 0.03102
C 25.74 9.11552 0.02555
C 24.46503 8.45417 0.01423
C 24.52464 7.058 -0.00285
C 25.7578 6.33175 -0.009
C 25.77154 4.92138 -0.01199
C 24.525 4.30547 -0.00229
C 24.55819 2.83247 -0.00938
C 25.80162 2.11855 -0.0264
C 25.87858 0.6809 -0.01154
C 24.63254 34.04475 0.00684
C 27.10724 32.65744 -0.01052
C 28.30429 31.93469 -0.01679
C 28.33932 30.54362 0.00367
C 27.20642 28.28497 0.00996
C 2.44011 32.65661 -0.01979
