286
Graphene
C 34.37342 0.06405 0.01295
C 14.89589 0.117 -0.01594
C 16.11891 0.94758 0.00742
C 14.57328 24.17597 -0.00311
C 15.01928 25.57846 0.00675
C 16.18576 26.34437 -0.00865
C 15.994 27.72669 0.0058
C 14.70854 28.34239 -0.00652
C 14.71363 29.78132 -0.04076
C 15.93072 30.43576 -0.00703
C 16.00304 31.91139 0.00654
C 14.81246 32.62554 -0.04422
C 12.33879 0.1507 -0.02957
C 13.62658 0.53811 -0.00831
C 13.62522 23.51823 0.00364
C 12.28307 23.92263 -0.017
C 12.33455 25.46013 0.00143
C 13.6033 26.1752 0.00667
C 9.87272 28.44827 -0.0331
C 11.04339 27.73799 -0.00316
C 11.0583 26.24411 0.02188
C 9.83044 25.52693 -0.01979
C 9.73585 24.19196 0.02691
C 10.96389 23.56937 -0.01581
C 17.19225 32.62214 0.0106
C 11.14115 0.71906 0.01452
C 12.4166 32.74525 -0.00111
C 13.5347 31.92579 -0.03557
C 13.51159 30.51303 0.03754
C 12.26914 29.78718 0.01739
C 12.25549 28.34475 0.00755
C 13.50523 27.58518 -0.0054
C 9.8599 0.28943 0.04892
C 18.40418 31.99948 -0.01154
C 18.42493 30.52617 -0.01721
C 17.18653 29.80493 -0.02422
C 20.95969 0.64514 0.01153
C 19.63963 34.06839 0.02734
C 22.06663 32.61881 -0.0055
C 23.31034 31.91926 0.01515
C 23.31352 30.49312 -0.00225
C 22.07657 29.71388 0.00071
C 20.94397 2.13826 0.02239
C 22.14495 28.21105 -0.01107
C 22.25308 11.41761 -0.01971
C 23.43704 10.80467 -0.02118
C 23.2703 9.38245 0.00733
C 22.01378 8.64236 -0.00178
C 22.06885 7.24575 0.00768
C 23.27911 6.45938 -0.0276
C 23.42291 27.65244 -0.01586
C 9.85193 29.87296 -0.0258
C 19.6164 2.80399 -0.03213
C 20.81379 5.16981 0.03374
C 17.21151 28.41051 0.01277
C 18.35364 27.58821 0.00096
C 18.39494 2.11319 -0.01527
C 18.4498 0.62506 0.01087
C 17.22715 0.03484 0.00199
C 19.63293 32.67545 0.01511
C 19.82022 4.18243 -0.02845
C 20.85822 31.88813 -0.00478
C 19.64256 29.73962 -0.01185
C 19.67235 28.19946 0.01126
C 20.87186 27.6973 0.01852
C 21.0816 10.67301 -0.00381
C 20.69474 9.31786 0.03046
C 20.88896 6.56448 0.0296
C 20.89803 30.4093 -0.01662
C 11.01188 30.5734 0.03338
C 11.10456 32.06833 -0.00491
C 9.86012 32.91654 -0.00109
C 2.4225 11.15607 0.01363
C 2.34542 8.63613 -0.02162
C 2.57502 7.29533 0.00415
C 3.66455 6.39841 -0.0014
C 3.69112 5.03314 0.02162
C 2.42222 4.34075 0.0076
C 2.48209 12.62736 0.01877
C 2.42651 2.96314 0.01241
C 3.61349 0.79399 0.01945
C 2.37788 0.0751 0.01416
C 4.83526 32.65888 0.03542
C 6.10123 31.98323 0.02299
C 6.10073 30.56869 0.00244
C 4.86319 29.83382 -0.01717
C 3.71152 2.18206 -0.01454
C 4.93623 28.41592 0.05265
C 3.55415 13.53499 -0.00925
C 2.51284 15.59253 -0.01789
C 3.59774 30.44612 -0.01111
C 2.41017 29.81592 -0.01275
C 2.45622 28.36534 0.00985
C 3.71137 27.66134 -0.02245
C 3.71142 26.24996 -0.00428
C 2.4682 25.63197 0.03101
C 3.85249 14.84078 0.00444
C 2.47557 24.18669 -0.01536
C 3.59442 22.06447 -0.01046
C 2.38976 21.31115 -0.00891
C 2.37256 19.86314 0.02819
C 3.63804 19.1676 0.00165
C 3.68536 17.72303 -0.02971
C 2.5042 16.94396 0.02894
C 3.68731 23.50166 -0.02689
C 23.34016 5.02113 0.03005
C 6.10741 27.71097 -0.01952
C 4.95501 25.5509 0.00374
C 7.38937 28.47471 0.00889
C 8.65696 27.75439 -0.00481
C 8.55711 26.27341 0.00979
C 7.3836 25.52404 0.01443
C 7.33996 24.01617 0.03505
C 8.56526 23.33198 -0.02815
C 7.2949 29.91731 -0.02162
C 8.67672 21.95124 -0.04147
C 7.34006 19.83287 0.00213
C 8.37214 18.93632 -0.00066
C 8.80958 17.61379 -0.00289
C 7.46002 17.2242 0.00028
C 8.52133 0.75945 -0.02213
C 7.312 34.06931 0.03698
C 7.43653 21.27827 -0.05302
C 6.15482 26.28734 -0.02813
C 8.58008 30.60076 -0.00619
C 7.26796 32.64166 0.02098
C 4.89557 24.1309 0.00052
C 6.1707 23.44938 -0.03682
C 6.18493 21.98899 0.01965
C 4.89773 21.2677 0.02058
C 4.90378 19.82167 -0.01957
C 6.19286 19.15567 -0.0108
C 8.60816 32.0859 0.01848
C 6.17045 17.80852 -0.00368
C 4.9999 15.62088 -0.00114
C 4.89143 4.33751 0.00228
C 5.06786 2.96362 0.00798
C 6.05887 2.11875 0.00422
C 6.08837 0.67847 0.0351
C 4.78346 34.05963 -0.03113
C 4.93127 17.00198 -0.02696
C 22.01088 4.28404 -0.04078
C 22.10466 2.86396 0.02117
C 23.35465 2.12321 0.02737
C 33.17931 19.21039 -0.0136
C 33.17626 17.78718 0.00594
C 31.9412 17.07985 -0.02474
C 31.91916 15.60763 0.00369
C 33.18697 14.91263 0.00455
C 33.16736 13.52459 -0.00644
C 31.94523 19.90346 -0.01429
C 31.85471 12.75607 -0.01839
C 33.16587 10.6626 0.00199
C 33.19382 9.26542 0.04381
C 31.94794 8.57745 0.02806
C 31.92147 7.15062 0.01504
C 33.1718 6.43292 -0.00069
C 33.1553 4.983 0.04926
C 31.90944 11.3222 0.00137
C 31.90146 4.30224 -0.03838
C 31.93715 21.30531 -0.02383
C 33.18565 23.43056 0.01927
C 29.44231 4.3238 0.0103
C 29.47596 2.97539 0.02108
C 30.70094 2.21522 0.00716
C 30.71373 0.8064 0.00307
C 29.48956 34.07271 0.00346
C 31.92177 32.74039 0.01713
C 33.16765 22.03372 0.01574
C 33.15851 32.00753 -0.01694
C 31.9203 29.85195 -0.02142
C 31.93623 28.39553 0.0544
C 33.17283 27.6971 0.00026
C 33.16236 26.26644 0.00682
C 31.93229 25.59627 -0.01779
C 31.91022 24.1921 0.03794
C 33.16878 30.58182 0.01428
C 30.70077 5.00377 0.07705
C 31.88009 2.93537 0.00349
C 33.15505 0.76116 -0.00841
C 1.27412 14.82273 -0.02957
C 1.19026 13.41886 0.00343
C 34.35703 12.70952 -0.02656
C 34.41284 11.33259 -0.02442
C 1.14947 10.65603 -0.00027
C 1.12546 9.21928 -0.00583
C 0.02194 15.57418 0.02114
C 34.39788 8.54658 -0.02302
C 1.29439 6.46464 0.02931
C 1.21863 5.07822 0.00628
C 34.41949 4.32917 -0.0345
C 34.36509 2.95151 -0.00931
C 1.1828 2.19433 -0.00939
C 1.1846 0.75931 -0.00468
C 0.05523 7.12261 -0.02849
C 33.14783 2.20031 -0.00323
C 34.43261 16.97336 0.00648
C 1.14032 19.20546 -0.01678
C 31.95726 0.08183 0.0001
C 34.36786 32.72244 -0.02927
C 1.19419 32.0313 -0.01404
C 1.15682 30.52032 0.01027
C 34.3471 29.83871 0.01831
C 34.33883 28.45981 -0.01037
C 1.24226 17.68904 0.01223
C 1.19066 27.70629 -0.00439
C 0.00837 25.63478 -0.05239
C 34.41702 24.1683 0.03076
C 1.25454 23.48328 0.00723
C 1.16517 22.04939 0.02712
C 34.39504 21.37747 -0.02213
C 34.35552 19.97504 0.01951
C 1.24901 26.32039 -0.00598
C 3.63059 31.91557 0.02841
C 30.71976 6.43093 0.01908
C 29.47124 8.49701 -0.00971
C 24.56438 2.8642 0.00195
C 25.7895 2.13928 -0.00802
C 25.81613 0.7296 -0.00218
C 24.58122 0.03238 -0.01654
C 27.06672 32.74149 -0.00037
C 28.30122 32.01651 -0.0032
C 24.59904 4.29345 0.00996
C 28.22189 30.58523 0.00622
C 26.9738 28.40853 -0.00942
C 28.15069 27.63654 0.00487
C 28.24183 26.20418 0.00826
C 27.01166 25.53735 -0.00294
C 28.35922 23.35505 0.00152
C 28.33833 22.15057 0.01257
C 26.99641 29.83424 -0.02815
C 28.25845 17.71486 0.02316
C 25.85642 5.02115 0.04306
C 24.54241 7.11985 -0.01679
C 23.37692 0.72127 -0.00498
C 22.12766 34.05501 0.00135
C 24.5969 32.69507 0.03102
C 25.8266 31.96441 0.02555
C 25.74097 30.6137 0.01423
C 24.56584 29.78903 -0.00285
C 25.7449 6.41987 0.00367
C 24.56116 28.41975 -0.009
C 25.95721 26.35294 -0.00229
C 24.63594 12.83942 -0.00938
C 24.66159 11.45526 -0.0264
C 25.85663 10.64011 -0.01154
C 25.75423 9.19364 0.00684
C 24.48137 8.5658 -0.01052
C 25.7637 27.68424 -0.01199
C 29.53048 7.14421 0.01518
C 27.01794 11.29166 0.04185
C 28.24469 9.19794 -0.00621
C 30.67967 23.43214 -0.01854
C 30.54267 21.93323 -0.01415
C 29.31536 21.0435 -0.03039
C 29.28829 19.57723 0.01836
C 30.66355 19.17474 0.03531
C 30.77871 17.78306 -0.00669
C 29.5236 24.18305 -0.02049
C 29.52902 16.9966 0.0101
C 30.74468 14.86689 -0.0405
C 30.68378 13.48996 -0.01303
C 29.42858 12.82778 -0.01461
C 29.46131 11.40098 -0.02155
C 30.65502 10.61376 -0.00944
C 30.69302 9.2908 -0.03735
C 29.53745 15.60568 0.01705
C 28.2674 10.62514 0.00194
C 29.5157 25.64715 0.03265
C 30.68068 27.72294 0.02326
C 27.04033 8.53194 0.02611
C 27.00101 7.06839 0.02198
C 28.31134 6.42954 0.01094
C 28.28374 5.05758 0.00235
C 27.04099 4.30032 0.01495
C 27.04495 2.90171 0.01259
C 30.68794 26.33798 0.00261
C 28.28216 2.20914 0.01799
C 27.06813 0.04472 -0.00416
C 29.46027 32.71017 0.01177
C 30.74949 31.99738 0.04266
C 30.71287 30.62946 0.01324
C 29.49134 29.82776 0.0014
C 29.40779 28.35747 0.00924
C 28.27322 0.78592 0.01699
C 2.42224 32.6412 0.00943
