420
Graphene
C 0.00621 34.01747 0.01295
C 13.51757 27.75618 0.00406
C 13.53931 26.24243 0.00943
C 12.25285 25.62007 0.02841
C 12.31191 24.2095 -0.01111
C 13.51554 23.40517 -0.01275
C 13.44926 21.96191 0.00985
C 12.28709 21.30953 -0.02245
C 12.26083 19.83949 -0.00428
C 13.46487 19.1512 0.03101
C 13.52076 17.69022 -0.01536
C 12.31832 28.46246 0.03592
C 12.2821 16.99377 -0.02689
C 13.50194 14.9341 -0.00891
C 13.51485 13.52502 0.02819
C 12.30948 12.78921 0.00165
C 12.35373 11.37982 -0.02971
C 13.54225 10.58914 0.02894
C 13.55381 9.09083 -0.01789
C 12.21167 8.38255 0.00444
C 12.27736 6.9735 -0.00925
C 13.5191 6.3048 0.01877
C 13.42897 5.00098 0.01363
C 12.3213 15.56994 -0.01046
C 12.27708 4.25755 -0.02162
C 12.2844 29.90457 0.00572
C 13.54581 32.06125 -0.02759
C 9.75008 21.3811 0.00488
C 9.80226 19.93488 -0.01004
C 11.05307 19.15175 -0.02896
C 11.08905 17.79175 -0.00131
C 9.80005 17.17248 -0.01118
C 9.80774 15.76779 -0.014
C 11.03206 15.00671 0.02147
C 11.04662 13.52299 0.00373
C 9.86409 12.80109 -0.00191
C 9.94243 11.29431 0.00438
C 13.5097 30.63476 0.0402
C 11.11079 10.53552 0.01291
C 9.82703 8.54301 0.00057
C 9.80206 7.09739 -0.01634
C 10.97215 6.35577 -0.00334
C 11.0099 4.96061 0.02339
C 9.74579 4.26357 0.01641
C 9.82095 2.8244 -0.00719
C 11.13296 2.13064 0.01364
C 11.03113 0.74836 -0.01062
C 9.81211 0.03059 -0.00033
C 12.34203 32.72167 0.03589
C 11.09158 9.16185 0.00093
C 12.34189 2.91458 0.00415
C 13.55903 2.11025 -0.0014
C 13.5265 0.75938 0.02162
C 15.97604 4.9628 0.02098
C 14.7038 4.24107 0.01848
C 14.77225 2.86448 -0.00619
C 15.98744 2.11505 -0.02162
C 15.98168 0.76211 0.00889
C 14.75101 0.05251 -0.00481
C 17.19926 32.63033 0.00979
C 18.41111 31.95636 0.01443
C 18.3519 30.48314 0.03505
C 17.12569 29.78534 -0.02815
C 15.98492 6.38167 -0.03113
C 17.14762 28.38151 -0.04147
C 18.39454 26.24254 0.00213
C 17.15986 25.60702 -0.00066
C 17.11896 24.17454 -0.00289
C 18.38557 23.45917 0.00028
C 18.40829 22.05293 -0.02213
C 17.24037 21.29286 0.03698
C 17.21619 19.90603 -0.00109
C 18.4799 19.19475 -0.00491
C 18.5089 17.73305 0.03338
C 17.25267 17.05743 -0.0258
C 18.38873 27.67251 -0.05302
C 14.76673 7.00939 0.0351
C 14.74044 8.46414 0.00422
C 15.97712 9.20018 0.00798
C 12.27741 0.04985 0.0076
C 14.77686 32.72688 0.01241
C 16.01477 31.9458 -0.01454
C 15.93895 30.51904 0.01945
C 14.72562 29.82687 0.01416
C 14.7414 28.4525 0.03542
C 15.97869 27.69928 0.02299
C 15.91854 26.29328 0.00244
C 14.69104 25.59527 -0.01717
C 14.78185 24.14166 0.05265
C 15.93707 23.39851 -0.01952
C 15.95232 21.90557 -0.02813
C 14.66671 21.20789 0.00374
C 14.6937 19.76989 0.00052
C 15.95992 19.19652 -0.03682
C 15.97258 17.76206 0.01965
C 14.83792 16.99838 0.02058
C 14.73874 15.67932 -0.01957
C 16.01667 14.91603 -0.0108
C 16.01396 13.46466 -0.00368
C 14.76121 12.6898 -0.02696
C 14.77105 11.33275 -0.00114
C 16.04347 10.58299 0.00228
C 11.06685 22.02777 0.01745
C 17.25194 15.65435 -0.0331
C 11.10932 23.50254 0.03693
C 9.81782 25.5907 -0.00482
C 2.40838 2.89721 -0.00561
C 3.64382 2.14911 0.00208
C 3.66855 0.72022 0.01707
C 2.48675 34.07183 0.02769
C 4.87166 32.66659 -0.03291
C 6.02972 31.98194 -0.04999
C 6.11253 30.58962 0.04505
C 4.92246 29.8447 0.03284
C 5.01837 28.40099 -0.04307
C 6.11717 27.69234 0.03189
C 2.43429 4.27418 -0.01977
C 6.07481 26.21973 0.00031
C 4.86772 24.07334 0.01402
C 6.19039 23.39585 0.02379
C 6.18036 22.01449 0.00907
C 4.90573 21.25924 0.00643
C 4.92949 19.93092 -0.01509
C 6.11498 19.22073 0.03267
C 6.12339 17.7639 0.02374
C 4.86092 17.0406 0.00402
C 4.96447 15.62844 0.0073
C 6.18062 14.98221 0.0174
C 4.88155 25.52603 -0.003
C 6.15351 13.48968 0.03828
C 3.69148 5.07382 0.02784
C 2.35766 7.17451 -0.00449
C 3.65556 30.51464 0.00748
C 2.4947 29.83237 0.00662
C 2.48448 28.36769 -0.0154
C 3.72365 27.63919 -0.01299
C 3.61973 26.21681 -0.00407
C 2.38663 25.49537 0.01138
C 2.41383 24.13034 0.03278
C 3.65512 23.43304 -0.00177
C 3.6177 22.04981 0.04421
C 2.39403 21.38838 0.00088
C 3.6099 6.48931 -0.01979
C 2.46066 19.88504 0.00828
C 3.747 17.78998 0.00558
C 2.45304 17.06386 -0.0059
C 2.4707 15.60523 -0.01386
C 3.69533 14.78648 -0.02805
C 3.68152 13.48289 0.00081
C 2.35111 12.73015 0.00245
C 2.35405 11.27632 0.02728
C 3.65311 10.63276 -0.00039
C 3.68284 9.18905 0.0064
C 2.42213 8.53561 0.00211
C 3.72259 19.20934 -0.02375
C 4.89619 12.75765 0.01226
C 4.88248 11.27991 -0.00279
C 6.19998 10.67903 0.01996
C 8.63556 14.97797 -0.01303
C 8.66548 13.53063 -0.01378
C 7.40793 12.85248 0.02635
C 7.35907 11.44634 0.0127
C 8.63808 10.70129 0.01396
C 8.64741 9.25158 0.01849
C 7.35524 8.59992 -0.01142
C 7.33916 7.13947 -0.00562
C 8.57751 6.43237 -0.00494
C 8.55878 5.00774 0.00054
C 7.44195 15.65555 0.00848
C 7.36545 4.2857 0.03007
C 8.58245 2.19508 0.01572
C 8.6052 0.79073 -0.04848
C 7.31466 0.04267 -0.00892
C 9.82258 32.78442 -0.01362
C 11.06231 32.05306 -0.0008
C 11.06173 30.56463 0.0288
C 9.8253 29.88093 0.00393
C 9.82897 28.50612 0.00895
C 11.1376 27.82632 0.00685
C 11.04705 26.34947 0.02888
C 7.33693 2.916 -0.00095
C 7.36242 17.12733 -0.00049
C 8.62478 17.84059 0.00873
C 8.6366 19.2248 0.01227
C 6.15233 9.27241 -0.03996
C 4.97982 8.60491 0.01465
C 4.89992 7.14225 -0.00074
C 6.16723 6.42351 -0.00518
C 6.09267 5.02446 0.0086
C 4.88215 4.3201 -0.00643
C 4.9038 2.91686 0.017
C 6.09534 2.18028 -0.03113
C 6.08695 0.79259 -0.02566
C 4.86609 0.02702 -0.00094
C 7.34329 32.71349 0.02322
C 8.59528 32.01139 -0.00725
C 8.54162 30.61721 -0.05697
C 7.3384 29.82994 0.01087
C 7.38648 28.37087 -0.01343
C 8.60177 27.7623 0.00988
C 8.56433 26.29621 0.0276
C 7.35304 25.59662 0.01305
C 7.39388 24.16764 -0.00077
C 8.63838 23.52806 0.03368
C 8.56837 22.02733 -0.02929
C 7.29648 21.31263 -0.00966
C 7.35397 19.94523 -0.03337
C 9.82227 24.23627 -0.01384
C 18.49377 14.9385 -0.00316
C 18.43091 13.50893 0.02188
C 17.21723 12.77645 -0.01979
C 29.52901 11.38043 -0.02155
C 30.69914 10.62581 -0.00944
C 30.76503 9.22022 -0.03735
C 29.49888 8.45578 -0.00971
C 29.52376 7.13647 0.01518
C 30.7135 6.37295 0.01908
C 30.74151 4.89442 0.07705
C 29.51764 4.21747 0.0103
C 29.44368 2.88381 0.02108
C 30.67163 2.08758 0.00716
C 29.56923 12.79095 -0.01461
C 30.68962 0.74678 0.00307
C 31.85517 32.60469 0.01713
C 33.09626 31.93958 -0.01694
C 33.18381 30.42899 0.01428
C 31.92411 29.71626 -0.02142
C 31.9633 28.35022 0.0544
C 33.20561 27.65897 0.00026
C 33.17206 26.19646 0.00682
C 31.80609 25.43269 -0.01779
C 31.96867 24.0665 0.03794
C 33.23046 23.42495 0.01927
C 29.43002 34.0588 0.00346
C 33.23021 22.01162 0.01574
C 30.81069 13.45826 -0.01303
C 29.4975 15.51418 0.01705
C 27.01128 11.39947 0.00235
C 28.24607 10.66209 0.01495
C 28.34715 9.31091 0.01259
C 27.05002 8.61366 0.01799
C 27.08857 7.19577 0.01699
C 28.28245 6.44949 -0.00416
C 28.29843 5.02875 0.01177
C 27.02894 4.24594 0.04266
C 27.03142 2.85846 0.01324
C 28.28901 2.13028 0.0014
C 30.75936 14.835 -0.0405
C 28.24287 0.66419 0.00924
C 29.45864 32.57438 0.00261
C 30.69744 31.94077 0.03265
C 30.69951 30.48324 -0.02049
C 29.50837 29.79216 -0.01854
C 29.56309 28.39412 -0.01415
C 30.80146 27.63072 -0.03039
C 30.71535 26.17806 0.01836
C 30.78505 19.05397 0.03531
C 30.72237 17.65695 -0.00669
C 29.46772 17.00298 0.0101
C 26.99361 34.07486 0.02326
C 31.95047 21.33668 -0.02383
C 31.77868 19.96872 -0.01429
C 33.14785 19.21799 -0.0136
C 1.15266 23.43548 0.00723
C 1.19669 21.98539 0.02712
C 34.39574 21.23756 -0.02213
C 34.37937 19.88665 0.01951
C 1.27164 19.19639 -0.01678
C 1.31004 17.74772 0.01223
C 0.01373 17.14453 0.00648
C 0.03735 15.688 0.02114
C 1.255 14.95419 -0.02957
C 1.18099 13.51347 0.00343
C 34.38811 24.14648 0.03076
C 34.36317 12.71796 -0.02656
C 1.08361 10.5631 -0.00027
C 1.18276 9.20107 -0.00583
C 34.40505 8.48196 -0.02302
C 34.33428 7.05919 -0.02849
C 1.14945 6.34583 0.02931
C 1.20146 5.01198 0.00628
C 34.366 4.27458 -0.0345
C 34.41747 2.8348 -0.00931
C 1.20098 2.1259 -0.00939
C 1.22761 0.68127 -0.00468
C 34.3863 11.33397 -0.02442
C 0.00318 25.56962 -0.05239
C 1.20037 26.21838 -0.00598
C 1.32616 27.62109 -0.00439
C 33.16678 17.78147 0.00594
C 31.94657 17.03242 -0.02474
C 31.98745 15.58903 0.00369
C 33.22539 14.90978 0.00455
C 33.21672 13.47835 -0.00644
C 31.98476 12.77157 -0.01839
C 31.92453 11.31966 0.00137
C 33.15749 10.58862 0.00199
C 33.178 9.20523 0.04381
C 31.94656 8.53264 0.02806
C 31.92469 7.07625 0.01504
C 33.17141 6.33964 -0.00069
C 33.14516 4.9254 0.04926
C 31.91056 4.17015 -0.03838
C 31.92807 2.71708 0.00349
C 33.11263 2.07101 -0.00323
C 33.14703 0.64479 -0.00841
C 31.9545 34.04626 0.0001
C 34.42561 32.64244 -0.02927
C 1.18889 31.89302 -0.01404
C 1.26136 30.47565 0.01027
C 34.42357 29.76433 0.01831
C 0.05305 28.3671 -0.01037
C 27.02564 12.82269 0.01094
C 28.36479 13.39169 0.02198
C 28.28463 14.85723 0.02611
C 27.09622 15.5507 -0.00621
C 19.82073 17.00942 0.0106
C 19.74314 15.61157 -0.01154
C 20.95549 14.85982 -0.01721
C 20.95687 13.43024 -0.02422
C 19.67794 12.78851 0.01277
C 19.68317 11.33892 0.00096
C 20.92128 10.65008 -0.01527
C 20.86645 9.20253 0.01087
C 19.70153 8.56756 0.00199
C 19.7881 7.15943 0.01511
C 20.97066 17.82231 -0.01594
C 20.95775 6.40101 -0.00478
C 19.68948 4.29297 -0.01185
C 19.63909 2.8534 0.01126
C 20.77722 2.15589 0.01852
C 20.84506 0.7035 -0.00381
C 19.56952 34.05576 0.03046
C 22.10234 32.68434 0.0296
C 23.29482 31.99182 0.03374
C 23.25062 30.5451 -0.02845
C 22.05635 29.78379 -0.03213
C 22.08149 28.37639 0.02239
C 20.9473 4.96634 -0.01662
C 20.98496 19.19156 0.00742
C 19.70646 19.99196 -0.00311
C 19.64525 21.31722 0.00675
C 17.23168 11.32456 0.02691
C 18.46269 10.61869 -0.01581
C 18.43226 9.20454 0.01452
C 17.11727 8.43077 0.04892
C 17.27262 7.08654 -0.00111
C 18.4477 6.40132 -0.03557
C 18.51462 5.01847 0.03754
C 17.21439 4.33886 0.01739
C 17.20431 2.92723 0.00755
C 18.48761 2.15012 -0.0054
C 18.40123 0.6971 0.00667
C 17.20723 34.04463 0.00143
C 19.65464 32.64539 -0.017
C 20.83939 31.99255 0.00364
C 20.85611 30.55422 -0.00831
C 19.54945 29.81397 -0.02957
C 19.67102 28.3948 -0.04422
C 20.8862 27.72798 0.00654
C 20.90162 26.25218 -0.00703
C 19.62888 25.52835 -0.04076
C 19.6194 24.14236 -0.00652
C 20.82298 23.29433 0.0058
C 21.01075 22.03628 -0.00865
C 23.2817 27.70102 0.01153
C 3.64011 31.99566 0.03345
C 22.06431 25.5972 0.02734
C 23.37083 17.97751 0.01515
C 25.76887 13.49368 -0.01052
C 24.541 12.80406 -0.01679
C 24.50702 11.32569 0.00367
C 25.78641 10.67145 0.04306
C 25.84929 9.28278 0.00996
C 24.64359 8.53593 0.00195
C 24.58617 7.06734 -0.00802
C 25.84694 6.39886 -0.00218
C 25.81729 4.97037 -0.01654
C 24.5842 4.31316 -0.00037
C 25.77845 14.89587 0.00684
C 24.54615 2.8359 -0.0032
C 25.76925 0.71402 -0.02815
C 24.57123 34.03072 -0.00942
C 27.03771 32.7273 0.00487
C 28.29971 31.96773 0.00826
C 28.26563 30.52801 -0.00294
C 27.02591 29.86325 0.00152
C 27.12519 28.25698 0.01257
C 28.33876 27.84336 0.02316
C 28.33512 17.66922 0.04185
C 27.07509 17.05911 0.00194
C 25.80799 2.11306 0.00622
C 24.58618 15.66453 -0.01154
C 24.58643 17.23978 -0.0264
C 25.90649 17.58927 -0.00938
C 22.26172 17.1711 -0.00225
C 22.2454 15.64951 0.00071
C 23.37874 14.94125 -0.01107
C 23.32152 13.47486 -0.01586
C 22.15957 12.69046 -0.01971
C 22.15782 11.30329 -0.02118
C 23.37341 10.59006 0.00733
C 23.36193 9.15521 -0.00178
C 22.14275 8.51978 0.00768
C 22.24285 7.1034 -0.0276
C 23.38996 6.39976 0.03005
C 23.38367 4.95943 -0.04078
C 22.13063 4.19758 0.02117
C 22.11723 2.82411 0.02737
C 23.36194 2.10412 -0.00498
C 23.36833 0.6745 0.00135
C 22.09908 0.02239 0.03102
C 24.57065 32.67223 0.02555
C 25.80534 31.97429 0.01423
C 25.82021 30.49066 -0.00285
C 24.558 29.87286 -0.009
C 24.58986 28.33504 -0.01199
C 25.83274 27.73193 -0.00229
C 22.23803 19.80845 -0.0055
C 2.40986 32.64732 -0.00112
