374
Graphene
C 34.33758 0.07697 0.01295
C 11.69323 21.27655 0.02299
C 12.13573 19.84338 0.00244
C 13.12845 19.17297 -0.01717
C 13.93668 10.71776 0.05265
C 13.84653 9.37159 -0.01952
C 12.76376 8.51621 -0.02813
C 13.50842 0.76585 0.00374
C 12.3193 0.04201 0.00052
C 14.81082 32.66824 -0.03682
C 16.04682 31.9117 0.01965
C 15.97885 30.4283 0.02058
C 14.7304 29.78145 -0.01957
C 14.65208 28.40469 -0.0108
C 15.88769 27.59961 -0.00368
C 15.88951 26.16498 -0.02696
C 14.67765 25.50209 -0.00114
C 14.52987 24.12952 0.00228
C 15.78427 23.39075 0.00798
C 15.66401 21.93966 0.00422
C 13.10451 21.99408 0.03542
C 14.36729 21.2526 0.0351
C 13.26516 23.42587 0.01416
C 12.16548 25.52974 -0.01454
C 10.51193 22.08175 -0.01536
C 10.20451 11.23155 -0.02689
C 11.20146 10.6364 -0.01046
C 11.43553 9.12411 -0.00891
C 10.03642 8.55008 0.02819
C 10.02103 7.07509 0.00165
C 10.62084 5.71534 -0.02971
C 10.06559 4.63479 0.02894
C 10.14861 3.09695 -0.01789
C 11.19749 2.17628 0.00444
C 11.10666 0.77074 -0.00925
C 9.9016 0.08326 0.01877
C 12.25568 32.72427 0.01363
C 13.4939 31.92338 -0.02162
C 13.51572 30.55257 0.00415
C 12.27018 29.89669 -0.0014
C 12.26454 28.48561 0.02162
C 13.41472 27.64232 0.0076
C 13.43773 26.24821 0.01241
C 12.02026 24.11513 0.01945
C 14.46763 19.78544 -0.03113
C 15.65923 19.10506 0.02098
C 15.88282 17.62919 0.01848
C 18.34096 14.72132 0.02691
C 18.36198 13.32919 -0.01581
C 17.18774 12.61825 0.01452
C 17.28358 11.21565 0.04892
C 18.58892 10.35448 -0.00111
C 18.02638 9.12931 -0.03557
C 16.93873 8.44025 0.03754
C 19.00525 5.81598 0.01739
C 19.05599 2.07187 0.00755
C 18.55634 0.74585 -0.0054
C 17.2456 0.06876 0.00667
C 19.77275 32.61751 0.00143
C 20.96683 31.88846 -0.017
C 20.9387 30.51967 0.00364
C 19.63458 29.76274 -0.00831
C 19.65977 28.37139 -0.02957
C 20.80845 27.62029 -0.04422
C 20.8824 26.19117 0.00654
C 19.60549 25.45205 -0.00703
C 16.95603 15.38681 -0.01979
C 17.01918 16.85153 0.02188
C 18.15556 17.68575 -0.00316
C 18.23816 19.10275 -0.0331
C 15.84946 14.54841 -0.00619
C 15.86999 13.13389 -0.02162
C 15.05712 11.60359 0.00889
C 16.06312 10.55128 -0.00481
C 15.79617 9.21883 0.00979
C 16.04465 0.67387 0.01443
C 14.74741 0.10366 0.03505
C 17.31274 32.66825 -0.02815
C 18.48252 31.85155 -0.04147
C 10.76978 23.5108 0.03101
C 18.38167 30.39797 -0.05302
C 17.10374 28.35984 -0.00066
C 18.39172 27.62613 -0.00289
C 18.36512 26.17168 0.00028
C 17.14906 25.47082 -0.02213
C 17.11894 24.05964 0.03698
C 18.32945 23.32573 -0.00109
C 18.28265 21.89217 -0.00491
C 16.96408 21.24797 0.03338
C 16.99666 19.78497 -0.0258
C 17.10059 29.73116 0.00213
C 9.72874 24.36007 -0.00428
C 9.69497 25.73394 -0.02245
C 10.99186 26.31213 0.00985
C 3.7705 5.0662 -0.00077
C 2.44898 4.41564 0.03368
C 2.42307 2.95811 -0.02929
C 3.60707 2.27548 -0.00966
C 3.61087 0.82093 -0.03337
C 2.37992 0.14102 0.01227
C 4.88313 32.82562 0.00873
C 6.1046 32.12406 -0.00049
C 6.1066 30.60092 0.00848
C 4.86295 29.92428 -0.01303
C 4.84212 28.51639 -0.01378
C 5.99656 27.76795 0.02635
C 6.03362 26.34077 0.0127
C 4.85212 25.59234 0.01396
C 4.89511 24.21532 0.01849
C 6.1367 23.50158 -0.01142
C 6.36917 22.02461 -0.00562
C 5.092 21.3412 -0.00494
C 4.98486 19.97937 0.00054
C 3.76178 6.5221 0.01305
C 2.53826 7.34543 0.0276
C 2.52893 8.68766 0.00988
C 3.80637 9.31931 -0.01343
C 3.64808 30.61845 0.0073
C 2.44032 29.89607 0.0174
C 2.32524 28.43773 0.03828
C 3.60514 27.74082 0.01226
C 3.67083 26.35658 -0.00279
C 2.4287 25.67971 0.01996
C 2.39606 24.22901 -0.03996
C 3.64628 23.47622 0.01465
C 3.69885 22.05093 -0.00074
C 4.95186 17.01862 0.03007
C 2.40206 21.358 -0.00518
C 3.78513 19.17682 -0.00643
C 3.69017 17.88189 0.017
C 2.42852 17.12462 -0.03113
C 2.41503 15.68002 -0.02566
C 3.67971 15.04592 -0.00094
C 3.68123 13.55241 0.02322
C 2.5664 12.82647 -0.00725
C 2.48797 11.39482 -0.05697
C 3.76912 10.76825 0.01087
C 2.52006 19.93363 0.0086
C 19.59245 24.00681 -0.04076
C 4.80054 15.79238 -0.00095
C 4.92592 12.96341 -0.04848
C 7.29253 13.04372 0.00057
C 7.54143 11.61534 -0.01634
C 8.84987 10.81175 -0.00334
C 8.75922 9.38127 0.02339
C 7.49395 8.74047 0.01641
C 7.44802 7.26002 -0.00719
C 8.59139 6.54055 0.01364
C 8.59278 5.17979 -0.01062
C 7.43701 4.48008 -0.00033
C 7.46207 3.06251 0.03589
C 8.7093 2.2849 -0.02759
C 8.59427 0.9 0.0402
C 7.29671 0.18233 0.00572
C 9.81838 32.74934 0.03592
C 10.99391 31.99267 0.00406
C 10.97354 30.59141 0.00943
C 9.76037 29.82873 0.02841
C 9.78092 28.42387 -0.01111
C 11.01915 27.75436 -0.01275
C 7.72089 21.4239 0.00093
C 8.8685 22.12112 0.01291
C 8.61748 23.58765 0.00438
C 7.27283 24.24966 -0.00191
C 4.99936 11.49848 -0.00892
C 6.2215 10.92997 -0.01362
C 6.22761 9.51168 -0.0008
C 5.05755 8.64499 0.0288
C 5.0096 7.27429 0.00393
C 6.19703 6.58419 0.00895
C 6.22705 5.15605 0.00685
C 4.98532 4.37217 0.02888
C 4.95591 2.99147 -0.00482
C 6.28173 13.60561 0.01572
C 6.1839 2.27411 -0.01384
C 4.84011 0.15545 0.01745
C 7.3851 32.83045 0.00488
C 8.60027 32.03007 -0.01004
C 8.51694 30.61477 -0.02896
C 7.33059 29.92772 -0.00131
C 7.25759 28.4614 -0.01118
C 8.47997 27.80298 -0.014
C 8.49781 26.39284 0.02147
C 7.29204 25.6512 0.00373
C 6.11421 0.91871 0.03693
C 20.85787 23.32789 -0.00652
C 20.80567 21.88258 0.0058
C 19.53533 21.18448 -0.00865
C 30.63549 2.16301 0.00716
C 30.78252 0.70293 0.00307
C 29.42775 34.0384 0.00346
C 31.92439 32.76969 0.01713
C 33.15589 32.00967 -0.01694
C 33.11049 30.57999 0.01428
C 31.79829 29.80715 -0.02142
C 32.00478 28.43451 0.0544
C 33.15948 27.73345 0.00026
C 33.12658 26.27737 0.00682
C 31.9222 25.50945 -0.01779
C 31.84881 24.11569 0.03794
C 33.10675 23.48699 0.01927
C 33.20654 22.04432 0.01574
C 31.94445 21.31387 -0.02383
C 31.91502 19.86663 -0.01429
C 33.15338 19.20349 -0.0136
C 33.09498 17.81912 0.00594
C 31.86288 17.11133 -0.02474
C 29.4415 2.90788 0.02108
C 29.39598 4.28241 0.0103
C 30.70348 4.99895 0.07705
C 30.72634 6.49297 0.01908
C 30.77249 27.68029 0.02326
C 30.72819 26.26794 0.00261
C 29.45417 25.49147 0.03265
C 29.44725 24.04119 -0.02049
C 30.61485 23.35681 -0.01854
C 30.65824 21.99374 -0.01415
C 29.4445 21.31384 -0.03039
C 29.41657 19.89522 0.01836
C 30.58329 19.1886 0.03531
C 31.88781 15.62624 0.00369
C 30.62001 17.81537 -0.00669
C 29.4354 15.66321 0.01705
C 30.70211 14.92404 -0.0405
C 30.7578 13.50947 -0.01303
C 29.53501 12.8111 -0.01461
C 29.46953 11.37762 -0.02155
C 30.66485 10.70987 -0.00944
C 30.70061 9.3137 -0.03735
C 29.41484 8.5586 -0.00971
C 29.44162 7.16347 0.01518
C 29.33181 17.07177 0.0101
C 29.54884 28.42984 0.00924
C 33.11616 14.92137 0.00455
C 31.95453 12.87327 -0.01839
C 0.01153 19.823 0.01951
C 1.24944 19.17761 -0.01678
C 1.14239 17.72598 0.01223
C 34.35057 17.04758 0.00648
C 34.35204 15.61429 0.02114
C 1.24173 14.93127 -0.02957
C 1.18137 13.48613 0.00343
C 34.34658 12.81392 -0.02656
C 34.41244 11.40941 -0.02442
C 1.23822 10.74293 -0.00027
C 1.2495 9.31773 -0.00583
C 0.01487 8.65732 -0.02302
C 0.04023 7.28388 -0.02849
C 1.25739 6.48663 0.02931
C 1.25746 5.10376 0.00628
C 34.42998 4.4203 -0.0345
C 34.37901 2.98792 -0.00931
C 1.13528 2.28837 -0.00939
C 1.16061 0.82364 -0.00468
C 34.41684 21.25192 -0.02213
C 1.13795 22.05087 0.02712
C 1.16691 23.46765 0.00723
C 34.33322 24.16056 0.03076
C 31.92523 11.40421 0.00137
C 33.15459 10.70726 0.00199
C 33.20582 9.28807 0.04381
C 31.96185 8.61335 0.02806
C 31.96668 7.24491 0.01504
C 33.21795 6.51881 -0.00069
C 33.1923 5.13269 0.04926
C 31.95284 4.37953 -0.03838
C 31.91853 2.94303 0.00349
C 33.14995 13.54207 -0.00644
C 33.12453 2.2538 -0.00323
C 31.95535 0.04878 0.0001
C 34.38448 32.73109 -0.02927
C 1.18663 32.01416 -0.01404
C 1.20081 30.55655 0.01027
C 34.38146 29.82911 0.01831
C 34.36995 28.45432 -0.01037
C 1.14317 27.69124 -0.00439
C 1.17858 26.31007 -0.00598
C 34.38093 25.62728 -0.05239
C 33.10504 0.75653 -0.00841
C 3.63229 32.08396 0.00402
C 29.45513 29.85324 0.0014
C 30.70054 32.0004 0.04266
C 23.25504 21.97586 -0.03213
C 21.99956 21.22708 0.02239
C 22.03346 19.79447 0.01153
C 23.20879 19.12579 0.02734
C 23.2271 17.72423 -0.0055
C 22.03116 16.95497 0.01515
C 21.99667 15.44951 -0.00225
C 23.21633 14.79306 0.00071
C 23.1959 13.13173 -0.01107
C 21.95948 12.66243 -0.01586
C 23.49847 2.07161 -0.01971
C 23.42506 0.68005 -0.02118
C 22.1783 0.07914 0.00733
C 24.58144 32.56067 -0.00178
C 25.81475 31.8455 0.00768
C 25.76281 30.43756 -0.0276
C 24.55842 29.76141 0.03005
C 24.58697 28.29495 -0.04078
C 25.79315 27.5699 0.02117
C 23.25591 23.41235 -0.02845
C 22.03214 24.04249 0.03374
C 22.07658 25.50229 0.0296
C 23.35424 26.1094 0.03046
C 19.59467 19.76351 0.00675
C 20.79792 19.05151 -0.00311
C 20.79185 17.63793 0.00742
C 19.5329 16.98611 -0.01594
C 19.56072 15.51207 0.0106
C 20.81484 14.77463 -0.01154
C 20.77075 13.35333 -0.01721
C 19.49815 12.59991 -0.02422
C 19.85686 11.1882 0.01277
C 25.80198 26.12943 0.02737
C 18.9264 4.07691 0.00096
C 20.90489 2.28778 0.01087
C 20.96715 0.89167 0.00199
C 19.70942 0.05261 0.01511
C 22.20718 32.65494 -0.00478
C 23.3847 31.85896 -0.01662
C 23.39248 30.45811 -0.01185
C 22.18243 29.7824 0.01126
C 22.11709 28.35923 0.01852
C 23.3223 27.53693 -0.00381
C 19.7296 3.25511 -0.01527
C 30.68966 30.62157 0.01324
C 24.51631 25.46002 -0.00498
C 25.7026 23.41542 0.03102
C 26.94527 21.2413 0.00487
C 26.88749 19.81058 0.00826
C 28.17389 19.15446 -0.00294
C 28.10436 17.71899 0.00152
C 26.92378 16.98125 0.01257
C 26.93528 15.55319 0.02316
C 28.25933 14.88458 0.04185
C 28.274 13.46477 0.00194
C 27.03277 12.72778 -0.00621
C 26.81554 11.3699 0.02611
C 28.07413 10.59738 0.02198
C 28.22692 9.24257 0.01094
C 28.2894 6.36253 0.00235
C 28.21954 5.0857 0.01495
C 26.83569 2.82794 0.01259
C 28.13134 2.24581 0.01799
C 28.29791 0.78315 0.01699
C 26.9892 33.98305 -0.00416
C 29.49772 32.68346 0.01177
C 28.19534 21.96619 -0.00942
C 28.18155 23.34574 -0.02815
C 26.94289 24.07462 0.00622
C 27.03496 25.49055 -0.0032
C 25.69334 22.00933 0.02555
C 24.53202 21.24632 0.01423
C 24.48774 19.79817 -0.00285
C 25.68181 19.05639 -0.009
C 25.71138 17.65033 -0.01199
C 24.5079 16.94206 -0.00229
C 24.50188 15.47803 -0.00938
C 25.78396 14.83544 -0.0264
C 25.71605 13.45543 -0.01154
C 24.49164 24.05765 0.00135
C 24.48748 12.68002 0.00684
C 25.8073 0.66117 -0.01679
C 24.60123 34.00208 0.00367
C 27.09505 32.60931 0.04306
C 28.26169 31.92746 0.00996
C 28.25384 30.48114 0.00195
C 27.00759 29.6946 -0.00802
C 27.06736 28.31932 -0.00218
C 28.30022 27.72331 -0.01654
C 28.29839 26.23509 -0.00037
C 25.56649 2.0042 -0.01052
C 2.36299 32.77407 0.02374
