350
Graphene
C 0.00332 0.01417 0.01295
C 9.93206 11.34504 0.00798
C 11.10114 10.68301 0.00422
C 11.1213 9.24338 0.0351
C 9.86829 8.50646 -0.03113
C 9.86726 7.12295 0.02098
C 11.08328 6.39269 0.01848
C 11.04167 4.93397 -0.00619
C 9.80617 4.30311 -0.02162
C 9.8292 2.79725 0.00889
C 11.0472 2.09329 -0.00481
C 11.00787 0.7147 0.00979
C 9.75681 33.99223 0.01443
C 12.28389 32.65367 0.03505
C 13.52995 31.95012 -0.02815
C 13.48192 30.58681 -0.04147
C 12.29537 29.86498 -0.05302
C 12.30248 28.43954 0.00213
C 9.87655 12.78515 0.00228
C 11.13473 13.43133 -0.00114
C 10.99681 14.8722 -0.02696
C 9.83571 15.66716 -0.00368
C 8.52891 0.70272 0.01241
C 7.30563 34.04677 -0.01454
C 9.83284 32.65657 0.01945
C 11.12664 31.91909 0.01416
C 11.11534 30.54166 0.03542
C 9.8895 29.91368 0.02299
C 9.82684 28.53155 0.00244
C 11.04713 27.78153 -0.01717
C 13.50557 27.68157 -0.00066
C 10.99638 26.35201 0.05265
C 9.7725 24.31596 -0.02813
C 10.98734 23.44976 0.00374
C 10.91993 22.05084 0.00052
C 9.71498 21.2792 -0.03682
C 9.8465 19.87472 0.01965
C 11.10651 19.13543 0.02058
C 11.09806 17.67632 -0.01957
C 9.82769 17.00114 -0.0108
C 9.5845 25.72526 -0.01952
C 13.51713 26.29525 -0.00289
C 12.25595 25.583 0.00028
C 12.30497 24.12472 -0.02213
C 15.96163 30.55239 0.00364
C 14.74337 29.7123 -0.00831
C 14.81469 28.23126 -0.02957
C 15.96872 27.56414 -0.04422
C 15.84421 26.20204 0.00654
C 14.64704 25.53812 -0.00703
C 14.82971 24.17136 -0.04076
C 14.73139 11.42422 -0.00652
C 15.87708 31.97611 -0.017
C 15.67651 10.73246 0.0058
C 14.80832 8.59172 0.00675
C 14.78696 7.12118 -0.00311
C 16.01672 6.47717 0.00742
C 15.96885 4.96467 -0.01594
C 14.73277 4.32209 0.0106
C 14.71681 2.92961 -0.01154
C 15.93254 2.16202 -0.01721
C 15.98705 0.73951 -0.02422
C 15.97901 9.28724 -0.00865
C 8.61828 2.15523 0.0076
C 14.68564 32.65131 0.00143
C 13.5324 0.75196 -0.0054
C 13.62403 23.41122 0.03698
C 13.28576 22.09759 -0.00109
C 12.11825 21.29239 -0.00491
C 12.27446 19.85158 0.03338
C 12.19289 16.74532 -0.0258
C 12.35405 15.4769 -0.0331
C 13.53242 13.63676 -0.00316
C 12.36431 12.89106 0.02188
C 12.26122 0.06314 0.00667
C 12.3123 11.43569 -0.01979
C 13.63535 9.26281 -0.01581
C 12.43056 8.48573 0.01452
C 12.28975 7.08183 0.04892
C 13.49915 6.39127 -0.00111
C 13.52398 5.00064 -0.03557
C 12.28451 4.23705 0.03754
C 12.29365 2.8275 0.01739
C 13.52849 2.16554 0.00755
C 13.4986 10.65674 0.02691
C 7.33741 2.88157 0.02162
C 7.37447 4.27203 -0.0014
C 8.63757 4.97658 0.00415
C 2.48732 7.12531 -0.04848
C 3.69488 6.36775 -0.00892
C 3.65413 5.0192 -0.01362
C 2.47804 4.30043 -0.0008
C 2.42872 2.90615 0.0288
C 3.67232 2.09647 0.00393
C 3.71977 0.74011 0.00895
C 2.42542 0.08146 0.00685
C 2.55825 8.48208 0.01572
C 4.88548 32.66689 0.02888
C 6.09717 30.26501 -0.01384
C 4.76847 29.57963 0.03693
C 5.24537 25.53815 0.01745
C 4.93794 24.18795 0.00488
C 6.13905 23.41181 -0.01004
C 6.10215 21.9801 -0.02896
C 4.8637 21.30925 -0.00131
C 4.84295 19.93924 -0.01118
C 6.10598 31.849 -0.00482
C 6.07909 19.22765 -0.014
C 3.7506 9.29738 -0.00095
C 2.41719 11.37934 0.00054
C 3.56356 30.58064 -0.00077
C 2.27614 29.95862 0.03368
C 2.41842 28.44512 -0.02929
C 3.76696 27.97887 -0.00966
C 3.88961 26.48611 -0.03337
C 2.56946 25.63735 0.01227
C 2.49525 24.24914 0.00873
C 3.62396 23.49625 -0.00049
C 3.74094 10.67098 0.03007
C 3.65686 22.06229 0.00848
C 2.37936 19.88759 -0.01378
C 3.60493 19.16039 0.02635
C 3.58127 17.68178 0.0127
C 2.30017 17.03643 0.01396
C 2.33147 15.66366 0.01849
C 3.63717 14.94752 -0.01142
C 3.68235 13.44976 -0.00562
C 2.48167 12.78032 -0.00494
C 2.35468 21.27848 -0.01303
C 14.77242 0.06631 0.01277
C 6.10467 17.85845 0.02147
C 4.83509 15.7135 -0.00191
C 7.36366 24.24587 0.00985
C 8.55517 23.47269 -0.02245
C 8.54623 22.12318 -0.00428
C 7.37554 21.2863 0.03101
C 7.32611 19.84693 -0.01536
C 8.56993 19.17607 -0.02689
C 8.60523 17.74943 -0.01046
C 7.38305 17.11363 -0.00891
C 7.09218 25.61495 -0.01275
C 7.33573 15.6321 0.02819
C 8.58606 13.48157 -0.02971
C 7.36939 12.77484 0.02894
C 7.39072 11.34138 -0.01789
C 8.70964 10.64389 0.00444
C 8.65455 9.26007 -0.00925
C 7.43417 8.58866 0.01877
C 7.42312 7.05046 0.01363
C 8.59907 6.38624 -0.02162
C 8.56622 14.93733 0.00165
C 4.82404 17.08423 0.00373
C 8.2589 26.51139 -0.01111
C 7.53185 29.57662 0.00943
C 6.0353 14.98226 0.00438
C 6.19118 13.44211 0.01291
C 4.90928 12.75273 0.00093
C 4.96959 11.32773 0.00057
C 6.24711 10.62004 -0.01634
C 6.21228 9.20942 -0.00334
C 4.9842 8.52613 0.02339
C 5.0386 7.09719 0.01641
C 8.39969 28.11705 0.02841
C 6.2088 6.41274 -0.00719
C 4.89585 4.25936 -0.01062
C 4.89305 2.8983 -0.00033
C 6.14846 2.1619 0.03589
C 6.1657 0.71985 -0.02759
C 4.86063 0.06377 0.0402
C 7.318 32.61461 0.00572
C 8.63104 31.97212 0.03592
C 8.54766 30.53572 0.00406
C 6.17657 4.96921 0.01364
C 17.21424 32.62921 0.00096
C 18.46101 31.92922 -0.01527
C 18.46748 30.52179 0.01087
C 33.19059 31.97773 -0.01694
C 33.21664 30.53818 0.01428
C 31.96586 29.83494 -0.02142
C 31.90124 28.46742 0.0544
C 33.20691 27.72317 0.00026
C 33.21886 26.25796 0.00682
C 31.90788 25.55817 -0.01779
C 31.87072 24.09831 0.03794
C 32.04418 32.71088 0.01713
C 33.12318 23.36741 0.01927
C 31.91651 21.39038 -0.02383
C 31.86302 19.94847 -0.01429
C 33.02869 19.10882 -0.0136
C 33.0521 17.76216 0.00594
C 31.86108 17.03301 -0.02474
C 31.78138 15.63533 0.00369
C 33.08993 14.94215 0.00455
C 33.13351 13.58535 -0.00644
C 33.08885 22.03172 0.01574
C 31.92826 12.8015 -0.01839
C 29.59141 34.07407 0.00346
C 30.77731 2.18097 0.00716
C 29.55061 25.62951 -0.03039
C 29.5717 24.2839 0.01836
C 30.62757 23.38626 0.03531
C 30.70399 21.95126 -0.00669
C 30.69048 19.07127 0.0101
C 30.67615 17.88795 0.01705
C 30.50043 15.07506 -0.0405
C 30.67323 13.60609 -0.01303
C 30.80469 0.72263 0.00307
C 29.79191 12.59978 -0.01461
C 30.77088 10.59759 -0.00944
C 30.78655 9.21709 -0.03735
C 29.56073 8.50632 -0.00971
C 29.54863 7.06429 0.01518
C 30.79397 6.34062 0.01908
C 30.76512 4.92806 0.07705
C 29.56018 4.28548 0.0103
C 29.55936 2.75876 0.02108
C 29.41941 11.32631 -0.02155
C 30.79114 26.33896 -0.01415
C 32.01914 11.3046 0.00137
C 33.25256 9.24471 0.04381
C 1.06462 19.22419 -0.01678
C 1.11311 17.7242 0.01223
C 34.26671 17.01178 0.00648
C 34.34806 15.6538 0.02114
C 1.14046 14.89079 -0.02957
C 1.18479 13.50927 0.00343
C 34.41752 12.82497 -0.02656
C 0.09615 11.31836 -0.02442
C 34.27699 19.80733 0.01951
C 1.26989 10.60406 -0.00027
C 0.03043 8.50037 -0.02302
C 0.01779 7.04948 -0.02849
C 1.28583 6.42746 0.02931
C 1.30352 4.99061 0.00628
C 34.42464 4.32057 -0.0345
C 34.41401 2.88201 -0.00931
C 1.22121 2.19625 -0.00939
C 1.20264 0.74927 -0.00468
C 1.27165 9.19192 -0.00583
C 33.28184 10.68271 0.00199
C 34.31712 21.28898 -0.02213
C 1.1284 23.44658 0.00723
C 32.05775 8.53639 0.02806
C 32.03244 7.07935 0.01504
C 33.26326 6.42041 -0.00069
C 33.26858 4.98334 0.04926
C 32.01701 4.22286 -0.03838
C 31.96304 2.87305 0.00349
C 33.18355 2.1584 -0.00323
C 33.22031 0.7637 -0.00841
C 1.11262 21.88394 0.02712
C 31.96655 34.05896 0.0001
C 1.20281 32.03261 -0.01404
C 1.12541 30.63939 0.01027
C 34.32764 29.81966 0.01831
C 34.36735 28.47064 -0.01037
C 1.20849 27.70225 -0.00439
C 1.25943 26.31725 -0.00598
C 0.01627 25.54247 -0.05239
C 34.36971 24.18173 0.03076
C 34.42376 32.71513 -0.02927
C 3.65675 31.98621 0.01305
C 30.67724 27.72565 -0.01854
C 29.45404 29.83768 0.03265
C 19.72806 7.08378 -0.01971
C 21.00155 6.41247 -0.02118
C 20.9748 4.96451 0.00733
C 19.66101 4.30155 -0.00178
C 19.60461 2.85657 0.00768
C 20.90357 2.09532 -0.0276
C 20.80763 0.68416 0.03005
C 19.60797 34.06242 -0.04078
C 19.57658 8.47131 -0.01586
C 22.08959 32.67101 0.02117
C 23.29765 30.47504 -0.00498
C 22.06434 29.7036 0.00135
C 22.1159 28.22248 0.03102
C 23.44335 27.75922 0.02555
C 22.17053 8.55755 0.01423
C 22.16982 7.22689 -0.00285
C 23.35231 6.43631 -0.009
C 23.38104 5.05509 -0.01199
C 23.28427 31.91444 0.02737
C 22.18241 4.28974 -0.00229
C 20.86844 27.64133 -0.01107
C 19.64125 29.75723 -0.00225
C 17.14054 29.80067 0.00199
C 17.16012 28.29284 0.01511
C 18.4159 27.61382 -0.00478
C 18.20366 26.20655 -0.01662
C 17.17199 25.55569 -0.01185
C 18.60988 9.16598 0.01126
C 17.24883 8.60182 0.01852
C 17.17215 7.1661 -0.00381
C 19.71105 28.3895 0.00071
C 18.44984 6.46325 0.03046
C 17.1826 4.29406 0.03374
C 17.14013 2.862 -0.02845
C 18.40115 2.1364 -0.03213
C 18.46734 0.74177 0.02239
C 17.19798 0.01192 0.01153
C 19.61927 32.63266 0.02734
C 20.90081 31.84041 -0.0055
C 20.87218 30.4801 0.01515
C 18.47729 5.05905 0.0296
C 29.42631 28.44166 -0.02049
C 22.10247 2.79955 -0.00938
C 23.22629 0.71249 -0.01154
C 27.03977 28.38967 0.00194
C 28.19073 27.72517 -0.00621
C 28.32698 26.31082 0.02611
C 26.96343 25.60861 0.02198
C 28.17263 10.61654 0.01094
C 28.28107 9.20219 0.00235
C 27.05849 8.51721 0.01495
C 26.97796 7.11764 0.01259
C 26.98395 29.75764 0.04185
C 28.32525 6.39632 0.01799
C 27.09763 4.25772 -0.00416
C 27.13388 2.82439 0.01177
C 28.34986 2.1493 0.04266
C 28.37741 0.7284 0.01324
C 27.04832 34.04662 0.0014
C 29.5207 32.66954 0.00924
C 30.72004 31.9862 0.02326
C 30.79148 30.5835 0.00261
C 28.3245 4.98617 0.01699
C 23.47269 2.15019 -0.0264
C 28.24699 30.52531 0.02316
C 27.04638 32.68043 0.00152
C 22.08822 34.01166 0.00684
C 24.54851 32.63906 -0.01052
C 25.80932 31.93066 -0.01679
C 25.80665 30.55648 0.00367
C 24.53449 29.8656 0.04306
C 24.63836 28.45731 0.00996
C 25.79747 27.78293 0.00195
C 26.01745 26.31021 -0.00802
C 28.23922 31.94347 0.01257
C 25.71511 9.03092 -0.00218
C 24.61405 7.03526 -0.00037
C 25.86614 6.3838 -0.0032
C 25.84309 4.92928 0.00622
C 24.60798 4.22354 -0.02815
C 24.58811 2.81392 -0.00942
C 25.8944 2.15658 0.00487
C 25.78102 0.6577 0.00826
C 24.58341 0.04272 -0.00294
C 24.58984 8.50508 -0.01654
C 2.44379 32.72606 0.0276
