351
Graphene
C 0.03406 34.01848 0.01295
C 17.22351 21.30818 0.00228
C 17.15949 19.91737 0.00798
C 18.40946 19.16277 0.00422
C 18.37401 17.74902 0.0351
C 17.12343 17.08889 -0.03113
C 17.21611 15.65327 0.02098
C 18.45189 14.90152 0.01848
C 18.2881 13.46086 -0.00619
C 18.42056 22.05592 -0.00114
C 18.45529 6.3948 -0.02162
C 17.32458 4.25778 -0.00481
C 17.14863 2.93271 0.00979
C 18.40939 2.08878 0.01443
C 18.42853 0.79342 0.03505
C 17.27464 34.06088 -0.02815
C 19.58465 32.6188 -0.04147
C 20.89535 31.91306 -0.05302
C 20.89702 30.50039 0.00213
C 18.55449 5.00918 0.00889
C 19.62772 29.85155 -0.00066
C 18.40207 23.49101 -0.02696
C 17.23804 25.58301 -0.0108
C 15.94348 21.96403 0.0076
C 14.70149 21.19865 0.01241
C 14.60897 19.83005 -0.01454
C 15.90413 19.21441 0.01945
C 15.94801 17.80492 0.01416
C 14.72574 17.12115 0.03542
C 14.78977 15.76447 0.02299
C 15.99737 15.09928 0.00244
C 17.21828 24.16979 -0.00368
C 15.8445 2.0857 -0.01717
C 14.84066 0.03726 -0.01952
C 17.17351 32.64155 -0.02813
C 18.36926 31.89084 0.00374
C 18.42357 30.50451 0.00052
C 17.18127 29.85854 -0.03682
C 17.14049 28.40257 0.01965
C 18.41985 27.70764 0.02058
C 18.44575 26.19318 -0.01957
C 16.07047 0.7245 0.05265
C 15.96662 23.39042 0.02162
C 19.5642 28.42516 -0.00289
C 20.8271 26.20899 -0.02213
C 20.9819 2.02602 0.00364
C 20.88125 0.65718 -0.00831
C 19.63643 0.05376 -0.02957
C 22.15749 32.56322 -0.04422
C 23.34126 31.86488 0.00654
C 23.351 30.5051 -0.00703
C 22.07167 29.74896 -0.04076
C 22.07896 28.3221 -0.00652
C 19.68966 2.84161 -0.017
C 23.39215 27.56113 0.0058
C 22.11217 25.5608 0.00675
C 22.1315 24.08856 -0.00311
C 23.37178 23.4586 0.00742
C 23.30951 22.02268 -0.01594
C 22.12454 21.30462 0.0106
C 22.12294 19.86782 -0.01154
C 23.4028 19.20523 -0.01721
C 23.30246 17.79716 -0.02422
C 23.33552 26.17679 -0.00865
C 20.77726 27.65039 0.00028
C 19.75064 4.27914 0.00143
C 20.86904 6.46013 -0.0054
C 19.6666 25.49228 0.03698
C 19.66308 24.11414 -0.00109
C 20.95062 23.39457 -0.00491
C 20.9205 21.95732 0.03338
C 19.56221 21.36766 -0.0258
C 19.62642 19.96869 -0.0331
C 20.91985 19.16284 -0.00316
C 20.89208 17.74586 0.02188
C 20.89507 5.01179 0.00667
C 19.62513 17.02611 -0.01979
C 20.82841 14.88161 -0.01581
C 20.71987 13.42182 0.01452
C 19.4615 12.66799 0.04892
C 19.68298 11.24314 -0.00111
C 20.9533 10.65998 -0.03557
C 20.91928 9.26782 0.03754
C 19.68469 8.74961 0.01739
C 19.6569 7.24567 0.00755
C 19.68338 15.58491 0.02691
C 22.09514 16.99626 0.01277
C 14.67913 24.18856 -0.0014
C 15.9009 26.27882 -0.02162
C 4.86102 32.67377 0.01572
C 6.11447 31.97626 -0.04848
C 6.07383 30.54723 -0.00892
C 4.92511 29.82905 -0.01362
C 4.99539 28.33001 -0.0008
C 6.16335 27.6264 0.0288
C 4.80202 15.43364 0.00393
C 6.14058 15.392 0.00895
C 2.44992 34.04516 -0.00095
C 4.80803 12.7312 0.00685
C 6.1305 2.30283 -0.00482
C 6.09091 0.80176 -0.01384
C 4.8717 0.06253 0.03693
C 7.30123 32.71966 0.01745
C 8.60519 31.98407 0.00488
C 8.62344 30.54778 -0.01004
C 7.35333 29.84182 -0.02896
C 7.3369 28.34307 -0.00131
C 4.93705 2.82196 0.02888
C 8.60363 27.70693 -0.01118
C 3.6353 0.7519 0.03007
C 2.4211 2.82849 -0.00494
C 3.68662 30.53051 0.01305
C 2.52271 29.73604 -0.00077
C 2.50355 28.30729 0.03368
C 3.71959 27.61715 -0.02929
C 3.61927 26.17646 -0.00966
C 2.3367 25.62174 -0.03337
C 2.31699 17.0649 0.01227
C 2.20986 15.71532 0.00873
C 3.64165 2.15299 0.00054
C 3.51764 14.86218 -0.00049
C 2.43206 12.82364 -0.01303
C 2.45844 11.38214 -0.01378
C 3.74511 10.74699 0.02635
C 3.59133 9.34539 0.0127
C 2.76533 8.346 0.01396
C 2.69908 6.6952 0.01849
C 3.60576 5.24621 -0.01142
C 2.47702 4.30745 -0.00562
C 3.70093 13.50379 0.00848
C 14.72755 25.5745 0.00415
C 8.78109 26.23078 -0.014
C 8.48729 2.18349 0.00373
C 13.56806 26.38557 -0.01275
C 12.34721 25.63114 0.00985
C 12.09559 24.17451 -0.02245
C 13.50328 23.44525 -0.00428
C 13.4404 21.99243 0.03101
C 12.1091 21.49313 -0.01536
C 11.91214 20.06651 -0.02689
C 13.29357 19.2862 -0.01046
C 13.53593 27.81411 -0.01111
C 13.48082 17.93873 -0.00891
C 13.62648 0.78483 0.00165
C 12.22219 0.25873 -0.02971
C 14.70094 32.701 0.02894
C 15.92859 32.02486 -0.01789
C 15.99996 30.62652 0.00444
C 14.73836 29.95952 -0.00925
C 14.757 28.49603 0.01877
C 15.93849 27.68833 0.01363
C 12.30651 17.12041 0.02819
C 7.59687 15.19968 0.02147
C 12.33763 28.46295 0.02841
C 13.49751 30.64832 0.00406
C 8.4589 0.84528 -0.00191
C 7.26419 0.00968 0.00438
C 9.87806 32.75552 0.01291
C 11.08412 32.11643 0.00093
C 11.09516 30.62548 0.00057
C 9.86094 29.89291 -0.01634
C 9.78541 28.49048 -0.00334
C 11.08274 27.74199 0.02339
C 12.30179 29.91902 0.00943
C 11.16019 26.30858 0.01641
C 10.92652 23.45578 0.01364
C 10.9251 18.98113 -0.01062
C 11.05717 17.4665 -0.00033
C 9.81185 18.63186 0.03589
C 10.94971 0.77286 -0.02759
C 9.7258 0.13635 0.0402
C 12.28186 32.88399 0.00572
C 13.50523 32.10308 0.03592
C 9.91132 25.54676 -0.00719
C 3.67968 31.92946 0.0276
C 22.15537 15.55601 0.00096
C 23.28309 13.49449 0.01087
C 33.1119 31.86907 -0.01694
C 33.19065 30.50998 0.01428
C 31.95517 29.83581 -0.02142
C 31.93521 28.47347 0.0544
C 33.1669 27.67284 0.00026
C 33.13495 26.33575 0.00682
C 31.94306 25.67858 -0.01779
C 31.9267 24.18391 0.03794
C 31.97367 32.676 0.01713
C 33.14106 23.45099 0.01927
C 31.96031 21.3961 -0.02383
C 31.91495 19.9882 -0.01429
C 33.07434 19.20497 -0.0136
C 33.25728 17.76335 0.00594
C 31.96566 17.04388 -0.02474
C 31.93687 15.68178 0.00369
C 33.08307 14.93061 0.00455
C 33.17414 13.52968 -0.00644
C 33.18224 22.02385 0.01574
C 31.9848 12.73341 -0.01839
C 29.51135 34.02277 0.00346
C 30.73179 2.11654 0.00716
C 29.48301 21.39335 -0.03039
C 29.51687 19.95797 0.01836
C 30.78192 19.27475 0.03531
C 30.7135 17.83367 -0.00669
C 29.44153 17.10587 0.0101
C 29.454 15.68739 0.01705
C 30.65027 14.9126 -0.0405
C 30.68936 13.46539 -0.01303
C 30.70835 0.72173 0.00307
C 29.44637 12.70574 -0.01461
C 30.80407 10.59468 -0.00944
C 30.82429 9.13472 -0.03735
C 29.57375 8.51525 -0.00971
C 29.50529 7.08342 0.01518
C 30.76865 6.29199 0.01908
C 30.78241 4.88553 0.07705
C 29.56353 4.22873 0.0103
C 29.47879 2.79916 0.02108
C 29.50338 11.30857 -0.02155
C 30.76174 22.05589 -0.01415
C 32.01633 11.37032 0.00137
C 33.3572 9.20581 0.04381
C 1.02359 19.28716 -0.01678
C 1.19715 17.88992 0.01223
C 34.4245 17.08126 0.00648
C 34.33681 15.63936 0.02114
C 1.06422 14.90414 -0.02957
C 1.22775 13.47781 0.00343
C 0.03341 12.73854 -0.02656
C 0.01245 11.32192 -0.02442
C 34.27023 19.92522 0.01951
C 1.25608 10.59276 -0.00027
C 0.19272 8.50864 -0.02302
C 0.11308 7.09255 -0.02849
C 1.3778 6.39122 0.02931
C 1.19155 4.95471 0.00628
C 34.41255 4.2896 -0.0345
C 0.07988 2.84134 -0.00931
C 1.22212 2.1027 -0.00939
C 1.27636 0.69484 -0.00468
C 1.45875 9.17269 -0.00583
C 33.21172 10.62443 0.00199
C 34.41678 21.37243 -0.02213
C 1.17292 23.49396 0.00723
C 32.05935 8.53 0.02806
C 31.95936 7.06873 0.01504
C 33.1858 6.44066 -0.00069
C 33.21353 4.99614 0.04926
C 32.03415 4.21158 -0.03838
C 31.97108 2.77735 0.00349
C 33.25767 2.12248 -0.00323
C 33.2843 0.70939 -0.00841
C 1.04282 22.16847 0.02712
C 32.00811 34.0203 0.0001
C 1.185 31.92144 -0.01404
C 1.29576 30.51883 0.01027
C 0.00856 29.81188 0.01831
C 34.42639 28.3853 -0.01037
C 1.18386 27.72348 -0.00439
C 1.20258 26.28146 -0.00598
C 34.32414 25.59963 -0.05239
C 34.33381 24.20022 0.03076
C 34.39236 32.61122 -0.02927
C 23.32961 14.86704 -0.01527
C 30.73309 23.51726 -0.01854
C 29.5138 25.56744 0.03265
C 25.80684 23.45094 -0.01971
C 25.73924 22.03297 -0.02118
C 24.57121 21.2259 0.00733
C 24.64484 19.87143 -0.00178
C 25.87201 19.22262 0.00768
C 25.81627 17.79384 -0.0276
C 24.51224 17.06303 0.03005
C 24.55169 15.60233 -0.04078
C 24.57146 24.13659 -0.01586
C 25.74643 14.92393 0.02117
C 24.54611 12.78568 -0.00498
C 24.62224 11.3618 0.00135
C 25.82111 10.58403 0.03102
C 25.81147 9.21954 0.02555
C 24.57415 8.4861 0.01423
C 24.6057 7.03877 -0.00285
C 25.85536 6.26317 -0.009
C 25.93069 4.90218 -0.01199
C 25.77662 13.50953 0.02737
C 24.65783 4.21647 -0.00229
C 24.57582 25.54516 -0.01107
C 25.78881 27.72275 -0.00225
C 22.01539 12.79344 0.00199
C 22.17596 11.37643 0.01511
C 23.40788 10.60788 -0.00478
C 23.36907 9.21206 -0.01662
C 22.17046 8.47005 -0.01185
C 22.06751 7.11192 0.01126
C 23.3649 6.3796 0.01852
C 23.39838 5.00011 -0.00381
C 25.79076 26.22025 0.00071
C 22.16187 4.30266 0.03046
C 23.37613 2.05406 0.03374
C 23.29724 0.66125 -0.02845
C 22.13411 34.00506 -0.03213
C 24.55302 32.58321 0.02239
C 25.79786 31.92159 0.01153
C 25.72717 30.53654 0.02734
C 24.54112 29.77894 -0.0055
C 24.50236 28.42325 0.01515
C 22.17179 2.83284 0.0296
C 29.49339 24.2262 -0.02049
C 24.58642 2.81615 -0.00938
C 25.76322 0.60946 -0.01154
C 28.26033 10.62707 0.00194
C 28.2521 9.20219 -0.00621
C 27.02886 8.45567 0.02611
C 27.07994 7.06404 0.02198
C 28.29689 6.40521 0.01094
C 28.2737 4.91591 0.00235
C 27.10665 4.16148 0.01495
C 27.09937 2.73582 0.01259
C 27.01231 11.36979 0.04185
C 28.33869 2.09881 0.01799
C 27.04321 34.00648 -0.00416
C 29.47376 32.61057 0.01177
C 30.67939 31.97486 0.04266
C 30.7064 30.57508 0.01324
C 29.38652 29.84414 0.0014
C 29.37025 28.45645 0.00924
C 30.64681 27.7761 0.02326
C 30.65302 26.32851 0.00261
C 28.29184 0.69414 0.01699
C 25.80719 2.04038 -0.0264
C 26.99649 12.83548 0.02316
C 28.19888 14.94455 0.00152
C 24.53166 0.00147 0.00684
C 27.11027 32.64418 -0.01052
C 28.25781 31.901 -0.01679
C 28.17795 30.54575 0.00367
C 26.93432 29.77578 0.04306
C 26.97558 28.41578 0.00996
C 28.16595 27.7058 0.00195
C 28.25512 26.25687 -0.00802
C 28.20961 13.43717 0.01257
C 27.04928 25.55313 -0.00218
C 28.28718 23.49146 -0.00037
C 28.26382 22.07103 -0.0032
C 26.99294 21.35078 0.00622
C 27.10358 19.9316 -0.02815
C 28.24093 19.16315 -0.00942
C 28.27238 17.76917 0.00487
C 26.94167 17.02209 0.00826
C 27.00767 15.57961 -0.00294
C 27.0937 24.1466 -0.01654
C 2.44712 32.63052 0.00988
