309
Graphene
C 0.01955 0.03505 0.01295
C 12.34327 34.06405 0.02188
C 14.69726 32.72909 -0.01979
C 15.98936 31.992 0.02691
C 16.03804 30.54734 -0.01581
C 14.86357 11.39432 0.01452
C 15.96193 10.68837 0.04892
C 15.93826 9.18191 -0.00111
C 14.72705 8.4777 -0.03557
C 14.72334 6.94732 0.03754
C 15.99453 6.35295 0.01739
C 16.05858 4.98003 0.00755
C 14.79821 4.21452 -0.0054
C 14.79763 2.79892 0.00667
C 16.03179 2.10992 0.00143
C 15.95679 0.77927 -0.017
C 13.5312 0.66544 -0.00316
C 14.7452 34.03684 0.00364
C 13.47073 2.08719 -0.0331
C 12.37047 4.16142 0.03338
C 11.00054 0.68889 -0.00481
C 9.8221 0.03442 0.00979
C 12.29475 32.57623 0.01443
C 13.5134 32.01598 0.03505
C 12.27886 15.63754 -0.02815
C 13.49971 14.95795 -0.04147
C 13.5515 13.5852 -0.05302
C 12.3354 12.80444 0.00213
C 12.31633 11.35901 -0.00066
C 13.54182 10.68579 -0.00289
C 13.54888 9.22938 0.00028
C 12.32338 8.5684 -0.02213
C 12.30547 7.1892 0.03698
C 13.49022 6.38937 -0.00109
C 13.50675 5.00438 -0.00491
C 12.31138 2.75778 -0.0258
C 17.2462 32.65148 -0.00831
C 18.49278 31.97883 -0.02957
C 18.56274 30.53695 -0.04422
C 20.8945 26.13709 -0.00478
C 19.56194 25.68344 -0.01662
C 20.90797 9.13446 -0.01185
C 19.60241 8.50986 0.01126
C 19.69681 7.04726 0.01852
C 20.97488 6.38199 -0.00381
C 20.92134 4.9876 0.03046
C 19.70197 4.29411 0.0296
C 19.63103 2.9371 0.03374
C 20.87393 2.15787 -0.02845
C 20.89311 0.64727 -0.03213
C 19.66365 34.04624 0.02239
C 22.13963 32.70535 0.01153
C 23.3659 31.91912 0.02734
C 23.31651 30.52087 -0.0055
C 20.88535 27.70824 0.01511
C 19.70798 28.36704 0.00199
C 19.73376 29.87332 0.01087
C 20.90761 30.50286 -0.01527
C 17.21845 29.80915 0.00654
C 17.25203 28.37886 -0.00703
C 18.4417 27.63649 -0.04076
C 18.51159 26.23052 -0.00652
C 18.40734 9.17364 0.0058
C 17.24251 8.46631 -0.00865
C 17.23044 7.05246 0.00675
C 11.04065 2.17354 0.00889
C 18.41138 6.37059 -0.00311
C 17.19005 4.2703 -0.01594
C 17.15082 2.88141 0.0106
C 18.41402 2.17941 -0.01154
C 18.41571 0.74325 -0.01721
C 17.24475 34.05149 -0.02422
C 19.69669 32.66943 0.01277
C 20.9201 31.97576 0.00096
C 18.45135 4.99175 0.00742
C 9.86886 2.87018 -0.02162
C 9.83795 4.2747 -0.00619
C 11.09095 4.91663 0.01848
C 2.44102 2.83022 0.00406
C 3.67196 2.14019 0.00943
C 3.72186 0.73977 0.02841
C 2.44068 34.07524 -0.01111
C 4.88981 32.6831 -0.01275
C 6.05994 31.98523 0.00985
C 4.90028 29.84378 -0.02245
C 4.82446 17.01976 -0.00428
C 4.92818 15.66359 0.03101
C 6.18506 14.89115 -0.01536
C 6.13509 13.46731 -0.02689
C 4.91833 12.71295 -0.01046
C 4.89541 11.34347 -0.00891
C 6.17297 10.63473 0.02819
C 6.11119 9.20819 0.00165
C 2.47723 4.25367 0.03592
C 3.7291 5.0023 0.00572
C 3.66631 6.44215 0.0402
C 2.46128 7.04823 -0.02759
C 3.68539 30.55107 0.02147
C 2.44148 29.8202 0.00373
C 2.4432 28.49084 -0.00191
C 2.476 21.22674 0.00438
C 2.4571 19.90385 0.01291
C 3.63442 19.20631 0.00093
C 3.67676 17.78835 0.00057
C 4.90233 8.52986 -0.02971
C 2.44232 17.09824 -0.01634
C 3.71264 14.88246 0.02339
C 3.72527 13.52509 0.01641
C 2.49005 12.82651 -0.00719
C 2.46487 11.40848 0.01364
C 3.62636 10.73988 -0.01062
C 3.69796 9.2818 -0.00033
C 2.44928 8.48804 0.03589
C 2.43856 15.63133 -0.00334
C 22.07856 29.85919 0.01515
C 4.94676 7.06551 0.02894
C 6.20593 4.99862 0.00444
C 8.60474 2.12518 0.00052
C 8.67432 0.69296 -0.03682
C 7.4061 34.0757 0.01965
C 9.76489 32.58855 0.02058
C 11.03591 32.10989 -0.01957
C 9.84499 15.60035 -0.0108
C 11.08233 14.91613 -0.00368
C 11.07144 13.49721 -0.02696
C 9.90155 12.74937 -0.00114
C 9.79823 11.29812 0.00228
C 11.10498 10.63205 0.00798
C 10.98493 9.1814 0.00422
C 9.80252 8.57945 0.0351
C 9.80104 7.14333 -0.03113
C 11.0442 6.39969 0.02098
C 7.40148 2.8466 0.00374
C 7.37744 4.17979 -0.02813
C 8.64984 4.97486 -0.01952
C 8.62027 6.41551 0.05265
C 4.9257 4.30235 -0.00925
C 4.90366 2.8339 0.01877
C 6.10315 2.06466 0.01363
C 6.14451 0.6739 -0.02162
C 4.94802 0.02579 0.00415
C 7.38589 32.58823 -0.0014
C 8.59137 32.00457 0.02162
C 6.16037 6.44228 -0.01789
C 7.3172 15.5821 0.0076
C 8.68494 13.46294 -0.01454
C 7.4524 12.79395 0.01945
C 7.40577 11.40306 0.01416
C 8.55758 10.54408 0.03542
C 8.57565 9.18999 0.02299
C 7.33461 8.52416 0.00244
C 7.33432 7.05021 -0.01717
C 8.61525 14.93206 0.01241
C 3.67759 31.98278 -0.014
C 22.09672 28.44219 -0.00225
C 23.38206 26.19407 -0.01107
C 33.17029 23.4608 0.01927
C 33.21637 22.04314 0.01574
C 32.00005 21.33131 -0.02383
C 31.95455 19.87962 -0.01429
C 33.20456 19.18051 -0.0136
C 33.2461 17.79392 0.00594
C 31.97413 17.03575 -0.02474
C 31.95142 15.66479 0.00369
C 33.24489 14.88162 0.00455
C 33.224 13.52555 -0.00644
C 31.97097 12.82042 -0.01839
C 31.98997 11.42537 0.00137
C 33.14595 10.74803 0.00199
C 33.17154 9.28202 0.04381
C 31.97494 8.56318 0.02806
C 31.90771 24.13711 0.03794
C 31.97399 7.14731 0.01504
C 31.9615 25.54117 -0.01779
C 33.22348 27.67957 0.00026
C 30.70339 9.25996 -0.03735
C 29.47892 8.58959 -0.00971
C 29.50888 7.12418 0.01518
C 30.67613 6.40106 0.01908
C 30.68267 5.0237 0.07705
C 29.5145 4.22839 0.0103
C 29.53381 2.80905 0.02108
C 30.70554 2.1878 0.00716
C 30.72684 0.73335 0.00307
C 29.54607 0.05776 0.00346
C 31.9896 32.59195 0.01713
C 33.19551 31.95997 -0.01694
C 33.15656 30.5209 0.01428
C 31.98409 29.81955 -0.02142
C 31.96647 28.43158 0.0544
C 33.10274 26.28369 0.00682
C 33.13666 6.39532 -0.00069
C 33.18664 4.90794 0.04926
C 31.96517 4.33466 -0.03838
C 34.38444 15.61721 0.02114
C 1.23539 14.95822 -0.02957
C 1.24385 13.46091 0.00343
C 3e-05 12.78448 -0.02656
C 34.41395 11.38194 -0.02442
C 1.26163 10.67079 -0.00027
C 1.24639 9.292 -0.00583
C 34.40089 8.52425 -0.02302
C 34.40026 7.10768 -0.02849
C 1.19422 6.38814 0.02931
C 1.15558 5.0225 0.00628
C 0.03399 4.23273 -0.0345
C 0.03587 2.77263 -0.00931
C 1.29648 2.08962 -0.00939
C 1.23506 0.73464 -0.00468
C 34.41314 17.06479 0.00648
C 1.23803 17.76557 0.01223
C 1.18543 19.15475 -0.01678
C 0.00049 19.86329 0.01951
C 31.95196 2.88238 0.00349
C 33.24556 2.16908 -0.00323
C 33.21494 0.6234 -0.00841
C 31.99789 34.01534 0.0001
C 0.02116 32.68914 -0.02927
C 1.21854 31.97704 -0.01404
C 1.2206 30.49194 0.01027
C 30.70551 10.68245 -0.00944
C 0.05451 29.78441 0.01831
C 1.23215 27.62434 -0.00439
C 1.14914 26.27761 -0.00598
C 34.38955 25.55636 -0.05239
C 34.38949 24.19081 0.03076
C 1.17288 23.45128 0.00723
C 1.28628 21.97771 0.02712
C 0.02857 21.28074 -0.02213
C 34.42963 28.42257 -0.01037
C 29.58032 11.33289 -0.02155
C 29.47992 12.71787 -0.01461
C 30.75595 13.50733 -0.01303
C 25.8127 23.47949 -0.00938
C 25.8395 10.67915 -0.0264
C 25.82999 9.2187 -0.01154
C 24.58512 8.53227 0.00684
C 24.56856 7.08906 -0.01052
C 25.82466 6.45904 -0.01679
C 25.82174 4.99533 0.00367
C 24.61525 4.32522 0.04306
C 24.54288 2.88275 0.00996
C 25.82723 2.14749 0.00195
C 25.8405 0.71135 -0.00802
C 24.6392 0.068 -0.00218
C 27.08001 32.64005 -0.01654
C 28.24682 31.91522 -0.00037
C 28.28061 30.54655 -0.0032
C 24.6811 24.12455 -0.00229
C 24.61117 25.60355 -0.01199
C 25.79938 26.17763 -0.009
C 25.79015 27.65111 -0.00285
C 22.14021 25.57093 -0.01586
C 23.44907 9.22577 -0.01971
C 22.06067 8.5216 -0.02118
C 22.0868 7.10083 0.00733
C 23.32836 6.3449 -0.00178
C 23.32898 4.95575 0.00768
C 22.11051 4.20917 -0.0276
C 27.0561 29.89528 0.00622
C 22.11456 2.88602 0.03005
C 23.36721 0.72789 0.02117
C 22.14683 34.06391 0.02737
C 24.53344 32.65079 -0.00498
C 25.75968 31.97937 0.00135
C 25.81194 30.55982 0.03102
C 24.63372 29.77182 0.02555
C 24.6 28.37151 0.01423
C 23.30405 2.18862 -0.04078
C 23.3507 27.72659 0.00071
C 27.04058 28.45761 -0.02815
C 28.25425 26.26885 0.00487
C 29.48574 29.81609 0.0014
C 29.53169 28.42508 0.00924
C 30.77071 27.6883 0.02326
C 30.74675 26.25323 0.00261
C 29.4713 25.50058 0.03265
C 29.48053 24.10925 -0.02049
C 30.71885 23.46025 -0.01854
C 30.75505 22.1067 -0.01415
C 29.51165 21.2188 -0.03039
C 29.52853 19.8318 0.01836
C 30.67313 19.14983 0.03531
C 30.73005 17.76852 -0.00669
C 29.57062 16.9494 0.0101
C 29.42947 15.59648 0.01705
C 30.69897 14.91159 -0.0405
C 30.76278 30.50932 0.01324
C 30.7123 31.88865 0.04266
C 29.47473 32.67692 0.01177
C 27.07592 34.02869 -0.00416
C 27.05112 25.5594 0.00826
C 27.10027 24.14621 -0.00294
C 28.25173 23.37691 0.00152
C 28.33636 21.9547 0.01257
C 28.26095 13.42376 0.02316
C 26.95953 11.29099 0.04185
C 28.29762 10.68003 0.00194
C 28.33656 27.65721 -0.00942
C 28.25369 9.27414 -0.00621
C 26.9933 7.10275 0.02198
C 28.2147 6.3592 0.01094
C 28.26642 4.89133 0.00235
C 27.00362 4.2716 0.01495
C 27.10052 2.82776 0.01259
C 28.31819 2.11999 0.01799
C 28.19243 0.72518 0.01699
C 26.99584 8.47352 0.02611
C 2.46686 32.65774 -0.01118
