367
Graphene
C 34.30046 0.00113 0.01295
C 14.82531 2.85675 -0.02813
C 16.02919 2.20077 0.00374
C 15.98804 0.75408 0.00052
C 14.75461 34.07949 -0.03682
C 17.10786 32.61107 0.01965
C 18.34724 32.02935 0.02058
C 18.44509 30.60979 -0.01957
C 17.2012 29.85151 -0.0108
C 17.22836 28.43809 -0.00368
C 18.42969 27.71719 -0.02696
C 18.45846 26.31671 -0.00114
C 17.20415 25.55587 0.00228
C 17.04983 24.18561 0.00798
C 18.40093 23.38919 0.00422
C 18.33154 22.04158 0.0351
C 18.61421 14.73234 -0.03113
C 18.33429 13.37827 0.02098
C 17.00566 12.74034 0.01848
C 17.20099 11.33087 -0.00619
C 14.81497 4.30291 -0.01952
C 18.38763 10.57018 -0.02162
C 16.02336 5.0509 0.05265
C 14.69752 7.10623 0.00244
C 13.58277 6.3401 0.00165
C 13.50684 4.94986 -0.02971
C 12.27528 4.30417 0.02894
C 12.26087 2.87316 -0.01789
C 13.54331 2.20866 0.00444
C 13.52805 0.73977 -0.00925
C 12.29106 0.0209 0.01877
C 14.7779 32.68053 0.01363
C 15.92895 31.93485 -0.02162
C 15.9885 30.53583 0.00415
C 14.81572 29.77542 -0.0014
C 14.81187 28.35624 0.02162
C 16.03348 27.75217 0.0076
C 16.01504 26.37177 0.01241
C 14.60313 25.60014 -0.01454
C 14.73793 11.14555 0.01945
C 15.97384 10.62413 0.01416
C 15.9871 9.14811 0.03542
C 14.68202 8.48921 0.02299
C 16.01877 6.44694 -0.01717
C 12.32076 7.04877 0.02819
C 18.4395 9.15468 0.00889
C 17.24724 7.11833 0.00979
C 19.56409 15.71709 -0.00111
C 20.81615 14.95386 -0.03557
C 20.78013 13.41379 0.03754
C 19.63296 12.67118 0.01739
C 19.63325 11.29194 0.00755
C 20.92783 10.59035 -0.0054
C 21.01588 9.14161 0.00667
C 19.74477 8.49311 0.00143
C 19.71688 7.06296 -0.017
C 20.92863 6.32611 0.00364
C 20.97042 4.94652 -0.00831
C 19.7277 4.25298 -0.02957
C 19.72781 2.86019 -0.04422
C 20.9178 2.07339 0.00654
C 20.94674 0.72131 -0.00703
C 19.66014 0.01665 -0.04076
C 22.01102 32.48627 -0.00652
C 23.05923 31.51625 0.0058
C 22.27395 30.20289 -0.00865
C 19.43596 17.13838 0.04892
C 17.21012 8.44991 -0.00481
C 20.74448 17.6409 0.01452
C 19.65479 19.72633 0.02691
C 18.40985 6.3704 0.01443
C 18.49294 5.01676 0.03505
C 17.29507 4.31277 -0.02815
C 17.21253 2.90032 -0.04147
C 18.48563 2.16523 -0.05302
C 18.4617 0.717 0.00213
C 17.18886 34.0493 -0.00066
C 19.5745 32.65823 -0.00289
C 20.69786 31.9427 0.00028
C 20.88623 30.56045 -0.02213
C 19.67757 29.7779 0.03698
C 19.75802 28.45547 -0.00109
C 21.11725 27.87071 -0.00491
C 20.98731 26.3923 0.03338
C 19.63829 25.63988 -0.0258
C 19.65792 24.19913 -0.0331
C 20.83758 23.35594 -0.00316
C 20.79415 21.9269 0.02188
C 19.50481 21.17395 -0.01979
C 20.85388 19.05595 -0.01581
C 22.54144 28.64372 0.00675
C 12.25354 8.5116 -0.00891
C 13.48071 10.66726 -0.02689
C 3.57747 0.74764 0.00873
C 2.38017 0.07443 -0.00049
C 4.83589 32.76312 0.00848
C 6.11113 32.01706 -0.01303
C 6.11459 30.58534 -0.01378
C 4.92297 29.87544 0.02635
C 4.85975 28.47435 0.0127
C 6.10705 27.79748 0.01396
C 6.09199 26.43705 0.01849
C 4.89821 25.60767 -0.01142
C 4.98555 24.23008 -0.00562
C 4.75765 11.48316 -0.00494
C 6.00774 10.7888 0.00054
C 6.10057 9.35148 0.03007
C 4.84506 8.81571 -0.00095
C 4.90559 7.31414 0.01572
C 6.17918 6.45045 -0.04848
C 6.1707 5.04604 -0.00892
C 4.95497 4.39658 -0.01362
C 3.64623 2.21808 0.01227
C 4.91033 2.93902 -0.0008
C 2.42659 2.87895 -0.03337
C 3.68091 5.12475 -0.02929
C 3.68883 30.53994 0.01465
C 2.36476 29.92371 -0.00074
C 2.30347 28.50176 -0.00518
C 3.5661 27.80941 0.0086
C 3.62974 26.35622 -0.00643
C 2.4556 25.56838 0.017
C 2.39661 24.14186 -0.03113
C 3.65073 23.4768 -0.02566
C 3.59212 22.09041 -0.00094
C 2.57859 21.24141 0.02322
C 2.52392 19.75358 -0.00725
C 2.47081 16.87595 -0.05697
C 2.35825 15.54832 0.01087
C 2.09695 11.82028 -0.01343
C 3.40936 11.19341 0.00988
C 3.58338 9.62681 0.0276
C 2.46985 8.76378 0.01305
C 2.4446 7.27148 -0.00077
C 3.62526 6.57779 0.03368
C 2.46232 4.30761 -0.00966
C 13.47199 9.22683 -0.01046
C 6.13147 2.25179 0.0288
C 4.82565 0.06795 0.00895
C 11.14437 27.59116 -0.00719
C 11.43955 26.2358 0.01364
C 11.08582 9.24956 -0.01062
C 9.75746 8.64567 -0.00033
C 9.87128 7.24368 0.03589
C 11.0728 6.4202 -0.02759
C 10.98787 4.94312 0.0402
C 9.80336 4.32297 0.00572
C 9.78869 2.89265 0.03592
C 10.97707 2.19321 0.00406
C 11.07538 0.80788 0.00943
C 9.82637 0.05572 0.02841
C 12.28449 32.6783 -0.01111
C 13.52943 31.91899 -0.01275
C 13.59394 30.56665 0.00985
C 12.31681 29.83545 -0.02245
C 12.31368 28.45892 -0.00428
C 13.56328 27.7673 0.03101
C 13.52381 26.24383 -0.01536
C 9.89626 28.43457 0.01641
C 6.13038 0.73992 0.00393
C 9.86003 29.85139 0.02339
C 11.05872 31.96417 -0.01634
C 7.38198 32.71407 0.00685
C 8.56678 32.004 0.02888
C 8.57545 30.53617 -0.00482
C 7.3287 29.93027 -0.01384
C 7.31946 28.47906 0.03693
C 8.64812 27.7681 0.01745
C 8.53076 26.38016 0.00488
C 7.30789 25.80879 -0.01004
C 8.49391 9.38986 -0.02896
C 7.34503 8.62134 -0.00131
C 7.34935 7.21407 -0.01118
C 8.66084 6.49477 -0.014
C 8.64509 5.06593 0.02147
C 7.44344 4.33577 0.00373
C 7.44207 2.8905 -0.00191
C 8.57724 2.14181 0.00438
C 8.6077 0.72572 0.01291
C 7.33938 0.05838 0.00093
C 9.81716 32.73839 0.00057
C 11.0866 30.58781 -0.00334
C 3.65147 31.97612 -0.03996
C 23.74342 27.6714 -0.00311
C 22.07625 25.58855 -0.01594
C 30.63603 0.68501 0.00307
C 29.41818 34.06147 0.00346
C 31.89774 32.71863 0.01713
C 33.08986 31.97928 -0.01694
C 33.15409 30.56313 0.01428
C 31.85131 29.90354 -0.02142
C 31.82045 28.46723 0.0544
C 33.11726 27.715 0.00026
C 33.1569 26.33456 0.00682
C 31.87862 25.60224 -0.01779
C 31.9197 24.1392 0.03794
C 33.19524 23.4193 0.01927
C 33.24637 21.98733 0.01574
C 31.98669 21.2864 -0.02383
C 31.98904 19.85197 -0.01429
C 33.25962 19.12279 -0.0136
C 33.31137 17.66222 0.00594
C 32.02834 17.00268 -0.02474
C 31.97921 15.66373 0.00369
C 30.70989 2.1117 0.00716
C 33.20255 14.86093 0.00455
C 29.47491 2.83971 0.02108
C 30.76681 4.95168 0.07705
C 29.40407 25.5717 0.03265
C 29.40884 24.17023 -0.02049
C 30.67393 23.44739 -0.01854
C 30.78099 21.99611 -0.01415
C 29.49486 21.30156 -0.03039
C 29.47132 19.92021 0.01836
C 30.73771 19.18066 0.03531
C 30.78042 17.74795 -0.00669
C 29.5753 17.02775 0.0101
C 29.53513 15.66459 0.01705
C 30.74381 14.93921 -0.0405
C 30.72824 13.48542 -0.01303
C 29.55649 12.74211 -0.01461
C 29.47449 11.33897 -0.02155
C 30.72115 10.68856 -0.00944
C 30.76443 9.18508 -0.03735
C 29.56333 8.50264 -0.00971
C 29.57353 7.04753 0.01518
C 30.78293 6.3773 0.01908
C 29.54343 4.27919 0.0103
C 30.66699 26.28327 0.00261
C 33.21854 13.48375 -0.00644
C 31.91887 11.38989 0.00137
C 34.4271 19.90152 0.01951
C 1.21201 19.17425 -0.01678
C 1.30147 17.7292 0.01223
C 0.04604 16.8533 0.00648
C 0.07794 15.37863 0.02114
C 1.36508 14.56629 -0.02957
C 1.29501 13.02231 0.00343
C 34.40418 12.68818 -0.02656
C 34.27304 11.21261 -0.02442
C 1.13106 10.74282 -0.00027
C 1.22258 9.38413 -0.00583
C 0.02342 8.59515 -0.02302
C 0.01107 7.14275 -0.02849
C 1.26789 6.51999 0.02931
C 1.25971 5.04412 0.00628
C 34.3998 4.31981 -0.0345
C 0.02294 2.88528 -0.00931
C 1.17878 2.13693 -0.00939
C 1.11139 0.73378 -0.00468
C 0.06662 21.26599 -0.02213
C 32.02652 12.72839 -0.01839
C 1.28062 21.98301 0.02712
C 34.429 24.14974 0.03076
C 33.08049 10.59186 0.00199
C 33.21169 9.22028 0.04381
C 32.00995 8.57603 0.02806
C 32.00179 7.08221 0.01504
C 33.2068 6.38377 -0.00069
C 33.17263 4.99088 0.04926
C 31.99008 4.30676 -0.03838
C 31.92539 2.81803 0.00349
C 33.2511 2.18325 -0.00323
C 33.16275 0.79754 -0.00841
C 31.90894 0.06461 0.0001
C 34.34478 32.68341 -0.02927
C 1.16701 32.03088 -0.01404
C 1.12512 30.68595 0.01027
C 34.41314 29.91917 0.01831
C 34.35805 28.42137 -0.01037
C 1.14157 27.73952 -0.00439
C 1.2051 26.28369 -0.00598
C 34.43281 25.57597 -0.05239
C 1.22802 23.42844 0.00723
C 23.35958 26.2458 0.00742
C 30.618 27.77492 0.02326
C 29.23757 29.87562 0.0014
C 22.16994 34.0135 0.02734
C 24.47989 32.16622 -0.0055
C 25.85419 31.58215 0.01515
C 25.26088 27.65565 -0.00225
C 25.66591 26.24479 0.00071
C 24.49381 25.46589 -0.01107
C 24.51873 24.12204 -0.01586
C 25.76065 23.36968 -0.01971
C 25.72991 21.95152 -0.02118
C 24.49629 21.21767 0.00733
C 24.49935 19.81803 -0.00178
C 25.72936 19.11549 0.00768
C 25.80132 17.63791 -0.0276
C 24.62059 16.93045 0.03005
C 24.50228 15.53147 -0.04078
C 25.75657 14.84626 0.02117
C 25.83684 13.42954 0.02737
C 24.58946 12.72361 -0.00498
C 24.66709 11.34868 0.00135
C 23.37279 0.54871 0.01153
C 25.82096 10.59314 0.03102
C 23.37073 1.9745 0.02239
C 22.15551 4.25404 -0.02845
C 22.03787 24.07838 0.0106
C 23.31009 23.32998 -0.01154
C 23.27537 21.99054 -0.01721
C 22.03969 21.27077 -0.02422
C 22.06527 19.85917 0.01277
C 23.32477 19.12277 0.00096
C 23.31214 17.64899 -0.01527
C 22.0661 16.96076 0.01087
C 22.06151 15.53688 0.00199
C 23.22381 14.81226 0.01511
C 23.32455 13.41558 -0.00478
C 22.10472 12.73223 -0.01662
C 22.205 11.33251 -0.01185
C 23.42209 10.66676 0.01126
C 23.40378 9.18352 0.01852
C 22.17112 8.42325 -0.00381
C 22.15175 7.05144 0.03046
C 23.43027 6.36396 0.0296
C 23.41746 4.99336 0.03374
C 22.15235 2.82645 -0.03213
C 29.21645 28.44785 0.00924
C 25.84146 9.20651 0.02555
C 24.60972 7.08907 -0.00285
C 27.05136 15.53559 -0.00294
C 28.28961 14.9117 0.00152
C 28.29651 13.46042 0.01257
C 27.1277 12.72004 0.02316
C 27.06399 11.31745 0.04185
C 28.29936 10.65466 0.00194
C 28.32821 9.2159 -0.00621
C 27.0547 8.49611 0.02611
C 27.11068 7.0538 0.02198
C 28.30154 6.39512 0.01094
C 28.21237 4.91997 0.00235
C 27.05009 4.20231 0.01495
C 27.02606 2.77067 0.01259
C 28.2633 2.18047 0.01799
C 28.20057 0.74036 0.01699
C 26.97301 34.02228 -0.00416
C 29.44501 32.67788 0.01177
C 30.65902 31.98422 0.04266
C 30.62899 30.52519 0.01324
C 27.06444 16.97871 0.00826
C 24.61516 8.50653 0.01423
C 28.24319 17.71216 0.00487
C 27.03389 19.88637 -0.02815
C 25.87587 6.343 -0.009
C 25.82396 4.9464 -0.01199
C 24.57766 4.20907 -0.00229
C 24.50876 2.78696 -0.00938
C 25.79293 2.05372 -0.0264
C 25.69142 0.59626 -0.01154
C 24.55588 33.79832 0.00684
C 26.90337 32.57561 -0.01052
C 28.16947 32.05162 -0.01679
C 28.06465 30.59904 0.00367
C 26.66374 30.10019 0.04306
C 26.57856 28.59873 0.00996
C 27.89193 27.77546 0.00195
C 28.11114 26.27581 -0.00802
C 26.9276 25.51388 -0.00218
C 26.95175 24.09257 -0.01654
C 28.18502 23.40063 -0.00037
C 28.29912 21.97361 -0.0032
C 27.0544 21.27852 0.00622
C 28.22447 19.15942 -0.00942
C 2.38576 32.67966 0.01996
