388
Graphene
C 34.36786 34.01592 0.01295
C 9.72116 4.37482 -0.02162
C 9.62825 2.98769 0.00415
C 10.98381 2.2534 -0.0014
C 11.01732 0.78522 0.02162
C 9.82376 0.08623 0.0076
C 12.23179 32.70668 0.01241
C 13.48701 31.94792 -0.01454
C 13.54189 30.60677 0.01945
C 12.27186 29.82665 0.01416
C 11.02619 5.0451 0.01363
C 12.28257 28.3704 0.03542
C 13.57046 26.20672 0.00244
C 12.36067 25.5541 -0.01717
C 12.35821 24.11623 0.05265
C 13.50965 23.29634 -0.01952
C 13.45854 21.93703 -0.02813
C 12.25313 21.3147 0.00374
C 12.22106 19.85796 0.00052
C 13.56188 19.1654 -0.03682
C 13.53389 17.79099 0.01965
C 13.51567 27.58964 0.02299
C 12.34662 17.02504 0.02058
C 10.99683 6.47246 0.01877
C 9.78182 8.55923 0.00444
C 9.82341 29.82397 0.00572
C 9.80977 28.45317 0.03592
C 11.04408 27.67079 0.00406
C 11.15802 26.20773 0.00943
C 9.91386 25.54318 0.02841
C 9.81876 24.08637 -0.01111
C 11.05803 23.43226 -0.01275
C 11.07295 22.00092 0.00985
C 9.80652 21.26635 -0.02245
C 9.77883 7.14856 -0.00925
C 9.81033 19.9076 -0.00428
C 11.1008 17.70363 -0.01536
C 9.81772 17.06445 -0.02689
C 9.86216 15.66464 -0.01046
C 11.09999 14.91403 -0.00891
C 11.07276 13.53962 0.02819
C 9.81066 12.79632 0.00165
C 9.76222 11.43463 -0.02971
C 11.00194 10.65161 0.02894
C 11.04047 9.28412 -0.01789
C 11.02178 19.13413 0.03101
C 12.32449 15.64183 -0.01957
C 13.55914 14.90103 -0.0108
C 13.60548 13.4704 -0.00368
C 14.67548 19.90068 -0.00109
C 15.9609 19.27383 -0.00491
C 16.16615 17.91092 0.03338
C 14.81365 17.10288 -0.0258
C 14.77681 15.63626 -0.0331
C 16.02936 15.02858 -0.00316
C 16.02233 13.48749 0.02188
C 14.8558 12.81301 -0.01979
C 14.7356 11.40224 0.02691
C 14.74182 21.38982 0.03698
C 16.01362 10.65326 -0.01581
C 14.80406 8.57908 0.04892
C 14.79863 7.19691 -0.00111
C 16.01033 6.44731 -0.03557
C 15.94326 4.98063 0.03754
C 14.61688 4.31129 0.01739
C 14.66882 2.85451 0.00755
C 15.88212 2.08781 -0.0054
C 15.89209 0.67855 0.00667
C 14.65602 34.01943 0.00143
C 16.00371 9.24961 0.01452
C 16.10237 21.78145 -0.02213
C 16.18061 23.1907 0.00028
C 14.78617 23.96638 -0.00289
C 12.35242 12.79571 -0.02696
C 12.25944 11.38428 -0.00114
C 13.53981 10.7397 0.00228
C 13.48434 9.31136 0.00798
C 12.24774 8.63098 0.00422
C 12.25931 7.19953 0.0351
C 13.49787 6.5246 -0.03113
C 13.40586 5.11942 0.02098
C 12.24578 4.30619 0.01848
C 12.24207 2.92133 -0.00619
C 13.44063 2.19356 -0.02162
C 13.54392 0.74054 0.00889
C 12.22238 0.10911 -0.00481
C 14.71242 32.63996 0.00979
C 15.92604 31.87922 0.01443
C 15.93915 30.45976 0.03505
C 14.71611 29.74574 -0.02815
C 14.69485 28.32517 -0.04147
C 15.99418 27.58055 -0.05302
C 16.01722 26.10616 0.00213
C 14.77872 25.43858 -0.00066
C 11.0582 30.61634 0.0402
C 17.17926 32.54135 -0.017
C 10.9769 31.97512 -0.02759
C 7.28174 0.10581 -0.00033
C 3.54228 5.01119 0.0086
C 2.28633 4.36561 -0.00643
C 2.32094 2.91502 0.017
C 3.60553 2.27579 -0.03113
C 3.63437 0.90604 -0.02566
C 2.44881 0.09787 -0.00094
C 4.83993 32.79769 0.02322
C 6.12424 32.01357 -0.00725
C 6.13914 30.59463 -0.05697
C 3.57306 6.51394 -0.00518
C 4.88675 29.91472 0.01087
C 6.13102 27.76258 0.00988
C 6.13189 26.3825 0.0276
C 5.00735 25.64771 0.01305
C 4.97623 24.24867 -0.00077
C 6.25492 23.50324 0.03368
C 6.14288 22.03677 -0.02929
C 4.95144 21.25724 -0.00966
C 4.96161 19.8803 -0.03337
C 6.17666 19.18489 0.01227
C 4.9679 28.44321 -0.01343
C 6.14147 17.81814 0.00873
C 2.28583 7.17722 -0.00074
C 3.55928 9.34883 -0.03996
C 3.65373 30.5995 0.04505
C 2.40992 29.87124 0.03284
C 2.38611 28.42968 -0.04307
C 3.71974 27.77288 0.03189
C 3.77199 26.35588 0.00031
C 2.54732 25.64337 -0.003
C 2.49463 24.1638 0.01402
C 3.79886 23.55213 0.02379
C 3.79268 22.11677 0.00907
C 2.29644 8.61265 0.01465
C 2.55923 21.3886 0.00643
C 3.73275 19.14031 0.03267
C 3.76649 17.77596 0.02374
C 2.50956 17.09817 0.00402
C 2.42711 15.65882 0.0073
C 3.64041 15.02633 0.0174
C 3.59738 13.53636 0.03828
C 2.30817 12.86962 0.01226
C 2.25791 11.47358 -0.00279
C 3.54354 10.7396 0.01996
C 2.4253 19.97405 -0.01509
C 4.92935 17.06921 -0.00049
C 4.86221 15.63641 0.00848
C 6.08313 14.93415 -0.01303
C 7.34603 21.3159 0.00488
C 7.31927 19.94263 -0.01004
C 8.53084 19.24527 -0.02896
C 8.62089 17.79887 -0.00131
C 7.34125 17.13873 -0.01118
C 7.27864 15.63924 -0.014
C 8.57061 14.94215 0.02147
C 8.52667 13.47768 0.00373
C 7.34732 12.69007 -0.00191
C 8.59541 21.97185 0.01745
C 7.27398 11.25504 0.00438
C 8.57259 9.28206 0.00093
C 7.30946 8.62186 0.00057
C 7.31648 7.23852 -0.01634
C 8.57223 6.54146 -0.00334
C 8.42848 5.16232 0.02339
C 7.27869 4.38085 0.01641
C 7.28583 2.97337 -0.00719
C 8.49731 2.22942 0.01364
C 8.51977 0.85812 -0.01062
C 8.5347 10.72404 0.01291
C 8.64688 23.37026 0.03693
C 7.43305 24.14604 -0.01384
C 7.37105 25.5863 -0.00482
C 6.09192 13.48124 -0.01378
C 4.81866 12.81006 0.02635
C 4.82659 11.43146 0.0127
C 5.97369 10.63227 0.01396
C 6.02637 9.30677 0.01849
C 4.84695 8.5888 -0.01142
C 4.78535 7.16937 -0.00562
C 6.09332 6.49027 -0.00494
C 6.0224 5.08456 0.00054
C 4.77164 4.35984 0.03007
C 4.82526 2.894 -0.00095
C 6.05615 2.22476 0.01572
C 6.04062 0.83751 -0.04848
C 4.86094 0.12966 -0.00892
C 7.34399 32.80006 -0.01362
C 8.52073 32.05558 -0.0008
C 8.5516 30.58012 0.0288
C 7.28899 29.85936 0.00393
C 7.40257 28.42797 0.00895
C 8.60304 27.7442 0.00685
C 8.60055 26.25764 0.02888
C 9.71246 32.75674 0.03589
C 18.39012 31.82391 0.00364
C 18.43483 30.43072 -0.00831
C 17.19274 29.68912 -0.02957
C 29.43445 8.51961 0.07705
C 29.35167 7.02852 0.0103
C 30.60134 6.33052 0.02108
C 30.63673 4.90794 0.00716
C 29.42965 4.17 0.00307
C 29.40217 2.78976 0.00346
C 30.57593 2.10304 0.01713
C 30.64494 0.72241 -0.01694
C 29.43659 34.03747 0.01428
C 30.71465 9.27415 0.01908
C 31.83923 32.63133 -0.02142
C 33.16017 30.56883 0.00026
C 31.94623 29.89684 0.00682
C 31.96992 28.39184 -0.01779
C 33.17531 27.66238 0.03794
C 33.12531 26.18257 0.01927
C 31.84612 25.46799 0.01574
C 31.9053 24.10231 -0.02383
C 33.10063 23.34336 -0.01429
C 33.18354 21.91958 -0.0136
C 33.15995 31.92926 0.0544
C 33.24606 19.20542 0.00594
C 30.57475 10.71204 0.01518
C 29.38981 12.7784 -0.03735
C 28.27138 9.22008 0.01324
C 27.00156 8.51241 0.0014
C 27.00111 7.04803 0.00924
C 28.13206 6.38837 0.02326
C 28.16192 4.97589 0.00261
C 26.96118 4.20917 0.03265
C 26.99196 2.78285 -0.02049
C 28.19858 2.09956 -0.01854
C 28.18226 0.64621 -0.01415
C 29.38586 11.36664 -0.00971
C 26.96219 34.05274 -0.03039
C 30.63862 31.93524 0.03531
C 30.67909 30.5692 -0.00669
C 29.44144 29.80489 0.0101
C 29.49436 28.34369 0.01705
C 30.7451 27.72597 -0.0405
C 30.65297 26.24131 -0.01303
C 29.24897 25.59652 -0.01461
C 30.73849 15.05094 -0.02155
C 30.36313 13.60362 -0.00944
C 29.48373 32.63146 0.01836
C 33.25735 17.91762 -0.02474
C 31.68918 15.64552 0.00369
C 33.02369 15.05924 0.00455
C 0.01125 21.31246 -0.02213
C 0.00587 19.98416 0.01951
C 1.24882 19.24255 -0.01678
C 1.22833 17.74543 0.01223
C 34.42214 17.08853 0.00648
C 34.30085 15.64265 0.02114
C 1.16312 15.02441 -0.02957
C 1.08881 13.60577 0.00343
C 34.12243 12.93312 -0.02656
C 1.26842 22.03619 0.02712
C 34.18569 11.51083 -0.02442
C 1.14793 9.4181 -0.00583
C 34.35192 8.76872 -0.02302
C 34.33986 7.2448 -0.02849
C 1.09997 6.47774 0.02931
C 1.05438 4.95931 0.00628
C 34.27142 4.26347 -0.0345
C 34.28988 2.82743 -0.00931
C 1.1278 2.20203 -0.00939
C 1.23924 0.74316 -0.00468
C 1.0052 10.85089 -0.00027
C 1.25865 23.48684 0.00723
C 34.36304 24.09327 0.03076
C 34.36124 25.53411 -0.05239
C 32.88368 13.61589 -0.00644
C 31.7086 12.90726 -0.01839
C 31.75642 11.47053 0.00137
C 32.92094 10.76513 0.00199
C 33.07453 9.38046 0.04381
C 31.96147 8.51707 0.02806
C 31.83258 7.08137 0.01504
C 33.09999 6.4574 -0.00069
C 33.05761 4.98785 0.04926
C 31.84625 4.21055 -0.03838
C 31.89147 2.83931 0.00349
C 33.08207 2.0687 -0.00323
C 33.1143 0.67063 -0.00841
C 31.89644 34.05738 0.0001
C 34.3699 32.68025 -0.02927
C 1.16889 32.02367 -0.01404
C 1.15185 30.60678 0.01027
C 34.36758 29.89224 0.01831
C 34.32278 28.45814 -0.01037
C 1.17953 27.68792 -0.00439
C 1.15032 26.28193 -0.00598
C 28.25189 10.57438 0.04266
C 27.15834 11.44221 0.01177
C 27.60342 12.96912 -0.00416
C 28.23832 26.25353 0.01699
C 19.64845 29.68436 0.01852
C 19.6454 28.25683 -0.00381
C 20.93483 27.57713 0.03046
C 21.06708 26.03867 0.0296
C 19.81109 25.4254 0.03374
C 19.84361 15.60631 -0.02845
C 20.82071 14.94817 -0.03213
C 20.99524 13.48972 0.02239
C 19.80354 12.8406 0.01153
C 20.85822 30.40555 0.01126
C 19.70189 11.37426 0.02734
C 20.83289 9.24443 0.01515
C 19.60724 8.53306 -0.00225
C 19.65295 7.10392 0.00071
C 20.83948 6.35844 -0.01107
C 20.79567 4.90848 -0.01586
C 19.57545 4.23775 -0.01971
C 19.54782 2.80583 -0.02118
C 20.79771 2.1088 0.00733
C 20.72841 0.66509 -0.00178
C 20.97849 10.66648 -0.0055
C 20.78277 31.82576 -0.01185
C 19.55263 32.532 -0.01662
C 17.17352 33.98039 -0.00478
C 17.25198 28.28502 -0.04422
C 18.42478 27.52275 0.00654
C 18.45814 26.04363 -0.00703
C 17.23128 25.3127 -0.04076
C 17.25819 23.97909 -0.00652
C 17.30069 17.10524 0.0058
C 17.22689 15.74046 -0.00865
C 18.38795 14.945 0.00675
C 18.51694 13.4783 -0.00311
C 17.26999 12.80174 0.00742
C 17.27599 11.31178 -0.01594
C 18.4888 10.716 0.0106
C 18.44257 9.28028 -0.01154
C 17.19072 8.53128 -0.01721
C 17.21184 7.15101 -0.02422
C 18.32278 6.44123 0.01277
C 18.34099 4.91594 0.00096
C 17.08141 4.30348 -0.01527
C 17.0935 2.83758 0.01087
C 18.32302 2.09898 0.00199
C 18.3556 0.63939 0.01511
C 19.53231 33.93659 0.00768
C 3.6773 32.04897 -0.04999
C 21.94376 32.63717 -0.0276
C 23.274 30.48318 -0.04078
C 25.40347 26.21018 -0.0032
C 24.50346 12.75652 0.00622
C 24.69747 11.34953 -0.02815
C 25.89678 10.75731 -0.00942
C 25.90379 9.29078 0.00487
C 24.59929 8.49698 0.00826
C 24.58208 7.02624 -0.00294
C 25.71468 6.34066 0.00152
C 25.83902 4.92763 0.01257
C 25.77139 27.58202 -0.00037
C 24.54354 4.15313 0.02316
C 25.7616 2.01837 0.00194
C 25.75489 0.60875 -0.00621
C 24.53302 34.00966 0.02611
C 26.98828 32.61372 0.02198
C 28.25584 31.95334 0.01094
C 28.24706 30.52724 0.00235
C 26.96301 29.77778 0.01495
C 27.04277 28.33292 0.01259
C 28.23405 27.63304 0.01799
C 24.54304 2.69721 0.04185
C 24.60246 28.35842 -0.01654
C 24.55818 29.8016 -0.00218
C 25.78988 30.49396 -0.00802
C 22.1013 29.70464 0.02117
C 22.14626 28.21548 0.02737
C 23.38755 27.55434 -0.00498
C 23.63694 26.16358 0.00135
C 22.34074 25.54085 0.03102
C 23.63195 13.52573 0.02555
C 22.29885 12.84817 0.01423
C 22.28632 11.33024 -0.00285
C 23.45053 10.67359 -0.009
C 23.39363 9.25327 -0.01199
C 22.08078 8.50508 -0.00229
C 22.06499 7.03328 -0.00938
C 23.28764 6.37343 -0.0264
C 23.386 4.86439 -0.01154
C 22.02804 4.16534 0.00684
C 22.02286 2.72553 -0.01052
C 23.27127 2.05696 -0.01679
C 23.21376 0.67334 0.00367
C 21.93838 34.04406 0.04306
C 24.4823 32.60742 0.00996
C 25.70568 31.95965 0.00195
C 23.24307 31.9363 0.03005
C 2.43328 32.74825 -0.03291
