424
Graphene
C 34.3818 33.99882 0.01295
C 12.35731 25.66544 0.00572
C 12.36488 24.1302 0.03592
C 13.57132 23.45892 0.00406
C 13.52343 22.03568 0.00943
C 12.20873 21.28365 0.02841
C 12.31889 19.87669 -0.01111
C 13.59638 19.25962 -0.01275
C 13.48621 17.80318 0.00985
C 12.26663 17.17809 -0.02245
C 12.21307 15.71719 -0.00428
C 13.60661 26.29037 0.0402
C 13.33589 14.90383 0.03101
C 12.2233 12.69473 -0.02689
C 12.27152 11.30705 -0.01046
C 13.54619 10.53802 -0.00891
C 13.44737 9.2103 0.02819
C 12.16904 8.57115 0.00165
C 12.34175 7.08579 -0.02971
C 13.4749 6.36085 0.02894
C 13.54171 4.94021 -0.01789
C 12.27572 4.23989 0.00444
C 12.2274 2.88867 -0.00925
C 13.44686 13.38723 -0.01536
C 13.58991 27.71186 -0.02759
C 12.2889 28.49631 0.03589
C 12.25789 29.88627 -0.00033
C 9.86074 19.8646 -0.01384
C 11.08355 19.186 0.03693
C 11.06934 17.73165 0.01745
C 9.8361 17.06828 0.00488
C 9.79854 15.64144 -0.01004
C 11.02273 14.92191 -0.02896
C 11.06921 13.541 -0.00131
C 9.84682 12.69428 -0.01118
C 9.80307 11.36759 -0.014
C 11.06232 10.61181 0.02147
C 10.97018 9.21218 0.00373
C 9.73859 8.47576 -0.00191
C 9.8087 7.13245 0.00438
C 11.02875 6.38312 0.01291
C 11.0299 5.07038 0.00093
C 9.83998 4.32763 0.00057
C 9.69118 2.86433 -0.01634
C 10.91077 2.12895 -0.00334
C 10.99223 0.76284 0.02339
C 9.70543 0.05467 0.01641
C 12.21529 32.74548 -0.00719
C 13.43798 31.97595 0.01364
C 13.48762 30.64647 -0.01062
C 13.45287 2.13954 0.01877
C 9.88561 21.30986 -0.00482
C 13.51563 0.73467 0.01363
C 14.80622 32.74136 0.00415
C 16.08031 0.64332 0.0351
C 14.78963 0.1 -0.03113
C 17.30707 32.57037 0.02098
C 18.4978 31.92728 0.01848
C 18.47377 30.48935 -0.00619
C 17.21159 29.86515 -0.02162
C 17.17071 28.52238 0.00889
C 18.30487 27.59553 -0.00481
C 18.26108 17.75765 0.00979
C 17.11359 17.01374 0.01443
C 15.96546 2.08979 0.00422
C 17.12481 15.56617 0.03505
C 18.3918 13.57295 -0.04147
C 17.22741 12.73574 -0.05302
C 17.20806 11.31437 0.00213
C 18.45764 10.63886 -0.00066
C 18.39799 9.23331 -0.00289
C 17.16018 8.51716 0.00028
C 17.14129 7.09027 -0.02213
C 18.38543 6.43477 0.03698
C 18.46183 5.00393 -0.00109
C 17.20831 4.20827 -0.00491
C 18.3282 14.99136 -0.02815
C 14.71423 2.82363 0.00798
C 14.7579 4.2627 0.00228
C 16.01565 4.97054 -0.00114
C 15.99115 31.97863 -0.0014
C 15.9615 30.60641 0.02162
C 14.71258 29.86033 0.0076
C 14.74497 28.46179 0.01241
C 15.97382 27.86296 -0.01454
C 16.04936 26.50444 0.01945
C 14.84543 25.62424 0.01416
C 14.81914 24.17948 0.03542
C 14.77608 21.3425 0.02299
C 14.92614 20.00597 0.00244
C 15.99493 19.1067 -0.01717
C 15.90982 17.6952 0.05265
C 14.68268 17.01674 -0.01952
C 14.58759 15.53437 -0.02813
C 15.89458 14.77471 0.00374
C 15.96052 13.33227 0.00052
C 14.67789 12.78164 -0.03682
C 14.68413 11.34428 0.01965
C 15.95591 10.63462 0.02058
C 15.93068 9.13738 -0.01957
C 14.70419 8.46883 -0.0108
C 14.74033 7.00161 -0.00368
C 15.9998 6.35462 -0.02696
C 12.23092 0.12254 -0.02162
C 17.26552 2.69203 0.03338
C 11.06724 22.02232 0.02888
C 9.93724 24.21839 0.00895
C 3.63914 2.11985 -0.01979
C 3.57897 0.70615 0.02784
C 2.35528 34.06847 -0.01977
C 4.88788 32.75082 -0.00561
C 6.08581 32.0104 0.00208
C 6.14196 30.5815 0.01707
C 4.9248 29.88827 0.02769
C 4.94955 28.43262 -0.03291
C 6.1511 27.7823 -0.04999
C 6.14681 26.25413 0.04505
C 2.44076 2.86944 -0.00449
C 4.93342 25.52593 0.03284
C 6.18908 23.51973 0.03189
C 6.24145 22.09458 0.00031
C 4.94423 21.24601 -0.003
C 4.96511 19.85896 0.01402
C 6.1784 19.20121 0.02379
C 6.19889 17.77885 0.00907
C 4.91622 17.12182 0.00643
C 4.89837 15.72626 -0.01509
C 6.06476 14.93622 0.03267
C 6.17962 13.50831 0.02374
C 4.97665 24.05055 -0.04307
C 2.29833 4.28073 0.00211
C 3.50599 5.0684 0.0064
C 3.59393 6.41702 -0.00039
C 3.6376 30.55452 -0.02827
C 2.41471 29.75961 0.01078
C 2.40344 28.36696 -0.00112
C 3.67771 27.72787 0.03345
C 3.77959 26.2927 0.00748
C 2.50315 25.56514 0.00662
C 2.47285 24.09712 -0.0154
C 3.67965 23.38051 -0.01299
C 3.66881 22.01191 -0.00407
C 2.49117 21.3059 0.01138
C 2.45608 19.87704 0.03278
C 3.71959 19.18751 -0.00177
C 3.63931 17.74895 0.04421
C 2.37846 17.02472 0.00088
C 2.41424 15.59751 0.00828
C 3.66439 15.02097 -0.02375
C 3.66636 13.55959 0.00558
C 2.47732 12.78483 -0.0059
C 2.39135 11.42981 -0.01386
C 3.62575 10.7244 -0.02805
C 3.64156 9.24005 0.00081
C 2.39558 8.48057 0.00245
C 2.31201 7.11493 0.02728
C 4.85127 12.827 0.00402
C 11.12975 23.44125 0.00685
C 4.85099 11.41198 0.0073
C 6.08122 9.28195 0.03828
C 8.5913 13.47761 0.00873
C 7.35744 12.79586 -0.00049
C 7.29272 11.45057 0.00848
C 8.54813 10.65014 -0.01303
C 8.54253 9.24456 -0.01378
C 7.36423 8.524 0.02635
C 7.3101 7.1737 0.0127
C 8.48928 6.44399 0.01396
C 8.5937 5.00854 0.01849
C 7.3322 4.34646 -0.01142
C 8.62522 14.87207 0.01227
C 7.23344 2.95588 -0.00562
C 8.44137 0.78978 0.00054
C 7.19009 0.17317 0.03007
C 9.73694 32.80003 -0.00095
C 11.00572 32.0059 0.01572
C 11.05547 30.56887 -0.04848
C 9.7337 29.92601 -0.00892
C 9.82143 28.5107 -0.01362
C 11.10933 27.78483 -0.0008
C 11.09659 26.38659 0.0288
C 9.80212 25.61826 0.00393
C 8.44418 2.17039 -0.00494
C 7.46738 15.64934 -0.03337
C 7.37268 17.03185 -0.00966
C 8.61037 17.81108 -0.02929
C 4.84323 8.56308 0.01226
C 4.84827 7.22601 -0.00279
C 6.03742 6.50942 0.01996
C 6.03018 5.05414 -0.03996
C 4.8032 4.37621 0.01465
C 4.81408 2.95177 -0.00074
C 5.98793 2.28916 -0.00518
C 5.93608 0.82765 0.0086
C 4.83631 0.11261 -0.00643
C 7.33037 32.77132 0.017
C 8.53801 32.11085 -0.03113
C 8.51891 30.65893 -0.02566
C 7.39261 29.8891 -0.00094
C 7.33828 28.50764 0.02322
C 8.57266 27.77977 -0.00725
C 8.54697 26.38371 -0.05697
C 7.3853 25.5999 0.01087
C 7.45976 24.24969 -0.01343
C 8.78556 23.49816 0.00988
C 8.64968 22.0872 0.0276
C 7.41427 21.38967 0.01305
C 7.33481 19.90246 -0.00077
C 8.63207 19.15573 0.03368
C 6.1381 10.67705 0.0174
C 18.50983 2.09698 -0.0258
C 18.51652 0.67561 -0.0331
C 17.31283 34.0234 -0.00316
C 29.562 11.37602 -0.02155
C 30.67408 10.57601 -0.00944
C 30.66733 9.1719 -0.03735
C 29.44369 8.51292 -0.00971
C 29.4971 7.10982 0.01518
C 30.7224 6.36615 0.01908
C 30.66638 4.9643 0.07705
C 29.45422 4.10842 0.0103
C 29.49681 2.778 0.02108
C 30.74722 1.99525 0.00716
C 29.5767 12.79522 -0.01461
C 30.71204 0.62017 0.00307
C 31.9396 32.55246 0.01713
C 33.19931 31.82595 -0.01694
C 33.19354 30.43781 0.01428
C 31.94813 29.72454 -0.02142
C 32.00621 28.28364 0.0544
C 33.16796 27.55553 0.00026
C 33.12972 26.24196 0.00682
C 31.90095 25.53017 -0.01779
C 31.8853 24.15024 0.03794
C 33.1746 23.41829 0.01927
C 29.51416 33.99169 0.00346
C 30.76715 13.52294 -0.01303
C 30.74475 14.95421 -0.0405
C 29.49158 15.59549 0.01705
C 28.27895 6.4217 0.01094
C 28.17679 4.89669 0.00235
C 26.99223 4.23388 0.01495
C 27.03836 2.84287 0.01259
C 28.26808 2.13223 0.01799
C 28.27298 0.68636 0.01699
C 27.05208 0.01136 -0.00416
C 29.58702 32.60161 0.01177
C 30.73116 31.80581 0.04266
C 30.73249 30.41102 0.01324
C 29.54232 29.66553 0.0014
C 29.51022 28.35291 0.00924
C 30.78701 27.63177 0.02326
C 30.69338 26.19497 0.00261
C 29.38098 25.49637 0.03265
C 29.4493 24.15278 -0.02049
C 30.72392 23.43547 -0.01854
C 30.65932 22.033 -0.01415
C 29.47014 21.29377 -0.03039
C 29.40265 19.93212 0.01836
C 30.61091 19.19667 0.03531
C 30.67288 17.77707 -0.00669
C 29.48131 17.06778 0.0101
C 33.10954 21.98185 0.01574
C 27.05987 7.11279 0.02198
C 31.90546 21.29075 -0.02383
C 33.18919 19.20365 -0.0136
C 1.16847 23.43429 0.00723
C 1.2539 21.97915 0.02712
C 0.03101 21.28017 -0.02213
C 0.01192 19.8768 0.01951
C 1.2662 19.1385 -0.01678
C 1.22226 17.75999 0.01223
C 0.00046 17.07326 0.00648
C 34.4143 15.65383 0.02114
C 1.17656 14.99177 -0.02957
C 1.17624 13.50393 0.00343
C 34.40457 24.15421 0.03076
C 34.33577 12.79437 -0.02656
C 1.06399 10.68546 -0.00027
C 1.20369 9.19459 -0.00583
C 34.35913 8.4946 -0.02302
C 34.28609 6.9806 -0.02849
C 1.14008 6.35204 0.02931
C 1.07948 4.97434 0.00628
C 34.32579 4.26075 -0.0345
C 34.4053 2.84012 -0.00931
C 1.18213 2.07522 -0.00939
C 1.14065 0.69612 -0.00468
C 34.31863 11.37848 -0.02442
C 34.37533 25.54043 -0.05239
C 1.15593 26.29609 -0.00598
C 1.23042 27.67105 -0.00439
C 33.17952 17.77588 0.00594
C 31.98259 17.13086 -0.02474
C 31.94843 15.76285 0.00369
C 33.22097 14.99413 0.00455
C 33.15178 13.57394 -0.00644
C 31.93883 12.81974 -0.01839
C 31.90174 11.44977 0.00137
C 33.13352 10.63334 0.00199
C 33.17574 9.23532 0.04381
C 31.95589 8.47502 0.02806
C 31.91177 7.14116 0.01504
C 33.10552 6.31084 -0.00069
C 33.07535 4.95011 0.04926
C 31.89769 4.17937 -0.03838
C 32.01106 2.73799 0.00349
C 33.19355 2.06168 -0.00323
C 33.12117 0.65212 -0.00841
C 31.93061 34.01135 0.0001
C 0.02822 32.58218 -0.02927
C 1.27233 31.90834 -0.01404
C 1.25577 30.49262 0.01027
C 0.04839 29.7472 0.01831
C 0.02571 28.34057 -0.01037
C 31.8987 19.89604 -0.01429
C 27.06986 8.50784 0.02611
C 28.26873 9.2773 -0.00621
C 28.20204 10.69119 0.00194
C 22.18666 29.83323 0.00742
C 22.1629 28.39463 -0.01594
C 23.3821 27.6599 0.0106
C 23.19651 26.28418 -0.01154
C 23.14199 19.08487 -0.01721
C 23.35249 17.76055 -0.02422
C 22.09977 17.03783 0.01277
C 22.10702 15.58104 0.00096
C 23.32594 14.78686 -0.01527
C 23.30874 13.41107 0.01087
C 23.38363 30.52267 -0.00311
C 22.11548 12.90749 0.00199
C 23.2894 10.75071 -0.00478
C 23.28358 9.29973 -0.01662
C 22.09168 8.53665 -0.01185
C 22.12959 7.14218 0.01126
C 23.35973 6.45852 0.01852
C 23.39858 5.03898 -0.00381
C 22.12018 4.34182 0.03046
C 22.16136 2.87948 0.0296
C 23.36917 2.07294 0.03374
C 23.44507 0.73786 -0.02845
C 22.05525 11.41678 0.01511
C 23.41982 31.95436 0.00675
C 22.12331 32.594 -0.00865
C 19.82846 0.03919 0.0058
C 19.64264 32.61193 0.02188
C 20.895 31.90579 -0.01979
C 20.79283 30.43078 0.02691
C 19.69748 29.69455 -0.01581
C 19.57192 28.14 0.01452
C 20.94364 27.64125 0.04892
C 20.89733 17.70759 -0.00111
C 19.57261 17.28806 -0.03557
C 19.52397 15.79661 0.03754
C 20.8023 15.00826 0.01739
C 20.83605 13.55836 0.00755
C 19.65239 12.80386 -0.0054
C 19.64514 11.37306 0.00667
C 20.9037 10.66418 0.00143
C 20.84585 9.28833 -0.017
C 19.6208 8.51467 0.00364
C 19.60715 7.12523 -0.00831
C 20.83015 6.47191 -0.02957
C 20.89081 5.00463 -0.04422
C 19.67283 4.40998 0.00654
C 19.6794 2.92912 -0.00703
C 20.97529 2.27669 -0.04076
C 21.01273 0.77156 -0.00652
C 22.15638 33.9573 -0.03213
C 24.65139 32.66402 0.02239
C 25.87923 31.9266 0.01153
C 25.83813 30.49193 0.02734
C 25.76832 0.69082 -0.01154
C 24.63045 34.06016 0.00684
C 27.06828 32.63145 -0.01052
C 28.34433 31.88734 -0.01679
C 28.2818 30.46844 0.00367
C 27.07992 29.6843 0.04306
C 27.00058 28.30105 0.00996
C 28.26814 27.54216 0.00195
C 28.17963 26.19175 -0.00802
C 26.91789 25.52829 -0.00218
C 26.97232 24.16777 -0.01654
C 28.17081 23.43879 -0.00037
C 28.25201 21.95427 -0.0032
C 26.96363 21.26155 0.00622
C 26.89206 19.88173 -0.02815
C 28.17728 19.16671 -0.00942
C 28.20585 17.74715 0.00487
C 27.02768 17.04221 0.00826
C 27.01905 15.61331 -0.00294
C 28.28966 14.90148 0.00152
C 28.32966 13.47344 0.01257
C 27.04993 12.89125 0.02316
C 27.04356 11.44064 0.04185
C 25.68977 2.14449 -0.0264
C 3.67747 31.94158 -0.01471
C 24.56089 2.89836 -0.00938
C 25.84128 5.027 -0.01199
C 24.61176 29.8354 -0.0055
C 24.63589 28.41333 0.01515
C 25.83465 27.55885 -0.00225
C 25.57388 26.15099 0.00071
C 24.24353 25.34421 -0.01107
C 24.50056 23.93044 -0.01586
C 25.72692 23.40006 -0.01971
C 25.71123 21.92295 -0.02118
C 24.36856 21.33618 0.00733
C 24.28361 19.96187 -0.00178
C 25.64342 19.25876 0.00768
C 25.72966 17.77626 -0.0276
C 24.53363 16.96623 0.03005
C 24.54907 15.63969 -0.04078
C 25.75016 14.91621 0.02117
C 25.80843 13.50739 0.02737
C 24.5774 12.8274 -0.00498
C 24.53873 11.36828 0.00135
C 25.77647 10.71716 0.03102
C 25.79238 9.28867 0.02555
C 24.54465 8.61354 0.01423
C 24.61192 7.15936 -0.00285
C 25.80038 6.48376 -0.009
C 24.57317 4.32253 -0.00229
C 2.44248 32.6796 0.01218
