345
Graphene
C 34.36738 0.01456 0.01295
C 18.2968 9.18502 0.02098
C 17.01588 8.38003 0.01848
C 17.13841 6.90532 -0.00619
C 18.42672 6.33959 -0.02162
C 18.39495 4.95558 0.00889
C 17.08512 4.32239 -0.00481
C 17.10023 2.89106 0.00979
C 18.38761 2.25621 0.01443
C 18.47777 0.80117 0.03505
C 17.22626 0.16954 -0.02815
C 19.76569 32.74699 -0.04147
C 20.96597 31.9466 -0.05302
C 20.93081 30.53845 0.00213
C 19.65216 29.772 -0.00066
C 19.62685 28.45208 -0.00289
C 20.86796 27.71128 0.00028
C 20.83741 26.26799 -0.02213
C 18.34674 10.63982 -0.03113
C 17.24206 11.32068 0.0351
C 17.23344 12.7991 0.00422
C 18.46617 13.51919 0.00798
C 15.95564 10.51414 0.03542
C 15.79109 9.11941 0.02299
C 15.91906 5.09202 0.00244
C 14.72931 4.46079 -0.01717
C 14.7135 3.01199 0.05265
C 15.91084 2.25084 -0.01952
C 15.91778 0.80286 -0.02813
C 14.67453 34.06441 0.00374
C 19.70083 25.32022 0.03698
C 17.25292 32.78971 0.00052
C 18.47814 30.67006 0.01965
C 18.21713 21.98359 0.02058
C 17.01956 19.9802 -0.01957
C 18.36053 19.27313 -0.0108
C 18.41666 17.83363 -0.00368
C 17.24062 17.12179 -0.02696
C 17.24452 15.62788 -0.00114
C 18.40916 14.87115 0.00228
C 18.49217 31.97626 -0.03682
C 14.9138 11.57547 0.01416
C 19.60382 24.14349 -0.00109
C 20.77659 21.90141 0.03338
C 23.44057 31.84642 0.00654
C 23.34885 30.43704 -0.00703
C 22.1195 29.68248 -0.04076
C 22.13941 28.3328 -0.00652
C 23.40705 27.70996 0.0058
C 23.2749 26.21847 -0.00865
C 22.0281 25.54052 0.00675
C 22.02388 24.18807 -0.00311
C 23.30984 23.45225 0.00742
C 23.33471 22.06417 -0.01594
C 22.03404 21.36217 0.0106
C 22.05018 19.91828 -0.01154
C 23.3113 19.25461 -0.01721
C 23.37157 17.73972 -0.02422
C 22.1363 17.05019 0.01277
C 22.11726 15.67829 0.00096
C 23.35289 14.95049 -0.01527
C 22.15306 32.63962 -0.04422
C 19.63596 0.02236 -0.02957
C 20.90732 0.6641 -0.00831
C 20.84356 2.06121 0.00364
C 19.45909 21.35004 -0.0258
C 19.5972 19.92127 -0.0331
C 20.785 19.15483 -0.00316
C 20.87582 17.75106 0.02188
C 19.66926 17.04968 -0.01979
C 19.65868 15.61929 0.02691
C 20.90377 14.87298 -0.01581
C 20.87101 13.47087 0.01452
C 20.80907 23.32395 -0.00491
C 19.6903 12.71988 0.04892
C 20.93226 10.60288 -0.03557
C 20.88553 9.21137 0.03754
C 19.56372 8.54816 0.01739
C 19.63683 7.09745 0.00755
C 20.86569 6.30677 -0.0054
C 20.88126 4.86681 0.00667
C 19.50985 4.18659 0.00143
C 19.61662 2.85114 -0.017
C 19.66599 11.28002 -0.00111
C 14.81853 13.01398 0.01945
C 16.03862 13.51819 -0.01454
C 15.98027 14.94261 0.01241
C 6.22724 30.46655 0.00393
C 4.89564 29.79102 0.00895
C 4.76465 28.39142 0.00685
C 6.06058 27.6989 0.02888
C 6.0238 10.69476 -0.00482
C 6.07421 9.28067 -0.01384
C 4.86395 8.44225 0.03693
C 4.94051 7.11426 0.01745
C 6.12828 6.47364 0.00488
C 6.18301 5.00452 -0.01004
C 4.92382 4.35004 -0.02896
C 4.88394 2.92965 -0.00131
C 6.1072 2.23957 -0.01118
C 6.11217 0.70064 -0.014
C 4.94807 34.05352 0.02147
C 7.30942 32.64266 0.00373
C 8.54478 31.94391 -0.00191
C 6.16009 31.85619 0.0288
C 4.97921 32.61697 -0.0008
C 2.47519 0.00904 -0.01362
C 3.73917 0.69453 -0.00892
C 3.69132 30.46853 0.01227
C 2.39745 29.80614 0.00873
C 2.30751 28.4643 -0.00049
C 3.57478 27.72975 0.00848
C 3.62803 26.31246 -0.01303
C 2.46244 25.55976 -0.01378
C 2.19008 24.26754 0.02635
C 2.44257 12.5601 0.0127
C 8.86746 30.45769 0.00438
C 2.53658 11.23305 0.01396
C 3.66386 9.21263 -0.01142
C 2.39647 8.44746 -0.00562
C 2.45289 7.0523 -0.00494
C 3.6883 6.40443 0.00054
C 3.70168 4.95767 0.03007
C 2.4733 4.24311 -0.00095
C 2.46128 2.87066 0.01572
C 3.76251 2.11084 -0.04848
C 3.84361 10.55144 0.01849
C 7.52579 29.79986 0.01291
C 7.05987 28.35201 0.00093
C 8.30217 10.79829 0.00057
C 9.80203 0.05974 -0.01536
C 12.10134 32.4871 -0.02689
C 13.44722 32.06692 -0.01046
C 14.56278 18.39367 -0.00891
C 13.63975 13.7714 0.02819
C 12.43352 11.57263 0.00165
C 13.60457 11.0622 -0.02971
C 12.21506 4.28485 0.02894
C 11.03585 0.70471 0.03101
C 12.26382 2.93124 -0.01789
C 13.47868 0.7699 -0.00925
C 12.22548 34.00561 0.01877
C 14.74352 32.54495 0.01363
C 16.09932 31.93524 -0.02162
C 15.91815 19.18295 0.00415
C 16.11602 17.835 -0.0014
C 14.78076 17.00016 0.02162
C 14.75713 15.68739 0.0076
C 13.42971 2.15227 0.00444
C 23.30728 13.54303 0.01087
C 11.04311 2.23532 -0.00428
C 9.81264 4.31756 0.00985
C 8.53535 9.34224 -0.01634
C 7.37742 8.58668 -0.00334
C 7.34359 7.21769 0.02339
C 8.66007 6.44656 0.01641
C 8.57336 5.08974 -0.00719
C 7.38494 4.34636 0.01364
C 7.36478 2.88614 -0.01062
C 8.58789 2.19477 -0.00033
C 9.85198 2.9243 -0.02245
C 8.57816 0.76162 0.03589
C 9.76143 32.65859 0.0402
C 10.79529 31.69214 0.00572
C 10.33602 30.48395 0.03592
C 11.27929 10.71733 0.00406
C 10.64709 9.66476 0.00943
C 9.72083 8.57204 0.02841
C 9.92347 7.14603 -0.01111
C 11.09208 5.01939 -0.01275
C 7.3045 0.0423 -0.02759
C 3.68604 31.88763 -0.03337
C 22.05882 12.8005 0.00199
C 23.31603 10.67305 -0.00478
C 31.98132 29.79355 -0.02142
C 31.94937 28.38156 0.0544
C 33.18366 27.67681 0.00026
C 33.17131 26.22351 0.00682
C 31.84952 25.51459 -0.01779
C 31.90264 24.15073 0.03794
C 33.18062 23.44131 0.01927
C 33.1629 22.0598 0.01574
C 31.9163 21.28901 -0.02383
C 31.98433 19.86364 -0.01429
C 33.25991 19.20544 -0.0136
C 33.2741 17.72333 0.00594
C 32.00652 17.14673 -0.02474
C 31.90175 15.69077 0.00369
C 33.15626 14.90963 0.00455
C 33.2652 13.53194 -0.00644
C 31.94215 12.78343 -0.01839
C 33.11916 30.55373 0.01428
C 33.15396 31.92422 -0.01694
C 31.99036 32.70222 0.01713
C 29.50547 0.01574 0.00346
C 30.76562 19.24584 0.03531
C 30.79254 17.81744 -0.00669
C 29.50155 17.15602 0.0101
C 29.44484 15.74692 0.01705
C 30.73493 14.93476 -0.0405
C 30.75448 13.5422 -0.01303
C 29.44476 12.80013 -0.01461
C 29.46305 11.34839 -0.02155
C 31.93038 11.35484 0.00137
C 30.67287 10.6506 -0.00944
C 29.44858 8.58484 -0.00971
C 29.42168 7.10448 0.01518
C 30.70274 6.3247 0.01908
C 30.75435 4.91082 0.07705
C 29.54046 4.22248 0.0103
C 29.45567 2.78231 0.02108
C 30.72202 2.18699 0.00716
C 30.75754 0.76532 0.00307
C 30.68637 9.17972 -0.03735
C 29.53051 19.9591 0.01836
C 33.19006 10.69146 0.00199
C 32.01799 8.44922 0.02806
C 1.22309 17.83781 0.01223
C 34.42496 16.97593 0.00648
C 34.39974 15.49632 0.02114
C 1.05009 14.80688 -0.02957
C 1.33647 13.37832 0.00343
C 0.04951 12.75242 -0.02656
C 0.03312 11.41106 -0.02442
C 1.241 10.57368 -0.00027
C 1.14917 9.23852 -0.00583
C 34.3607 8.5549 -0.02302
C 0.00756 7.0475 -0.02849
C 1.28438 6.38543 0.02931
C 1.21409 5.02502 0.00628
C 0.01348 4.29933 -0.0345
C 0.05527 2.83542 -0.00931
C 1.25995 2.19412 -0.00939
C 1.19284 0.7155 -0.00468
C 1.11379 19.03556 -0.01678
C 34.37531 19.94643 0.01951
C 34.33813 21.41348 -0.02213
C 1.22999 21.92835 0.02712
C 31.98769 7.06362 0.01504
C 33.17615 6.29967 -0.00069
C 33.18639 4.9373 0.04926
C 31.94298 4.2375 -0.03838
C 31.99789 2.81656 0.00349
C 33.25554 2.13561 -0.00323
C 33.19545 0.72533 -0.00841
C 31.9658 34.06672 0.0001
C 33.16993 9.2612 0.04381
C 0.00178 32.68027 -0.02927
C 1.14863 30.55126 0.01027
C 34.35777 29.87069 0.01831
C 34.37242 28.30631 -0.01037
C 1.15458 27.65353 -0.00439
C 1.18365 26.27339 -0.00598
C 0.02175 25.56772 -0.05239
C 34.33831 24.13967 0.03076
C 1.10515 23.39741 0.00723
C 1.26219 31.95809 -0.01404
C 29.4228 21.3259 -0.03039
C 30.72088 21.93625 -0.01415
C 30.71088 23.46624 -0.01854
C 24.53307 19.92009 -0.00178
C 25.81007 19.20922 0.00768
C 25.84857 17.8088 -0.0276
C 24.59859 17.07818 0.03005
C 24.60169 15.67801 -0.04078
C 25.87333 14.93842 0.02117
C 25.83171 13.47501 0.02737
C 24.56814 12.78759 -0.00498
C 24.58558 11.37712 0.00135
C 25.84781 10.60798 0.03102
C 25.87155 9.23962 0.02555
C 24.61154 8.54981 0.01423
C 24.55136 7.12332 -0.00285
C 25.767 6.36476 -0.009
C 25.79558 4.90955 -0.01199
C 24.59127 4.24379 -0.00229
C 24.53637 2.7764 -0.00938
C 24.58125 21.27597 0.00733
C 25.77053 22.02657 -0.02118
C 25.76633 23.4798 -0.01971
C 24.56009 24.18618 -0.01586
C 23.3943 9.23519 -0.01662
C 22.09222 8.51307 -0.01185
C 22.10366 7.09855 0.01126
C 23.39475 6.4338 0.01852
C 23.26344 4.96225 -0.00381
C 22.10744 4.23805 0.03046
C 22.03994 2.83148 0.0296
C 23.29901 2.07854 0.03374
C 25.79225 2.07333 -0.0264
C 23.3727 0.65453 -0.02845
C 24.62876 32.61564 0.02239
C 25.88149 31.93428 0.01153
C 25.90011 30.48463 0.02734
C 24.65604 29.77765 -0.0055
C 24.64553 28.40154 0.01515
C 25.7899 27.64798 -0.00225
C 25.82239 26.24372 0.00071
C 24.56599 25.61521 -0.01107
C 22.14774 34.06722 -0.03213
C 25.79367 0.62372 -0.01154
C 24.57092 34.04259 0.00684
C 27.10437 32.61761 -0.01052
C 27.02772 8.52996 0.02611
C 27.00987 7.10796 0.02198
C 28.2529 6.40769 0.01094
C 28.27372 4.98623 0.00235
C 27.02208 4.24386 0.01495
C 26.97907 2.85105 0.01259
C 28.18874 2.12983 0.01799
C 28.32488 0.67216 0.01699
C 28.25522 9.26582 -0.00621
C 27.12325 34.05286 -0.00416
C 30.7392 31.98803 0.04266
C 30.79901 30.4917 0.01324
C 29.48594 29.80845 0.0014
C 29.45139 28.42686 0.00924
C 30.75345 27.64827 0.02326
C 30.77562 26.25774 0.00261
C 29.47978 25.58338 0.03265
C 29.47984 24.20346 -0.02049
C 29.56289 32.66331 0.01177
C 22.0539 11.31047 0.01511
C 28.29787 10.70553 0.00194
C 26.98592 12.81065 0.02316
C 28.27804 31.94518 -0.01679
C 28.32648 30.47065 0.00367
C 27.10214 29.70553 0.04306
C 27.06505 28.32814 0.00996
C 28.25294 27.72456 0.00195
C 28.29452 26.22986 -0.00802
C 27.04282 25.52951 -0.00218
C 27.03339 24.13103 -0.01654
C 27.00501 11.4344 0.04185
C 28.24982 23.45276 -0.00037
C 27.03936 21.30025 0.00622
C 27.01012 19.90713 -0.02815
C 28.27281 19.17595 -0.00942
C 28.25869 17.82272 0.00487
C 27.03127 17.12505 0.00826
C 27.02343 15.63757 -0.00294
C 28.27015 15.05208 0.00152
C 28.23756 13.56326 0.01257
C 28.25714 22.04471 -0.0032
C 2.48097 32.66124 -0.00966
