441
Graphene
C 34.42992 33.9881 0.01295
C 13.44382 19.29445 -0.01634
C 13.49272 17.73455 -0.00334
C 12.25261 17.04295 0.02339
C 12.22219 15.66305 0.01641
C 13.50255 14.98288 -0.00719
C 13.42374 13.55496 0.01364
C 12.30933 12.83205 -0.01062
C 12.3153 11.40308 -0.00033
C 13.54028 10.75877 0.03589
C 13.50715 9.24377 -0.02759
C 12.2658 8.53121 0.0402
C 12.26693 7.11655 0.00572
C 13.44485 6.36733 0.03592
C 13.4932 4.96754 0.00406
C 12.27988 4.25806 0.00943
C 12.24627 2.93275 0.02841
C 13.48718 2.16892 -0.01111
C 13.47284 0.78365 -0.01275
C 12.17051 0.06508 0.00985
C 14.67105 32.60804 -0.02245
C 15.94263 31.93376 -0.00428
C 15.96566 30.58562 0.03101
C 14.7369 29.89216 -0.01536
C 12.25462 19.8607 0.00057
C 12.29189 21.35972 0.00093
C 13.43556 22.11928 0.01291
C 13.51568 23.5002 0.00438
C 10.99133 15.00827 -0.00095
C 11.00015 13.52756 0.01572
C 9.79156 12.8005 -0.04848
C 9.83269 11.40062 -0.00892
C 11.03101 10.71769 -0.01362
C 11.12399 9.35347 -0.0008
C 9.91896 8.5696 0.0288
C 9.85654 7.19714 0.00393
C 11.13007 6.40225 0.00895
C 11.04339 5.00878 0.00685
C 9.81277 4.31354 0.02888
C 14.7444 28.51499 -0.02689
C 9.7381 2.87226 -0.00482
C 10.95047 0.77546 0.03693
C 9.7713 0.03159 0.01745
C 12.21397 32.73825 0.00488
C 13.37338 31.9277 -0.01004
C 13.43749 30.5418 -0.02896
C 12.25362 29.80541 -0.00131
C 12.29698 28.29539 -0.01118
C 13.50028 27.68427 -0.014
C 13.52897 26.31418 0.02147
C 12.25389 25.66983 0.00373
C 12.24676 24.21653 -0.00191
C 10.96357 2.174 -0.01384
C 9.76742 15.71728 0.03007
C 16.0083 27.67481 -0.01046
C 14.77601 25.54429 0.02819
C 17.24033 28.2711 0.02058
C 18.4352 27.68852 -0.01957
C 18.48109 26.2905 -0.0108
C 17.23999 25.59221 -0.00368
C 17.17347 24.22175 -0.02696
C 18.49208 23.47129 -0.00114
C 18.44233 22.06222 0.00228
C 17.10957 21.39884 0.00798
C 17.09893 19.9728 0.00422
C 18.40169 19.2067 0.0351
C 18.43587 17.77299 -0.03113
C 17.14874 17.09143 0.02098
C 17.12386 15.58999 0.01848
C 18.36589 14.92624 -0.00619
C 18.4735 13.45632 -0.02162
C 17.20853 12.7983 0.00889
C 17.17616 11.34372 -0.00481
C 18.41209 10.59753 0.00979
C 18.40454 9.23562 0.01443
C 17.18171 8.41651 0.03505
C 17.17514 7.00861 -0.02815
C 18.43527 6.35235 -0.04147
C 18.46384 4.97504 -0.05302
C 17.15456 29.825 0.01965
C 18.40483 30.5008 -0.03682
C 18.35269 31.96575 0.00052
C 17.21091 32.63644 0.00374
C 14.71239 24.18535 0.00165
C 15.90712 23.52548 -0.02971
C 15.96255 22.09107 0.02894
C 14.75452 21.40992 -0.01789
C 14.70872 19.98299 0.00444
C 15.95936 19.2095 -0.00925
C 15.901 17.8263 0.01877
C 14.69294 17.15123 0.01363
C 14.70259 15.7273 -0.02162
C 15.85419 15.02087 0.00415
C 15.97369 13.57389 -0.0014
C 15.98023 26.2207 -0.00891
C 14.7268 12.85913 0.02162
C 15.92638 10.66747 0.01241
C 16.01257 9.20426 -0.01454
C 14.7283 8.50245 0.01945
C 14.65374 7.07444 0.01416
C 15.84959 6.44861 0.03542
C 15.91541 4.96149 0.02299
C 14.70603 4.19295 0.00244
C 14.72882 2.85057 -0.01717
C 15.95412 2.00013 0.05265
C 15.86378 0.5873 -0.01952
C 14.67811 33.97689 -0.02813
C 14.7463 11.41286 0.0076
C 9.74122 17.16867 0.00054
C 10.96107 17.74408 -0.00494
C 10.98813 19.14932 -0.00562
C 3.72182 0.72262 -0.00177
C 2.47057 0.07766 0.04421
C 4.94091 32.69278 0.00088
C 6.14913 31.9833 0.00828
C 5.99532 30.58515 -0.02375
C 4.78392 29.82467 0.00558
C 4.82165 28.40053 -0.0059
C 5.97749 27.69428 -0.01386
C 6.03732 26.288 -0.02805
C 4.93437 25.52213 0.00081
C 4.90005 24.06265 0.00245
C 6.02714 23.3786 0.02728
C 6.03838 22.03225 -0.00039
C 4.81373 21.37762 0.0064
C 4.82238 19.95183 0.00211
C 6.08813 19.30414 -0.00449
C 5.98986 17.8035 -0.01979
C 4.86205 17.04205 0.02784
C 4.8357 15.61417 -0.01977
C 6.10299 14.96562 -0.00561
C 6.14533 13.59303 0.00208
C 4.80461 12.76357 0.01707
C 4.89987 11.46679 0.02769
C 3.76569 2.14956 0.03278
C 2.48968 2.85974 0.01138
C 2.58616 4.26076 -0.00407
C 3.77241 5.01346 -0.01299
C 3.62185 30.5948 -0.0213
C 2.41124 29.92639 0.01116
C 2.42619 28.47059 -0.0005
C 3.63252 27.68612 -0.00018
C 3.65116 26.24438 0.01073
C 2.40243 25.47543 0.01984
C 2.42298 24.12665 0.00535
C 3.6184 23.43225 -0.00198
C 3.54461 22.06149 -0.00012
C 2.32747 21.19046 -0.04306
C 2.34057 19.86346 -0.03672
C 6.22754 10.70163 -0.03291
C 3.60204 19.14422 0.01913
C 2.41031 17.08656 0.00787
C 2.35855 15.6068 0.02426
C 3.64172 14.91611 0.01218
C 3.56208 13.46975 -0.01471
C 2.30204 12.78846 -0.02827
C 2.41108 11.31801 0.01078
C 3.69619 10.63709 -0.00112
C 3.76143 9.27272 0.03345
C 2.54718 8.57313 0.00748
C 2.51112 7.10669 0.00662
C 3.77811 6.41998 -0.0154
C 3.64613 17.68338 0.00267
C 6.1814 9.29804 -0.04999
C 4.95766 8.59442 0.04505
C 5.02084 7.15981 0.03284
C 8.59571 10.72201 0.02322
C 8.59098 9.3195 -0.00725
C 7.37671 8.62587 -0.05697
C 7.43355 7.20681 0.01087
C 8.60549 6.43809 -0.01343
C 8.69287 5.04723 0.00988
C 7.41181 4.2884 0.0276
C 7.34408 2.92033 0.01305
C 8.50784 2.16263 -0.00077
C 8.56603 0.72469 0.03368
C 7.3504 0.01161 -0.02929
C 7.4177 11.4033 -0.00094
C 9.85955 32.72817 -0.00966
C 11.03427 30.47533 0.01227
C 9.7783 29.8371 0.00873
C 9.78875 28.37694 -0.00049
C 11.04016 27.71212 0.00848
C 11.04879 26.2918 -0.01303
C 9.7397 25.59512 -0.01378
C 9.85836 24.19489 0.02635
C 11.12251 23.53966 0.0127
C 11.06722 22.12187 0.01396
C 9.82811 21.38124 0.01849
C 9.78961 19.93856 -0.01142
C 11.11183 31.98093 -0.03337
C 17.17596 4.22735 0.00213
C 7.41898 12.88579 -0.02566
C 8.51561 15.02153 0.017
C 6.25493 6.51205 -0.04307
C 6.22481 5.02909 0.03189
C 5.007 4.33683 0.00031
C 4.95052 2.90816 -0.003
C 6.13992 2.20342 0.01402
C 6.12783 0.84321 0.02379
C 4.96326 0.03959 0.00907
C 7.38121 32.71096 0.00643
C 8.53707 31.97704 -0.01509
C 8.60529 30.51978 0.03267
C 7.3926 29.87525 0.02374
C 8.63946 13.6194 -0.03113
C 7.29568 28.45503 0.00402
C 8.56141 26.33786 0.0174
C 7.33258 25.62889 0.03828
C 7.34483 24.09972 0.01226
C 8.54492 23.48689 -0.00279
C 8.59045 22.03089 0.01996
C 7.29663 21.40696 -0.03996
C 7.3446 19.95575 0.01465
C 8.53345 19.23188 -0.00074
C 8.49703 17.90934 -0.00518
C 7.2684 17.1407 0.0086
C 7.30492 15.7188 -0.00643
C 8.55316 27.75729 0.0073
C 3.6891 32.05415 -0.00374
C 17.21654 2.79443 -0.00066
C 18.38909 0.73849 0.00028
C 30.4632 14.818 -0.0405
C 30.30325 13.26656 -0.01303
C 28.91163 12.53577 -0.01461
C 29.38418 11.05182 -0.02155
C 30.64967 10.42599 -0.00944
C 30.76611 9.14062 -0.03735
C 29.53327 8.40183 -0.00971
C 29.52312 7.00638 0.01518
C 30.72822 6.35186 0.01908
C 30.87948 4.96776 0.07705
C 29.53105 4.16766 0.0103
C 29.47006 2.76748 0.02108
C 30.78305 2.10951 0.00716
C 30.79693 0.69116 0.00307
C 29.57129 0.0279 0.00346
C 31.94746 32.63465 0.01713
C 33.20523 31.94411 -0.01694
C 33.1828 30.55598 0.01428
C 31.92242 29.82662 -0.02142
C 31.98536 28.4088 0.0544
C 33.14784 27.60628 0.00026
C 33.08981 26.22782 0.00682
C 31.92404 25.563 -0.01779
C 29.22088 15.53707 0.01705
C 29.38206 16.96451 0.0101
C 30.64513 17.66212 -0.00669
C 30.6541 19.13908 0.03531
C 26.89692 15.66546 0.00194
C 28.04188 14.92843 -0.00621
C 27.60549 13.40854 0.02611
C 27.10382 7.0824 0.02198
C 28.25625 6.3992 0.01094
C 28.37508 4.9536 0.00235
C 27.10514 4.22001 0.01495
C 27.10047 2.80963 0.01259
C 28.29011 2.10825 0.01799
C 28.27519 0.74196 0.01699
C 26.98438 0.01753 -0.00416
C 31.95187 24.20519 0.03794
C 29.52021 32.67558 0.01177
C 30.66267 30.60061 0.01324
C 29.50232 29.93844 0.0014
C 29.4955 28.47756 0.00924
C 30.71882 27.74662 0.02326
C 30.65304 26.34377 0.00261
C 29.45874 25.65333 0.03265
C 29.50933 24.14823 -0.02049
C 30.75029 23.46297 -0.01854
C 30.66382 21.97147 -0.01415
C 29.48873 21.25772 -0.03039
C 29.39741 19.84735 0.01836
C 30.8131 31.93445 0.04266
C 26.95585 17.01829 0.04185
C 33.15071 23.48386 0.01927
C 31.95008 21.23885 -0.02383
C 34.33736 24.20984 0.03076
C 1.13048 23.4266 0.00723
C 1.09145 21.94165 0.02712
C 34.33468 21.29829 -0.02213
C 34.25731 19.86098 0.01951
C 1.12506 19.13122 -0.01678
C 1.17494 17.71728 0.01223
C 34.37689 17.05225 0.00648
C 34.34278 15.61283 0.02114
C 1.18321 14.861 -0.02957
C 1.04006 13.4512 0.00343
C 34.2235 12.736 -0.02656
C 34.35702 11.30626 -0.02442
C 1.11038 10.65611 -0.00027
C 1.20594 9.2105 -0.00583
C 34.42684 8.44174 -0.02302
C 0.02644 7.06264 -0.02849
C 1.2374 6.38625 0.02931
C 1.30332 4.9455 0.00628
C 0.12458 4.21831 -0.0345
C 0.06906 2.85718 -0.00931
C 1.25414 2.18965 -0.00939
C 1.21849 0.71088 -0.00468
C 0.00013 25.63989 -0.05239
C 1.2446 26.33236 -0.00598
C 1.19334 27.78486 -0.00439
C 34.38751 28.38692 -0.01037
C 31.9171 19.79891 -0.01429
C 33.14192 19.10187 -0.0136
C 33.14785 17.67539 0.00594
C 31.86512 16.9399 -0.02474
C 31.74692 15.42572 0.00369
C 33.02515 14.7241 0.00455
C 32.9176 13.36674 -0.00644
C 31.64869 12.65027 -0.01839
C 31.82513 11.22003 0.00137
C 33.16104 10.50486 0.00199
C 33.13563 9.15449 0.04381
C 33.1333 22.05247 0.01574
C 32.00302 8.34725 0.02806
C 33.20897 6.35848 -0.00069
C 33.26637 4.96037 0.04926
C 32.11093 4.23117 -0.03838
C 32.0291 2.81311 0.00349
C 33.22299 2.10327 -0.00323
C 33.23035 0.70449 -0.00841
C 32.02341 0.01943 0.0001
C 0.00674 32.59399 -0.02927
C 1.26618 32.0056 -0.01404
C 1.15687 30.56275 0.01027
C 34.36499 29.81573 0.01831
C 31.97889 6.98213 0.01504
C 28.19326 17.67155 0.02316
C 28.13141 19.20008 0.01257
C 26.95552 19.9566 0.00152
C 19.6191 4.22199 -0.00703
C 19.61807 2.8544 -0.04076
C 20.82781 2.16931 -0.00652
C 20.8409 0.63571 0.0058
C 19.55965 34.04135 -0.00865
C 22.12342 32.67093 0.00675
C 23.29105 31.91488 -0.00311
C 23.32424 30.50729 0.00742
C 22.07786 29.87078 -0.01594
C 22.07906 28.37965 0.0106
C 23.30609 27.71129 -0.01154
C 23.29084 26.3265 -0.01721
C 22.1062 25.62395 -0.02422
C 22.16085 24.16186 0.01277
C 23.28611 23.40956 0.00096
C 23.24234 21.98227 -0.01527
C 22.07487 21.23591 0.01087
C 22.06489 19.82144 0.00199
C 23.26033 19.19381 0.01511
C 23.3636 17.78171 -0.00478
C 22.1039 17.0897 -0.01662
C 22.14727 15.66631 -0.01185
C 23.36123 14.9238 0.01126
C 20.88918 4.96583 0.00654
C 20.9125 6.37576 -0.04422
C 19.63778 7.08442 -0.02957
C 19.6409 8.51088 -0.00831
C 17.15095 34.05152 -0.02213
C 19.69229 32.68047 0.03698
C 20.86301 31.99797 -0.00109
C 20.86433 30.66276 -0.00491
C 19.65083 29.81333 0.03338
C 19.65153 28.49128 -0.0258
C 20.82656 27.68386 -0.0331
C 20.86754 26.33601 -0.00316
C 19.62591 25.59431 0.02188
C 19.64443 24.16014 -0.01979
C 20.8652 23.45756 0.02691
C 23.50896 13.53243 0.01852
C 20.88323 22.04582 -0.01581
C 19.56689 19.83609 0.04892
C 20.80692 19.1413 -0.00111
C 20.83316 17.72481 -0.03557
C 19.6478 17.08785 0.03754
C 19.60048 15.61647 0.01739
C 20.93182 14.95176 0.00755
C 20.95155 13.54599 -0.0054
C 19.68875 12.69595 0.00667
C 19.68383 11.30834 0.00143
C 20.94074 10.70328 -0.017
C 20.91561 9.31964 0.00364
C 19.61315 21.31209 0.01452
C 22.21993 12.88794 -0.00381
C 22.16225 11.42241 0.03046
C 23.37994 10.71398 0.0296
C 26.14241 13.42408 -0.009
C 24.93161 12.65338 -0.01199
C 24.64537 11.3326 -0.00229
C 24.48489 8.61693 -0.00938
C 24.65872 7.19056 -0.0264
C 25.89047 6.4157 -0.01154
C 25.79092 5.02244 0.00684
C 24.58142 4.26919 -0.01052
C 24.60251 2.84188 -0.01679
C 25.80773 2.11381 0.00367
C 25.7786 0.72255 0.04306
C 25.78704 14.85216 -0.00285
C 24.49499 0.11104 0.00996
C 28.27796 31.98141 -0.00802
C 28.25697 30.57182 -0.00218
C 26.98027 29.82694 -0.01654
C 27.03767 28.49202 -0.00037
C 28.27383 27.82701 -0.0032
C 28.27941 26.39729 0.00622
C 27.10652 25.53473 -0.02815
C 27.07364 24.16086 -0.00942
C 28.28064 23.41392 0.00487
C 28.25606 21.99416 0.00826
C 27.01847 21.36042 -0.00294
C 27.01543 32.66359 0.00195
C 18.42536 2.14831 -0.00289
C 24.5309 15.58146 0.01423
C 25.75622 17.85913 0.03102
C 23.36262 9.32066 0.03374
C 22.12212 8.52391 -0.02845
C 22.11241 7.11026 -0.03213
C 23.3705 6.41836 0.02239
C 23.38793 4.9589 0.01153
C 22.0983 4.24242 0.02734
C 22.07991 2.90742 -0.0055
C 23.29076 2.1874 0.01515
C 23.31893 0.7433 -0.00225
C 22.0898 34.0674 0.00071
C 24.56839 32.72952 -0.01107
C 24.52877 16.97135 0.02555
C 25.79838 31.96403 -0.01586
C 24.60641 29.81601 -0.02118
C 24.62566 28.43013 0.00733
C 25.84376 27.766 -0.00178
C 25.79805 26.25491 0.00768
C 24.5508 25.54565 -0.0276
C 24.59877 24.10905 0.03005
C 25.76838 23.44684 -0.04078
C 25.80638 22.10708 0.02117
C 24.5875 21.30702 0.02737
C 24.62575 19.9018 -0.00498
C 25.74278 19.27477 0.00135
C 25.75164 30.53785 -0.01971
C 2.45262 32.65811 -0.00141
