436
Graphene
C 0.01413 34.00741 0.01295
C 13.45022 22.06419 0.02339
C 12.27988 21.32321 0.01641
C 12.23896 19.91049 -0.00719
C 13.53147 19.16124 0.01364
C 13.4638 17.72853 -0.01062
C 12.24469 17.08695 -0.00033
C 12.25756 15.64526 0.03589
C 13.51172 14.92975 -0.02759
C 13.51597 13.4672 0.0402
C 12.29017 12.87823 0.00572
C 12.34287 11.46381 0.03592
C 13.52796 10.66798 0.00406
C 13.49746 9.16898 0.00943
C 12.27892 8.45094 0.02841
C 12.2388 7.09119 -0.01111
C 13.53638 6.40651 -0.01275
C 13.53762 5.02197 0.00985
C 12.2626 4.33276 -0.02245
C 12.23578 2.93073 -0.00428
C 13.53101 2.16463 0.03101
C 13.48603 0.69258 -0.01536
C 12.21822 0.03122 -0.02689
C 14.66879 32.58493 -0.01046
C 13.52879 23.48223 -0.00334
C 15.93825 31.99827 -0.00891
C 12.27611 24.14985 -0.01634
C 13.50143 26.39766 0.00093
C 9.72195 17.08844 -0.00892
C 9.91426 15.6948 -0.01362
C 11.0384 14.85866 -0.0008
C 11.05056 13.53445 0.0288
C 9.86023 12.79892 0.00393
C 9.81069 11.37844 0.00895
C 11.12598 10.67049 0.00685
C 11.08818 9.20006 0.02888
C 9.79044 8.58356 -0.00482
C 9.83317 7.18092 -0.01384
C 10.97649 6.41259 0.03693
C 10.97111 5.01377 0.01745
C 9.81115 4.25671 0.00488
C 9.78095 2.91679 -0.01004
C 10.98477 2.18686 -0.02896
C 10.95168 0.74053 -0.00131
C 9.73297 34.06716 -0.01118
C 12.30143 32.65681 -0.014
C 13.47115 31.93944 0.02147
C 13.52957 30.5436 0.00373
C 12.27049 29.89766 -0.00191
C 12.24215 28.5187 0.00438
C 13.48174 27.78194 0.01291
C 12.28277 25.675 0.00057
C 15.92107 30.55867 0.02819
C 14.73508 29.78853 0.00165
C 14.7418 28.36434 -0.02971
C 18.42667 31.93447 -0.0108
C 18.38265 30.53567 -0.00368
C 17.1229 29.87103 -0.02696
C 17.14996 28.39658 -0.00114
C 18.43651 27.7047 0.00228
C 18.41896 26.25679 0.00798
C 17.19264 25.54431 0.00422
C 17.18135 24.19059 0.0351
C 18.44703 23.41222 -0.03113
C 18.31936 22.0144 0.02098
C 17.17255 21.29962 0.01848
C 17.18888 19.87765 -0.00619
C 18.47612 19.1617 -0.02162
C 18.45611 17.74901 0.00889
C 17.19366 17.06139 -0.00481
C 17.10717 15.60072 0.00979
C 18.31417 14.91919 0.01443
C 18.41599 13.50421 0.03505
C 17.16567 12.82474 -0.02815
C 17.20401 11.32884 -0.04147
C 18.45313 10.62044 -0.05302
C 18.55432 9.2239 0.00213
C 17.27107 8.57665 -0.00066
C 17.23615 32.7115 -0.01957
C 14.73275 0.01686 0.02058
C 15.96343 0.72781 0.01965
C 15.95807 2.15103 -0.03682
C 15.96555 27.67466 0.02894
C 15.95571 26.26966 -0.01789
C 14.74787 25.64981 0.00444
C 14.75297 24.2479 -0.00925
C 15.97429 23.42258 0.01877
C 15.93646 22.01426 0.01363
C 14.68753 21.3187 -0.02162
C 14.7062 19.89622 0.00415
C 15.94009 19.18958 -0.0014
C 15.91032 17.78059 0.02162
C 14.7523 17.07464 0.0076
C 11.01781 17.76604 -0.04848
C 14.77788 15.60975 0.01241
C 15.98757 13.45472 0.01945
C 14.77634 12.79935 0.01416
C 14.78445 11.40008 0.03542
C 15.90852 10.65061 0.02299
C 15.93885 9.17121 0.00244
C 14.68888 8.48979 -0.01717
C 14.73661 7.08065 0.05265
C 15.96286 6.37525 -0.01952
C 15.94432 4.95866 -0.02813
C 14.76197 4.24192 0.00374
C 14.77009 2.83996 0.00052
C 15.93359 14.89521 -0.01454
C 17.18193 7.04497 -0.00289
C 11.07103 19.16104 0.01572
C 9.9026 21.3654 0.03007
C 3.72579 2.06067 -0.02375
C 3.7318 0.669 0.00558
C 2.45699 34.01051 -0.0059
C 4.91424 32.68499 -0.01386
C 6.15523 31.90814 -0.02805
C 6.15188 30.52533 0.00081
C 4.95156 29.79776 0.00245
C 4.93056 28.41357 0.02728
C 6.19397 27.73065 -0.00039
C 6.16329 26.33782 0.0064
C 4.91182 25.55498 0.00211
C 4.95658 24.07156 -0.00449
C 6.19839 23.39709 -0.01979
C 6.1187 21.99816 0.02784
C 4.88114 21.32814 -0.01977
C 4.83848 19.96784 -0.00561
C 6.12143 19.24758 0.00208
C 6.05253 17.79308 0.01707
C 4.77655 17.05526 0.02769
C 4.83123 15.66645 -0.03291
C 6.10226 14.96912 -0.04999
C 6.05443 13.56398 0.04505
C 4.81453 12.85974 0.03284
C 2.48004 2.82947 0.00828
C 4.83529 11.49436 -0.04307
C 2.41713 4.26676 0.00088
C 3.71332 6.46107 -0.00177
C 3.76132 30.55057 0.01984
C 2.46675 29.85218 0.00535
C 2.47761 28.43404 -0.00198
C 3.67175 27.61252 -0.00012
C 3.68796 26.2215 -0.04306
C 2.48984 25.54828 -0.03672
C 2.4786 24.078 0.01913
C 3.71191 23.40233 0.00267
C 3.5826 21.9473 0.00787
C 2.3853 21.3305 0.02426
C 2.32211 19.85732 0.01218
C 3.61074 19.26907 -0.01471
C 3.61073 17.8033 -0.02827
C 2.39512 17.11841 0.01078
C 2.29974 15.58501 -0.00112
C 3.59673 14.91068 0.03345
C 3.50971 13.50485 0.00748
C 2.321 12.76223 0.00662
C 2.40969 11.34307 -0.0154
C 3.64749 10.66651 -0.01299
C 3.65926 9.30959 -0.00407
C 2.42981 8.57278 0.01138
C 2.43098 7.08146 0.03278
C 3.62768 4.99799 0.04421
C 6.16206 10.80811 0.03189
C 6.18118 9.35774 0.00031
C 4.94466 8.61626 -0.003
C 7.37849 11.53165 -0.01343
C 8.58233 10.69748 0.00988
C 8.61031 9.32785 0.0276
C 7.4171 8.62527 0.01305
C 7.39661 7.17448 -0.00077
C 8.59374 6.42254 0.03368
C 8.60716 5.00543 -0.02929
C 7.35259 4.35936 -0.00966
C 7.30835 2.94723 -0.03337
C 8.54131 2.22354 0.01227
C 8.50962 0.74362 0.00873
C 7.31878 0.08131 -0.00049
C 9.78004 32.64925 0.00848
C 10.97423 32.01689 -0.01303
C 11.0711 30.63079 -0.01378
C 9.82579 29.86509 0.02635
C 9.80253 28.45681 0.0127
C 11.03979 27.74939 0.01396
C 11.05592 26.31033 0.01849
C 9.85141 25.57569 -0.01142
C 9.80674 24.12205 -0.00562
C 11.05223 23.47532 -0.00494
C 11.06607 22.05079 0.00054
C 7.34883 12.86681 0.01087
C 8.64307 13.58766 -0.05697
C 8.62308 15.06248 -0.00725
C 7.35423 15.69937 0.02322
C 4.91235 7.18615 0.01402
C 6.15324 6.51376 0.02379
C 6.12796 5.05013 0.00907
C 4.88311 4.32134 0.00643
C 4.89577 2.88682 -0.01509
C 6.10866 2.1978 0.03267
C 6.11903 0.74153 0.02374
C 4.97347 34.04495 0.00402
C 7.30679 32.71601 0.0073
C 8.5425 31.92534 0.0174
C 8.56334 30.5718 0.03828
C 9.86452 19.95858 -0.00095
C 7.34815 29.87273 0.01226
C 8.56653 27.74056 0.01996
C 8.57381 26.31022 -0.03996
C 7.38392 25.57861 0.01465
C 7.31718 24.1387 -0.00074
C 8.53453 23.41232 -0.00518
C 8.60479 22.01321 0.0086
C 7.40944 21.30573 -0.00643
C 7.40041 19.89046 0.017
C 8.58029 19.23084 -0.03113
C 8.54487 17.79497 -0.02566
C 7.30985 17.11996 -0.00094
C 7.36349 28.48894 -0.00279
C 18.4215 6.42184 0.00028
C 18.35967 5.02171 -0.02213
C 17.19881 4.26891 0.03698
C 30.64661 14.79577 -0.0405
C 30.67269 13.38046 -0.01303
C 29.44245 12.6711 -0.01461
C 29.44084 11.16827 -0.02155
C 30.77921 10.6012 -0.00944
C 30.70097 9.12856 -0.03735
C 29.38796 8.56276 -0.00971
C 29.33113 7.23539 0.01518
C 30.64761 6.29374 0.01908
C 30.62003 4.87309 0.07705
C 29.50973 4.11753 0.0103
C 29.58018 2.67209 0.02108
C 30.79136 2.06705 0.00716
C 30.75308 0.63412 0.00307
C 29.53501 34.04882 0.00346
C 32.00204 32.66631 0.01713
C 33.23428 31.85342 -0.01694
C 33.18383 30.44584 0.01428
C 31.94245 29.80545 -0.02142
C 31.89937 28.38978 0.0544
C 33.13652 27.67091 0.00026
C 33.13634 26.25864 0.00682
C 31.90796 25.61115 -0.01779
C 29.45387 15.5289 0.01705
C 31.93321 24.18002 0.03794
C 29.42231 16.99102 0.0101
C 30.76358 19.12268 0.03531
C 27.07682 15.61396 -0.00621
C 28.16593 14.77643 0.02611
C 28.19693 13.30193 0.02198
C 26.94968 12.55484 0.01094
C 27.00704 11.02754 0.00235
C 28.39535 10.32981 0.01495
C 27.13324 2.86811 0.01259
C 28.25046 2.09981 0.01799
C 28.33408 0.66554 0.01699
C 27.04291 0.05427 -0.00416
C 29.51173 32.64921 0.01177
C 30.66073 31.97561 0.04266
C 30.72805 30.53619 0.01324
C 29.46514 29.83756 0.0014
C 29.45854 28.4293 0.00924
C 30.69696 27.74402 0.02326
C 30.71071 26.29137 0.00261
C 29.48868 25.62177 0.03265
C 29.4027 24.28005 -0.02049
C 30.70172 23.50422 -0.01854
C 30.80064 22.04324 -0.01415
C 29.44339 21.2696 -0.03039
C 29.46677 19.81619 0.01836
C 30.67282 17.73215 -0.00669
C 33.17294 23.46119 0.01927
C 33.15082 22.04528 0.01574
C 31.9377 21.33189 -0.02383
C 34.38497 24.17602 0.03076
C 1.17782 23.45533 0.00723
C 1.17014 22.04194 0.02712
C 34.40442 21.32761 -0.02213
C 0.0422 19.91874 0.01951
C 1.14751 19.13682 -0.01678
C 1.11716 17.71449 0.01223
C 34.30042 16.95561 0.00648
C 34.25031 15.55941 0.02114
C 0.99365 14.90238 -0.02957
C 1.11428 13.4705 0.00343
C 34.39089 12.69439 -0.02656
C 34.33427 11.23223 -0.02442
C 1.16776 10.59925 -0.00027
C 1.1478 9.26743 -0.00583
C 34.24245 8.49177 -0.02302
C 34.33404 7.04172 -0.02849
C 1.20798 6.34162 0.02931
C 1.18168 4.92278 0.00628
C 34.36397 4.17238 -0.0345
C 0.06678 2.73952 -0.00931
C 1.27086 2.07008 -0.00939
C 1.17492 0.71874 -0.00468
C 34.39481 25.56609 -0.05239
C 1.23332 26.25518 -0.00598
C 1.21994 27.75998 -0.00439
C 34.37276 28.36573 -0.01037
C 31.94689 19.94125 -0.01429
C 33.21931 19.31027 -0.0136
C 33.15499 17.77944 0.00594
C 31.88677 16.99316 -0.02474
C 31.90059 15.59096 0.00369
C 33.08833 14.86019 0.00455
C 33.10531 13.39632 -0.00644
C 31.92391 12.68749 -0.01839
C 31.99165 11.31225 0.00137
C 33.13195 10.51744 0.00199
C 33.06324 9.14668 0.04381
C 27.02327 17.01765 0.00194
C 31.87388 8.42745 0.02806
C 33.11986 6.30361 -0.00069
C 33.17388 4.88548 0.04926
C 31.87919 4.24642 -0.03838
C 31.92269 2.7777 0.00349
C 33.26033 2.0415 -0.00323
C 33.25517 0.60682 -0.00841
C 31.98646 34.05536 0.0001
C 0.08475 32.5994 -0.02927
C 1.28795 31.85356 -0.01404
C 1.26659 30.51644 0.01027
C 0.01047 29.82528 0.01831
C 31.90007 6.9861 0.01504
C 28.19244 17.71655 0.04185
C 28.22055 19.13682 0.02316
C 27.04041 19.83326 0.01257
C 19.63087 7.11895 -0.00652
C 20.85727 6.46646 0.0058
C 20.75869 5.03629 -0.00865
C 19.61023 4.28818 0.00675
C 19.71395 2.91336 -0.00311
C 20.92338 2.16232 0.00742
C 20.8582 0.74571 -0.01594
C 19.60968 0.05803 0.0106
C 22.12743 32.67054 -0.01154
C 23.35272 31.99223 -0.01721
C 23.35579 30.5923 -0.02422
C 22.09516 29.88185 0.01277
C 22.14165 28.40862 0.00096
C 23.38243 27.69451 -0.01527
C 23.36118 26.28625 0.01087
C 22.03884 25.55937 0.00199
C 22.13326 24.13253 0.01511
C 23.3234 23.40646 -0.00478
C 23.39546 21.96891 -0.01662
C 22.0779 21.19494 -0.01185
C 22.10923 19.84252 0.01126
C 23.38343 19.15527 0.01852
C 23.38376 17.75178 -0.00381
C 19.73226 8.46708 -0.04076
C 21.04219 9.15224 -0.00703
C 20.85345 10.57974 0.00654
C 19.63114 11.37159 -0.04422
C 17.17098 2.9008 -0.00109
C 18.44687 2.18042 -0.00491
C 18.40215 0.79926 0.03338
C 17.22982 0.05219 -0.0258
C 19.62766 32.69735 -0.0331
C 20.87305 31.94664 -0.00316
C 20.82736 30.52698 0.02188
C 19.57677 29.84806 -0.01979
C 19.60315 28.41094 0.02691
C 20.82945 27.72466 -0.01581
C 20.85613 26.30654 0.01452
C 22.11383 17.07983 0.03046
C 19.64299 25.54128 0.04892
C 20.87872 23.41612 -0.03557
C 20.88924 22.0153 0.03754
C 19.5546 21.34314 0.01739
C 19.68385 19.93571 0.00755
C 20.83955 19.22669 -0.0054
C 20.90879 17.748 0.00667
C 19.64843 17.03942 0.00143
C 19.65562 15.6029 -0.017
C 20.85898 14.90866 0.00364
C 20.87889 13.53146 -0.00831
C 19.66976 12.81154 -0.02957
C 19.65209 24.08806 -0.00111
C 3.74991 31.9427 0.01073
C 22.07737 15.66248 0.0296
C 23.29273 13.5071 -0.02845
C 24.65448 15.54568 -0.00229
C 25.88356 14.83244 -0.00938
C 25.86566 13.3932 -0.0264
C 24.51345 12.82001 -0.01154
C 24.57315 11.37307 0.00684
C 25.68603 10.57873 -0.01052
C 24.36532 4.52679 -0.01679
C 24.62801 2.91 0.00367
C 25.86856 2.22335 0.04306
C 25.88937 0.83115 0.00996
C 24.55451 0.11363 0.00195
C 27.04513 32.67897 -0.00802
C 28.18344 31.87446 -0.00218
C 28.24299 30.51709 -0.01654
C 26.97422 29.90199 -0.00037
C 26.93706 28.41047 -0.0032
C 28.22258 27.71523 0.00622
C 28.254 26.30442 -0.02815
C 27.06961 25.58428 -0.00942
C 27.05243 24.19188 0.00487
C 28.21826 23.49761 0.00826
C 28.28497 22.06324 -0.00294
C 27.0882 21.2852 0.00152
C 24.57139 17.06655 -0.01199
C 25.78702 17.72053 -0.009
C 25.77843 19.15941 -0.00285
C 24.56428 19.82273 0.01423
C 22.09367 12.8552 -0.03213
C 22.00239 11.28617 0.02239
C 23.28426 10.6705 0.01153
C 23.36646 9.2736 0.02734
C 22.35849 8.37165 -0.0055
C 22.14445 6.89378 0.01515
C 23.21972 5.11672 -0.00225
C 21.99944 4.33616 0.00071
C 22.12087 2.98207 -0.01107
C 23.35119 2.27128 -0.01586
C 23.32599 0.79374 -0.01971
C 23.31376 14.87668 0.03374
C 22.1446 0.028 -0.02118
C 25.80132 32.03269 -0.00178
C 25.78983 30.54304 0.00768
C 24.53439 29.84092 -0.0276
C 24.54462 28.44859 0.03005
C 25.78056 27.76894 -0.04078
C 25.86446 26.29482 0.02117
C 24.61961 25.63483 0.02737
C 24.59603 24.20162 -0.00498
C 25.84921 23.38974 0.00135
C 25.78131 21.95298 0.03102
C 24.53852 21.24366 0.02555
C 24.56625 32.7186 0.00733
C 2.52279 32.60713 -0.00018
