379
Graphene
C 0.00928 0.03979 0.01295
C 11.13879 6.40163 0.01945
C 11.00455 5.03926 0.01416
C 9.83242 4.3015 0.03542
C 9.86049 2.82853 0.02299
C 11.12859 2.16137 0.00244
C 11.08435 0.7282 -0.01717
C 9.78914 0.01567 0.05265
C 12.2348 32.62404 -0.01952
C 13.47992 31.82588 -0.02813
C 13.52475 30.45803 0.00374
C 12.34768 29.86241 0.00052
C 12.38095 28.32544 -0.03682
C 13.58028 27.67159 0.01965
C 12.33795 25.59481 0.02058
C 12.32772 24.24515 -0.01957
C 13.5112 23.36229 -0.0108
C 13.55809 21.92953 -0.00368
C 12.21807 21.24749 -0.02696
C 12.33924 19.8032 -0.00114
C 9.78001 7.089 -0.01454
C 9.78967 8.54556 0.01241
C 11.06753 9.18684 0.0076
C 11.06298 10.70583 0.02162
C 10.95469 32.02764 0.00985
C 11.09326 30.58816 -0.02245
C 9.87868 29.87016 -0.00428
C 9.87277 28.43827 0.03101
C 11.0942 27.70939 -0.01536
C 11.09488 26.28226 -0.02689
C 9.8488 25.5561 -0.01046
C 9.87787 24.19217 -0.00891
C 11.08209 23.54182 0.02819
C 13.53846 19.17514 0.00228
C 11.07236 22.09803 0.00165
C 9.89138 19.83629 0.02894
C 11.10117 19.14237 -0.01789
C 11.10831 17.77756 0.00444
C 9.91037 17.00514 -0.00925
C 9.832 15.53495 0.01877
C 11.07709 14.90544 0.01363
C 11.09666 13.44954 -0.02162
C 9.78188 12.77325 0.00415
C 9.83878 11.35204 -0.0014
C 9.92603 21.32192 -0.02971
C 13.53441 17.70983 0.00798
C 12.29733 17.08513 0.00422
C 12.27883 11.47622 0.0351
C 15.98521 6.38881 -0.00316
C 15.98569 4.9082 0.02188
C 14.74968 4.25397 -0.01979
C 14.79354 2.87285 0.02691
C 16.00435 2.10156 -0.01581
C 15.95542 0.70386 0.01452
C 14.71455 0.04758 0.04892
C 17.22938 32.60126 -0.00111
C 18.51649 31.96161 -0.03557
C 14.74426 7.08827 -0.0331
C 18.51588 30.56271 0.03754
C 18.41574 19.15432 0.00755
C 18.48066 17.67378 -0.0054
C 17.15449 16.9989 0.00667
C 17.20954 15.59647 0.00143
C 18.44391 14.86559 -0.017
C 18.46737 13.41906 0.00364
C 17.2322 12.85547 -0.00831
C 17.10027 11.403 -0.02957
C 18.41968 10.67395 -0.04422
C 17.12202 19.89989 0.01739
C 9.77933 32.68699 -0.01275
C 14.70628 8.50312 -0.0258
C 16.01598 10.56374 -0.00491
C 13.50808 10.67715 -0.03113
C 13.543 9.26969 0.02098
C 12.30659 8.56293 0.01848
C 12.35228 7.12617 -0.00619
C 13.52611 6.3739 -0.02162
C 13.51702 4.91609 0.00889
C 12.24395 4.24436 -0.00481
C 12.3225 2.85893 0.00979
C 13.57436 2.16699 0.01443
C 15.94007 9.23651 0.03338
C 13.48493 0.73688 0.03505
C 14.6828 32.65767 -0.04147
C 15.98915 31.92229 -0.05302
C 15.82465 30.51573 0.00213
C 14.80854 29.87013 -0.00066
C 14.82048 21.23619 -0.00289
C 14.74037 19.8697 0.00028
C 15.98241 19.11819 -0.02213
C 15.91305 17.67832 0.03698
C 14.76904 16.99321 -0.00109
C 12.23996 34.04233 -0.02815
C 18.42116 9.22401 0.00654
C 7.4386 0.03768 -0.01111
C 8.5873 2.20807 0.00943
C 3.70455 4.91726 0.01087
C 2.44016 4.27331 -0.01343
C 2.42274 2.85855 0.00988
C 3.67889 2.17624 0.0276
C 3.6944 0.65807 0.01305
C 2.44207 0.00756 -0.00077
C 4.88854 32.66357 0.03368
C 6.09743 31.97434 -0.02929
C 6.13164 30.5355 -0.00966
C 4.90854 29.88039 -0.03337
C 4.95579 28.36847 0.01227
C 6.16221 27.7231 0.00873
C 6.17754 26.32232 -0.00049
C 4.95931 25.58527 0.00848
C 4.83152 24.20544 -0.01303
C 6.16106 23.45411 -0.01378
C 6.16206 21.99273 0.02635
C 4.91983 21.28082 0.0127
C 4.85253 19.91993 0.01396
C 3.75647 6.31821 -0.05697
C 2.50279 7.1004 -0.00725
C 2.45439 8.50052 0.02322
C 3.75248 9.18485 -0.00094
C 3.67505 30.53391 0.00643
C 2.38169 29.81225 -0.01509
C 2.41937 28.47561 0.03267
C 3.70135 27.69681 0.02374
C 3.71531 26.26912 0.00402
C 2.48008 25.58163 0.0073
C 2.51102 24.13964 0.0174
C 3.67942 23.38383 0.03828
C 3.71126 22.00147 0.01226
C 6.04388 19.12531 0.01849
C 2.44695 21.39803 -0.00279
C 3.64129 19.22443 -0.03996
C 3.67463 17.77083 0.01465
C 2.48837 17.08223 -0.00074
C 2.49056 15.5443 -0.00518
C 3.74132 14.91229 0.0086
C 3.72337 13.55271 -0.00643
C 2.47514 12.82492 0.017
C 2.42246 11.36204 -0.03113
C 3.6362 10.58541 -0.02566
C 2.43365 19.91724 0.01996
C 6.16761 17.75347 -0.01142
C 4.94651 17.01108 -0.00562
C 4.95767 15.65962 -0.00494
C 8.63387 23.52147 0.00373
C 8.61099 22.04619 -0.00191
C 7.43788 21.29298 0.00438
C 7.46034 19.86827 0.01291
C 8.62691 19.1899 0.00093
C 8.60293 17.62491 0.00057
C 7.36785 17.00867 -0.01634
C 7.33288 15.64799 -0.00334
C 8.53909 14.86665 0.02339
C 7.39649 24.17059 0.02147
C 8.57039 13.52232 0.01641
C 7.34211 11.40882 0.01364
C 8.63503 10.60689 -0.01062
C 8.58134 9.27324 -0.00033
C 7.36983 8.55679 0.03589
C 7.40588 7.14512 -0.02759
C 8.58594 6.36455 0.0402
C 8.61143 4.97918 0.00572
C 7.411 4.3065 0.03592
C 7.34691 2.86715 0.00406
C 7.30956 12.84456 -0.00719
C 8.6512 0.70736 0.02841
C 7.39979 25.6234 -0.014
C 8.60363 27.73634 -0.00131
C 6.18713 14.97088 0.00054
C 6.10367 13.59646 0.03007
C 4.889 12.83879 -0.00095
C 4.90133 11.37603 0.01572
C 6.06956 10.6696 -0.04848
C 6.13141 9.27323 -0.00892
C 4.95972 8.50829 -0.01362
C 4.93681 7.0771 -0.0008
C 6.12648 6.45661 0.0288
C 8.58107 26.35605 -0.01118
C 6.14924 5.00424 0.00393
C 4.8393 2.85118 0.00685
C 6.07617 2.17806 0.02888
C 6.14555 0.67732 -0.00482
C 4.94304 34.07714 -0.01384
C 7.31404 32.71365 0.03693
C 8.56085 32.01882 0.01745
C 8.65324 30.59503 0.00488
C 7.40266 29.81064 -0.01004
C 7.39062 28.43568 -0.02896
C 4.8773 4.26336 0.00895
C 3.68416 31.95108 0.00907
C 17.19485 8.57523 -0.00703
C 18.36077 6.37021 -0.00652
C 29.47565 17.00926 0.02108
C 29.47427 15.4707 0.00716
C 30.75424 14.95979 0.00307
C 29.44897 4.24005 0.00346
C 29.53345 2.90759 0.01713
C 30.73889 2.08936 -0.01694
C 30.755 0.70743 0.01428
C 29.52155 0.01341 -0.02142
C 32.01101 32.66638 0.0544
C 33.23841 31.99698 0.00026
C 33.16403 30.53061 0.00682
C 31.93816 29.84343 -0.01779
C 31.95747 28.40393 0.03794
C 33.14925 27.77473 0.01927
C 33.25697 26.29526 0.01574
C 32.0038 25.51987 -0.02383
C 32.03293 24.13013 -0.01429
C 33.20194 23.45917 -0.0136
C 33.19058 22.05773 0.00594
C 30.75544 17.75733 0.0103
C 30.73833 19.15752 0.07705
C 29.51776 19.8694 0.01908
C 29.50215 21.33707 0.01518
C 28.33504 19.20974 0.00924
C 28.26666 17.66585 0.02326
C 27.08461 16.99549 0.00261
C 27.07575 15.5665 0.03265
C 28.26709 14.94924 -0.02049
C 27.04413 2.77032 -0.01854
C 28.2155 2.16654 -0.01415
C 28.32368 0.64946 -0.03039
C 27.03433 34.01947 0.01836
C 31.9464 21.30852 -0.02474
C 29.4905 32.63442 0.03531
C 30.69174 30.55852 0.0101
C 29.50537 29.81127 0.01705
C 29.52966 28.33342 -0.0405
C 30.79378 27.68338 -0.01303
C 30.78457 26.29549 -0.01461
C 29.58012 25.51692 -0.02155
C 29.48557 24.04645 -0.00944
C 30.77318 23.41627 -0.03735
C 30.78123 22.00688 -0.00971
C 30.70771 31.9483 -0.00669
C 31.98614 19.86101 0.00369
C 33.21725 19.17097 0.00455
C 33.17751 17.73859 -0.00644
C 34.42382 21.39393 -0.02213
C 34.43139 19.91284 0.01951
C 1.25197 19.23367 -0.01678
C 1.19632 17.79521 0.01223
C 34.42993 17.03757 0.00648
C 34.40803 15.59161 0.02114
C 1.27783 14.95381 -0.02957
C 1.24591 13.48621 0.00343
C 34.40138 12.76869 -0.02656
C 1.20196 22.10612 0.02712
C 34.39894 11.32802 -0.02442
C 1.22737 9.2693 -0.00583
C 34.40051 8.45663 -0.02302
C 34.34004 7.08439 -0.02849
C 1.23753 6.36957 0.02931
C 1.27386 4.9584 0.00628
C 34.36336 4.21083 -0.0345
C 34.35264 2.82066 -0.00931
C 1.19723 2.08876 -0.00939
C 1.19224 0.72719 -0.00468
C 1.23306 10.60431 -0.00027
C 27.06068 19.93511 0.0014
C 1.22331 23.51781 0.00723
C 0.01624 25.55276 -0.05239
C 31.97281 17.02115 -0.01839
C 31.89163 15.59247 0.00137
C 33.13575 14.93472 0.00199
C 33.17293 13.48647 0.04381
C 32.05959 12.69937 0.02806
C 33.20688 10.65861 0.01504
C 33.14134 6.43188 -0.00069
C 33.16525 5.03247 0.04926
C 31.92754 4.32894 -0.03838
C 34.40834 24.18693 0.03076
C 31.92839 2.8667 0.00349
C 33.20814 0.7536 -0.00841
C 32.00121 34.07239 0.0001
C 0.03297 32.69253 -0.02927
C 1.20211 31.90348 -0.01404
C 1.17445 30.53085 0.01027
C 34.39793 29.86876 0.01831
C 34.40927 28.46261 -0.01037
C 1.23659 27.65506 -0.00439
C 1.23778 26.22344 -0.00598
C 33.1205 2.12517 -0.00323
C 17.19076 7.13751 -0.04076
C 27.11491 21.2922 0.01324
C 28.19061 23.35257 0.01177
C 20.87442 6.37203 0.03374
C 20.91811 4.95645 -0.02845
C 19.66638 4.24094 -0.03213
C 19.66889 2.81752 0.02239
C 20.93858 2.09598 0.01153
C 20.94907 0.71252 0.02734
C 19.70088 34.07372 -0.0055
C 22.11683 32.67477 0.01515
C 23.36264 31.89267 -0.00225
C 23.3448 30.50276 0.00071
C 22.0491 29.76455 -0.01107
C 22.17605 28.39811 -0.01586
C 23.36766 27.64771 -0.01971
C 23.38945 26.30566 -0.02118
C 23.23538 23.41341 0.00733
C 23.26544 22.00898 -0.00178
C 22.09879 21.2574 0.00768
C 22.07548 19.86746 -0.0276
C 23.39848 19.14697 0.03005
C 19.67968 7.08937 0.0296
C 19.56276 8.50967 0.03046
C 20.81128 9.14074 -0.00381
C 20.92811 10.59679 0.01852
C 18.44023 4.95384 0.0058
C 17.26469 4.19666 -0.00865
C 17.26655 2.76941 0.00675
C 18.50741 2.10694 -0.00311
C 18.44148 0.70814 0.00742
C 17.24198 34.01487 -0.01594
C 19.6452 32.66145 0.0106
C 20.88994 31.95231 -0.01154
C 20.92969 30.51235 -0.01721
C 23.43179 17.73214 -0.04078
C 20.77779 21.87304 -0.02422
C 19.63889 19.88039 0.00096
C 20.9072 19.16628 -0.01527
C 20.92626 17.72702 0.01087
C 19.72921 17.02805 0.00199
C 19.65319 15.60654 0.01511
C 20.91178 14.93347 -0.00478
C 20.95527 13.49765 -0.01662
C 19.76687 12.78626 -0.01185
C 19.69407 11.41674 0.01126
C 19.76007 21.34786 0.01277
C 22.18161 16.95419 0.02117
C 22.11783 15.608 0.02737
C 23.39095 14.90812 -0.00498
C 24.56699 19.9477 -0.02815
C 25.79456 19.1765 -0.00942
C 25.82689 17.76994 0.00487
C 24.58228 17.06841 0.00826
C 24.63649 15.61118 -0.00294
C 25.83432 14.95981 0.00152
C 24.58156 4.30294 0.01257
C 24.60467 2.81478 0.02316
C 25.85967 2.20346 0.04185
C 24.6439 21.31436 0.00622
C 25.8872 0.67237 0.00194
C 26.97529 32.58462 0.02611
C 28.29525 31.96629 0.02198
C 28.31213 30.52307 0.01094
C 27.18183 29.84807 0.00235
C 27.04303 28.45284 0.01495
C 28.29211 27.66282 0.01259
C 28.30307 26.23264 0.01799
C 26.97893 25.56485 0.01699
C 26.93111 24.15011 -0.00416
C 24.56713 34.06169 -0.00621
C 28.24516 22.00132 0.04266
C 25.86267 21.96109 -0.0032
C 24.44283 24.08633 -0.01654
C 23.33922 13.55058 0.00135
C 22.15226 12.75362 0.03102
C 22.0477 11.30514 0.02555
C 22.04876 8.54935 0.01423
C 22.17463 7.13179 -0.00285
C 23.32501 6.34352 -0.009
C 23.37685 5.00729 -0.01199
C 22.14899 4.16521 -0.00229
C 22.15485 2.81952 -0.00938
C 25.77486 23.3892 -0.00037
C 23.38414 2.13116 -0.0264
C 22.22583 0.08441 0.00684
C 24.60173 32.66426 -0.01052
C 25.75742 31.87874 -0.01679
C 25.85583 30.4842 0.00367
C 24.56027 29.86418 0.04306
C 24.57034 28.45121 0.00996
C 25.80667 27.71016 0.00195
C 25.86784 26.32675 -0.00802
C 24.60277 25.58678 -0.00218
C 23.35428 0.74486 -0.01154
C 2.42503 32.60817 0.02379
