405
Graphene
C 34.39513 0.02346 0.01295
C 12.19764 21.31571 -0.01046
C 12.27736 19.94439 -0.00891
C 13.35626 19.15469 0.02819
C 13.40496 17.67667 0.00165
C 12.156 16.87003 -0.02971
C 13.38063 4.80742 0.02894
C 12.27176 4.148 -0.01789
C 12.27096 2.76327 0.00444
C 13.5509 2.12519 -0.00925
C 13.51166 0.70475 0.01877
C 12.29636 34.06135 0.01363
C 14.7431 32.70602 -0.02162
C 16.01584 31.90242 0.00415
C 15.98965 30.51552 -0.0014
C 14.74914 29.76749 0.02162
C 14.72203 28.37087 0.0076
C 16.05299 27.63518 0.01241
C 16.03811 26.21367 -0.01454
C 14.6781 25.6465 0.01945
C 14.85448 24.15002 0.01416
C 16.09369 23.30852 0.03542
C 13.44554 22.06303 -0.02689
C 15.90527 21.95356 0.02299
C 13.56856 23.4912 -0.01536
C 12.23398 25.54817 -0.00428
C 9.75593 21.38987 0.00057
C 9.87576 19.91637 -0.01634
C 11.08927 19.23312 -0.00334
C 11.05523 17.85193 0.02339
C 9.82917 17.18124 0.01641
C 9.90352 15.75046 -0.00719
C 11.25966 15.44299 0.01364
C 11.09347 13.96173 -0.01062
C 9.99804 13.1253 -0.00033
C 9.9151 4.33017 0.03589
C 9.87416 2.8901 -0.02759
C 11.00608 2.05639 0.0402
C 11.03282 0.66041 0.00572
C 9.80386 0.0613 0.03592
C 12.32976 32.63739 0.00406
C 13.55067 31.93374 0.00943
C 13.5411 30.51867 0.02841
C 12.30354 29.88002 -0.01111
C 12.217 28.52234 -0.01275
C 13.40031 27.71396 0.00985
C 13.40005 26.28527 -0.02245
C 12.32255 24.1597 0.03101
C 14.65102 21.30303 0.00244
C 14.53651 19.88972 -0.01717
C 15.62225 19.12033 0.05265
C 18.3445 4.96201 -0.02815
C 17.14244 4.29675 -0.04147
C 17.22005 2.89442 -0.05302
C 18.38377 2.11566 0.00213
C 18.41735 0.73137 -0.00066
C 17.19007 33.98662 -0.00289
C 19.68273 32.63967 0.00028
C 20.92738 31.92579 -0.02213
C 20.8296 30.49506 0.03698
C 19.65052 29.79038 -0.00109
C 19.67879 28.344 -0.00491
C 20.82791 27.55674 0.03338
C 20.8346 26.16052 -0.0258
C 19.77298 25.24058 -0.0331
C 19.82654 23.64047 -0.00316
C 21.19161 23.01552 0.02188
C 19.23851 20.20234 -0.01979
C 20.64861 19.58153 0.02691
C 20.72739 18.03959 -0.01581
C 19.65449 17.20236 0.01452
C 20.97072 14.92978 0.04892
C 18.38062 6.36549 0.03505
C 17.13245 7.14506 0.01443
C 17.32188 8.582 0.00979
C 18.60014 9.12473 -0.00481
C 15.89597 6.50778 -0.01952
C 15.98309 5.05425 -0.02813
C 14.71754 4.33118 0.00374
C 14.79101 2.82441 0.00052
C 16.00416 2.13647 -0.03682
C 16.02022 0.70827 0.01965
C 14.72744 0.05953 0.02058
C 17.25499 32.60605 -0.01957
C 18.41597 31.8674 -0.0108
C 18.50476 30.44336 -0.00368
C 11.01795 22.06644 0.00093
C 17.20822 29.79187 -0.02696
C 18.43271 27.56749 0.00228
C 18.47952 26.06644 0.00798
C 17.27797 25.34544 0.00422
C 17.38456 23.87346 0.0351
C 18.57989 22.94836 -0.03113
C 18.45067 21.47187 0.02098
C 17.02174 21.13686 0.01848
C 16.88174 19.62819 -0.00619
C 18.23221 19.21711 -0.02162
C 18.51782 17.94556 0.00889
C 17.2822 28.33642 -0.00114
C 11.08331 23.45677 0.01291
C 9.80796 24.26663 0.00438
C 9.77761 25.66385 -0.00191
C 2.44982 2.82358 0.00643
C 3.68664 2.16804 -0.01509
C 3.66008 0.84027 0.03267
C 2.43327 0.09312 0.02374
C 4.87091 32.89781 0.00402
C 6.07747 32.01998 0.0073
C 6.00998 30.57487 0.0174
C 4.80637 29.86498 0.03828
C 4.82995 28.43862 0.01226
C 6.18995 27.79753 -0.00279
C 6.07229 26.32453 0.01996
C 4.77665 25.53521 -0.03996
C 4.81278 24.117 0.01465
C 6.09632 23.51338 -0.00074
C 6.1192 22.03009 -0.00518
C 4.86459 21.3654 0.0086
C 4.89584 19.91418 -0.00643
C 6.16139 19.20326 0.017
C 6.13159 17.86116 -0.03113
C 4.9475 17.02548 -0.02566
C 4.90561 15.65216 -0.00094
C 2.4483 4.26719 0.00907
C 3.73443 5.08768 0.02379
C 3.67439 6.48699 0.01402
C 2.47638 7.11123 -0.003
C 3.5695 30.58779 -0.02805
C 2.39446 29.84872 0.00081
C 2.41591 28.37283 0.00245
C 3.64385 27.67312 0.02728
C 3.6505 26.25646 -0.00039
C 2.42446 25.50953 0.0064
C 2.42096 24.11986 0.00211
C 3.59796 23.43819 -0.00449
C 3.62058 22.07796 -0.01979
C 2.45529 21.30048 0.02784
C 6.14034 14.96671 0.02322
C 2.48586 19.87335 -0.01977
C 3.71888 17.75584 0.00208
C 2.44956 17.05879 0.01707
C 2.39987 15.65114 0.02769
C 3.59255 14.89211 -0.03291
C 3.6393 13.44835 -0.04999
C 2.43666 12.68929 0.04505
C 2.35357 11.30095 0.03284
C 3.68041 10.72881 -0.04307
C 3.67004 9.29637 0.03189
C 2.41361 8.58815 0.00031
C 3.71114 19.13347 -0.00561
C 20.98933 13.58038 -0.00111
C 6.16694 13.55528 -0.00725
C 4.86721 11.44554 0.01087
C 7.37005 17.15695 -0.04848
C 7.3738 15.74505 -0.00892
C 8.69327 15.02383 -0.01362
C 8.69302 13.57398 -0.0008
C 7.40399 12.85641 0.0288
C 7.38495 11.44483 0.00393
C 7.30397 8.50737 0.00895
C 7.33727 7.16473 0.00685
C 8.77855 4.93381 0.02888
C 7.42785 4.27687 -0.00482
C 7.44841 2.88856 -0.01384
C 8.60395 2.21269 0.03693
C 8.51714 0.70529 0.01745
C 7.2853 0.08681 0.00488
C 9.77448 32.67279 -0.01004
C 11.06013 31.95729 -0.02896
C 11.09149 30.54677 -0.00131
C 9.76185 29.87369 -0.01118
C 9.7234 28.43092 -0.014
C 11.00573 27.81672 0.02147
C 11.00811 26.38663 0.00373
C 8.61792 17.86054 0.01572
C 8.62833 19.27908 -0.00095
C 7.3567 19.94492 0.03007
C 7.3301 21.37385 0.00054
C 6.08821 10.80958 -0.01343
C 6.10037 9.24277 0.00988
C 4.88887 8.52824 0.0276
C 4.90597 7.12792 0.01305
C 6.17384 6.40301 -0.00077
C 6.18397 5.05 0.03368
C 4.86884 4.3169 -0.02929
C 4.90019 2.87843 -0.00966
C 6.18624 2.21045 -0.03337
C 6.15848 0.85785 0.01227
C 4.91056 12.80168 -0.05697
C 4.90223 0.19504 0.00873
C 8.57356 32.04656 0.00848
C 8.52998 30.61932 -0.01303
C 7.27117 29.94329 -0.01378
C 7.33317 28.52739 0.02635
C 8.47896 27.79189 0.0127
C 8.54636 26.41104 0.01396
C 7.33416 25.65568 0.01849
C 7.33161 24.23198 -0.01142
C 8.58967 23.52435 -0.00562
C 8.54179 22.13397 -0.00494
C 7.30342 32.74713 -0.00049
C 3.65183 32.08832 -0.01386
C 20.85189 10.57745 -0.03557
C 19.69518 8.4959 0.01739
C 29.56337 8.50691 -0.00971
C 29.43071 7.04189 0.01518
C 30.71399 6.32053 0.01908
C 30.68288 4.93821 0.07705
C 29.5774 4.17896 0.0103
C 29.47261 2.75718 0.02108
C 30.74998 2.10012 0.00716
C 30.74742 0.63275 0.00307
C 29.51717 34.024 0.00346
C 31.97771 32.66736 0.01713
C 33.11813 31.93927 -0.01694
C 33.15838 30.52032 0.01428
C 31.88758 29.79078 -0.02142
C 31.90513 28.37913 0.0544
C 33.15788 27.65724 0.00026
C 33.08112 26.25966 0.00682
C 31.85869 25.49254 -0.01779
C 31.86131 24.11291 0.03794
C 33.11223 23.43007 0.01927
C 33.14973 22.01515 0.01574
C 31.93061 21.34643 -0.02383
C 30.75406 9.22465 -0.03735
C 31.94966 19.89974 -0.01429
C 30.69995 10.67582 -0.00944
C 29.46092 12.78518 -0.01461
C 28.29907 0.63989 0.01699
C 27.07894 33.99956 -0.00416
C 29.53476 32.63137 0.01177
C 30.72765 31.94213 0.04266
C 30.68972 30.5543 0.01324
C 29.51632 29.81054 0.0014
C 29.45829 28.35955 0.00924
C 30.74892 27.65024 0.02326
C 30.65867 26.23767 0.00261
C 29.44662 25.48949 0.03265
C 29.42002 24.13778 -0.02049
C 30.67622 23.4115 -0.01854
C 30.72893 22.01191 -0.01415
C 29.41578 21.32133 -0.03039
C 29.40951 19.93425 0.01836
C 30.65144 19.19846 0.03531
C 30.64326 17.75071 -0.00669
C 29.50614 17.01887 0.0101
C 29.56118 15.59221 0.01705
C 30.70665 14.92039 -0.0405
C 30.75272 13.46956 -0.01303
C 29.48896 11.36233 -0.02155
C 33.18203 19.14626 -0.0136
C 33.17863 17.74307 0.00594
C 31.90678 17.03729 -0.02474
C 1.23479 22.0671 0.02712
C 0.00521 21.35825 -0.02213
C 34.37527 19.93571 0.01951
C 1.16598 19.13963 -0.01678
C 1.19145 17.80465 0.01223
C 34.35979 17.07789 0.00648
C 34.40837 15.62892 0.02114
C 1.24369 14.8998 -0.02957
C 1.18788 13.43237 0.00343
C 34.43096 12.78925 -0.02656
C 34.34049 11.37869 -0.02442
C 1.09518 10.62685 -0.00027
C 1.15484 9.26179 -0.00583
C 0.00718 8.47142 -0.02302
C 0.01165 7.06766 -0.02849
C 1.2359 6.42239 0.02931
C 1.24216 4.96417 0.00628
C 34.43079 4.23701 -0.0345
C 34.41852 2.81336 -0.00931
C 1.18411 2.11684 -0.00939
C 1.17836 0.77318 -0.00468
C 1.13535 23.42618 0.00723
C 34.33819 24.1045 0.03076
C 34.38649 25.4777 -0.05239
C 1.18543 26.29892 -0.00598
C 31.92181 15.58595 0.00369
C 33.15554 14.8809 0.00455
C 33.18926 13.40188 -0.00644
C 32.03758 12.75854 -0.01839
C 31.96446 11.37649 0.00137
C 33.14234 10.61808 0.00199
C 33.27651 9.22073 0.04381
C 31.93351 8.5687 0.02806
C 31.91403 7.10392 0.01504
C 33.18518 6.41273 -0.00069
C 28.30825 2.01779 0.01799
C 33.1054 4.97522 0.04926
C 31.95405 2.90813 0.00349
C 33.15031 2.1257 -0.00323
C 33.1725 0.73286 -0.00841
C 31.95418 34.06108 0.0001
C 34.42631 32.69538 -0.02927
C 1.18583 31.93106 -0.01404
C 1.10938 30.53694 0.01027
C 34.36868 29.81878 0.01831
C 34.39514 28.37145 -0.01037
C 1.21737 27.74842 -0.00439
C 31.95544 4.29181 -0.03838
C 27.16371 2.81517 0.01259
C 27.14804 4.17778 0.01495
C 28.28971 4.93001 0.00235
C 23.29062 13.57322 0.01087
C 22.04293 12.73989 0.00199
C 22.02996 11.3681 0.01511
C 23.23867 10.63922 -0.00478
C 23.39836 9.2368 -0.01662
C 22.24445 8.38776 -0.01185
C 22.13828 7.02742 0.01126
C 23.36667 6.32344 0.01852
C 23.4459 4.92631 -0.00381
C 22.17235 4.29504 0.03046
C 22.23543 2.84724 0.0296
C 23.36396 2.06356 0.03374
C 23.30695 0.66645 -0.02845
C 22.08832 33.99137 -0.03213
C 24.56019 32.664 0.02239
C 25.78637 31.92231 0.01153
C 25.83854 30.45742 0.02734
C 24.5825 29.75037 -0.0055
C 24.52326 28.30275 0.01515
C 25.79778 27.68566 -0.00225
C 25.74967 26.21951 0.00071
C 23.29186 14.93228 -0.01527
C 22.062 15.74487 0.00096
C 22.0681 17.27038 0.01277
C 23.33479 17.96192 -0.02422
C 19.61092 7.03474 0.00755
C 20.87019 6.3722 -0.0054
C 20.89661 4.9711 0.00667
C 19.6127 4.26488 0.00143
C 19.63826 2.8022 -0.017
C 20.9311 2.12444 0.00364
C 20.91105 0.73067 -0.00831
C 19.66367 0.04696 -0.02957
C 22.14501 32.55597 -0.04422
C 23.38556 31.8908 0.00654
C 24.50815 25.54667 -0.01107
C 23.34285 30.52053 -0.00703
C 22.00526 28.28571 -0.00652
C 23.33637 27.64846 0.0058
C 23.37489 26.29144 -0.00865
C 22.06728 25.52658 0.00675
C 22.20729 24.06601 -0.00311
C 23.37844 23.41429 0.00742
C 23.2303 22.06406 -0.01594
C 21.88627 21.7602 0.0106
C 21.89638 20.25151 -0.01154
C 23.16466 19.4059 -0.01721
C 22.06609 29.7968 -0.04076
C 20.96103 9.17579 0.03754
C 24.66409 24.14377 -0.01586
C 25.77068 22.05423 -0.02118
C 28.24813 27.68355 0.00195
C 28.27132 26.25554 -0.00802
C 27.08162 25.54032 -0.00218
C 27.00442 24.15266 -0.01654
C 28.17057 23.34858 -0.00037
C 28.18578 21.93496 -0.0032
C 26.99816 21.3486 0.00622
C 26.97253 19.92354 -0.02815
C 28.18284 19.23803 -0.00942
C 28.25114 17.72623 0.00487
C 27.04521 17.02905 0.00826
C 27.03106 15.63068 -0.00294
C 28.23647 14.96922 0.00152
C 28.19111 13.52192 0.01257
C 26.95849 12.74003 0.02316
C 26.99032 11.33876 0.04185
C 28.20716 10.63919 0.00194
C 28.34552 9.26866 -0.00621
C 27.07943 8.53048 0.02611
C 26.97367 7.02375 0.02198
C 28.18838 6.35646 0.01094
C 26.9496 28.39202 0.00996
C 27.09365 29.83696 0.04306
C 28.2553 30.54561 0.00367
C 28.33297 31.93491 -0.01679
C 24.53418 21.28321 0.00733
C 24.48269 19.90956 -0.00178
C 25.77608 19.19268 0.00768
C 25.83961 17.70822 -0.0276
C 24.54751 17.0556 0.03005
C 24.50065 15.67003 -0.04078
C 25.75198 14.88305 0.02117
C 25.68374 13.45555 0.02737
C 24.48939 12.74898 -0.00498
C 24.44946 11.36579 0.00135
C 25.78844 23.44241 -0.01971
C 25.76833 10.7046 0.03102
C 24.58194 8.53658 0.01423
C 24.58837 7.08766 -0.00285
C 25.74233 6.3175 -0.009
C 25.87662 4.87281 -0.01199
C 24.60668 4.19955 -0.00229
C 24.59114 2.7919 -0.00938
C 25.92881 2.15428 -0.0264
C 25.83642 0.74024 -0.01154
C 24.61183 0.03916 0.00684
C 27.09861 32.62682 -0.01052
C 25.85873 9.31862 0.02555
C 2.39246 32.74011 -0.0059
