364
Graphene
C 34.39462 0.01013 0.01295
C 9.8005 11.28995 0.00052
C 11.11722 10.64418 -0.03682
C 11.063 9.29392 0.01965
C 9.85858 8.60681 0.02058
C 9.94533 7.11107 -0.01957
C 11.15024 6.38127 -0.0108
C 11.00485 4.94001 -0.00368
C 9.77559 4.22797 -0.02696
C 9.7485 12.69618 0.00374
C 9.84719 2.78728 -0.00114
C 11.07901 0.64726 0.00798
C 9.86369 0.03327 0.00422
C 12.36357 32.64884 0.0351
C 13.4796 31.83918 -0.03113
C 12.33008 30.0239 0.02098
C 12.28987 21.16486 0.01848
C 12.33559 19.82619 -0.00619
C 13.50602 19.01029 -0.02162
C 11.10569 2.08992 0.00228
C 10.98002 13.44227 -0.02813
C 11.08793 14.88532 -0.01952
C 9.77911 15.5383 0.05265
C 8.54894 2.21884 0.02894
C 8.58004 0.7885 -0.01789
C 7.32662 0.06669 0.00444
C 9.86466 32.68251 -0.00925
C 11.09888 32.00764 0.01877
C 11.05067 30.59018 0.01363
C 9.80807 29.85697 -0.02162
C 9.91779 28.46122 0.00415
C 11.06932 27.7616 -0.0014
C 11.01028 26.48211 0.02162
C 9.88175 25.69075 0.0076
C 9.91574 24.16487 0.01241
C 10.99348 23.42116 -0.01454
C 11.23871 21.99474 0.01945
C 9.89807 21.23761 0.01416
C 9.87542 19.89025 0.03542
C 11.02131 19.10528 0.02299
C 11.05567 17.6534 0.00244
C 9.85733 16.95908 -0.01717
C 13.5165 17.6962 0.00889
C 12.2875 16.99887 -0.00481
C 12.29892 15.62591 0.00979
C 13.51705 14.93189 0.01443
C 14.74403 11.47778 -0.03557
C 15.95071 10.67832 0.03754
C 15.93639 9.27861 0.01739
C 14.76878 8.50056 0.00755
C 14.74483 7.05104 -0.0054
C 16.00892 6.36248 0.00667
C 15.961 4.97897 0.00143
C 14.74053 4.28534 -0.017
C 14.77645 2.82927 0.00364
C 15.95227 2.18314 -0.00831
C 15.92011 0.72638 -0.02957
C 14.72214 0.01282 -0.04422
C 17.16357 32.5529 0.00654
C 18.35235 31.96333 -0.00703
C 18.62482 19.0631 -0.04076
C 18.42061 17.68726 -0.00652
C 17.20055 16.9835 0.0058
C 17.23891 15.55342 -0.00865
C 18.465 14.79481 0.00675
C 14.66156 12.83137 -0.00111
C 7.32197 2.8884 -0.02971
C 15.94527 13.51212 0.04892
C 14.7407 15.66559 -0.01581
C 13.48522 13.57133 0.03505
C 12.25947 12.80673 -0.02815
C 12.31107 11.36883 -0.04147
C 13.59266 10.64002 -0.05302
C 13.56273 9.24286 0.00213
C 12.31609 8.60019 -0.00066
C 12.35916 7.14364 -0.00289
C 13.4987 6.33246 0.00028
C 13.43787 4.94939 -0.02213
C 12.23677 4.20719 0.03698
C 12.34003 2.84291 -0.00109
C 13.55546 2.16641 -0.00491
C 13.55628 0.71268 0.03338
C 12.32023 34.03512 -0.0258
C 14.73231 32.58498 -0.0331
C 15.97124 32.00855 -0.00316
C 15.78249 19.16872 0.02188
C 15.95106 17.82563 -0.01979
C 14.72169 17.05146 0.02691
C 15.94452 14.90794 0.01452
C 18.42487 13.41083 -0.00311
C 7.28146 4.29322 0.00165
C 8.65608 6.38744 -0.00891
C 3.66904 6.38134 -0.01303
C 3.72818 4.95848 -0.01378
C 2.47206 4.3244 0.02635
C 2.51598 2.86478 0.0127
C 3.70146 2.18679 0.01396
C 3.6385 0.70651 0.01849
C 2.40455 34.04096 -0.01142
C 4.92346 32.76392 -0.00562
C 2.41041 7.09225 0.00848
C 6.11924 32.09192 -0.00494
C 4.8411 29.86522 0.03007
C 4.88035 28.44389 -0.00095
C 6.16828 27.75383 0.01572
C 6.18796 26.3062 -0.04848
C 4.9726 25.59327 -0.00892
C 4.93843 24.13805 -0.01362
C 6.13049 23.39266 -0.0008
C 6.11623 22.03919 0.0288
C 6.03326 30.61816 0.00054
C 2.4383 8.51523 -0.00049
C 3.61743 9.26045 0.00873
C 3.6579 10.69937 0.01227
C 3.6237 30.51939 0.0086
C 2.44357 29.82582 -0.00643
C 2.51405 28.34785 0.017
C 3.71553 27.63191 -0.03113
C 3.71739 26.21326 -0.02566
C 2.47555 25.58052 -0.00094
C 2.41547 24.24584 0.02322
C 3.6291 23.52537 -0.00725
C 3.72897 22.03579 -0.05697
C 2.48716 21.33974 0.01087
C 2.50071 19.90736 -0.01343
C 3.73475 19.14902 0.00988
C 3.74958 17.71729 0.0276
C 2.44821 16.97638 0.01305
C 2.4305 15.60157 -0.00077
C 3.65354 14.98145 0.03368
C 3.6249 13.62458 -0.02929
C 2.43756 12.84119 -0.00966
C 2.46717 11.42774 -0.03337
C 4.92205 21.30658 0.00393
C 4.95313 19.84076 0.00895
C 6.21877 19.21564 0.00685
C 6.19761 17.84145 0.02888
C 8.54223 26.24724 -0.01062
C 7.34324 25.55509 -0.00033
C 7.40106 24.113 0.03589
C 8.63384 23.44893 -0.02759
C 8.66411 22.0238 0.0402
C 7.39635 21.39954 0.00572
C 7.43813 19.94324 0.03592
C 8.65574 19.20072 0.00406
C 8.69787 17.7738 0.00943
C 7.46 17.06846 0.02841
C 7.41348 15.61425 -0.01111
C 8.57628 14.78112 -0.01275
C 8.51983 13.33235 0.00985
C 7.28094 12.75186 -0.02245
C 7.35556 11.36773 -0.00428
C 8.57221 10.62123 0.03101
C 8.61613 9.23727 -0.01536
C 7.38551 8.53357 -0.02689
C 7.3998 7.06121 -0.01046
C 8.62316 27.71935 0.01364
C 8.53637 4.94396 0.02819
C 7.31615 28.49994 -0.00719
C 8.55092 30.53957 0.02339
C 4.96505 17.10395 -0.00482
C 4.94882 15.71412 -0.01384
C 6.1404 14.99922 0.03693
C 6.12241 13.56591 0.01745
C 4.87557 12.86309 0.00488
C 4.89908 11.40366 -0.01004
C 6.0965 10.67792 -0.02896
C 6.12816 9.2902 -0.00131
C 4.92242 8.63757 -0.01118
C 4.91947 7.20571 -0.014
C 6.13772 6.44065 0.02147
C 6.1193 5.02893 0.00373
C 4.91138 4.22196 -0.00191
C 4.90602 2.8604 0.00438
C 6.14723 2.13787 0.01291
C 6.09666 0.73925 0.00093
C 4.86897 0.08095 0.00057
C 7.36196 32.69805 -0.01634
C 8.57248 31.96055 -0.00334
C 7.27924 29.89328 0.01641
C 17.16535 12.75646 0.00742
C 17.14442 11.40149 -0.01594
C 18.4124 10.63117 0.0106
C 30.64968 6.43451 0.00346
C 30.76466 5.0044 0.01713
C 29.58527 4.24707 -0.01694
C 29.50202 2.8179 0.01428
C 30.71102 2.10131 -0.02142
C 30.70853 0.70487 0.0544
C 29.50632 34.06823 0.00026
C 31.93627 32.67312 0.00682
C 29.4595 7.13682 0.00307
C 33.12337 31.94509 -0.01779
C 31.93566 29.83867 0.01927
C 31.96986 28.42653 0.01574
C 33.17748 27.68289 -0.02383
C 33.21779 26.34642 -0.01429
C 33.27106 19.16884 -0.0136
C 33.16132 17.79181 0.00594
C 31.95575 17.01421 -0.02474
C 31.95257 15.66667 0.00369
C 33.21092 30.4911 0.03794
C 29.45812 8.53851 0.00716
C 30.7075 9.23174 0.02108
C 30.68197 10.67694 0.0103
C 28.25446 6.39509 -0.02049
C 28.37575 4.89997 -0.01854
C 27.11884 4.23392 -0.01415
C 27.0651 2.83309 -0.03039
C 28.27686 2.16829 0.01836
C 28.29493 0.75905 0.03531
C 27.1036 0.00797 -0.00669
C 29.46694 32.68412 0.0101
C 30.65968 31.9882 0.01705
C 30.70767 30.53842 -0.0405
C 29.53965 29.7214 -0.01303
C 29.62414 28.31018 -0.01461
C 30.72596 27.76566 -0.02155
C 29.59327 17.07757 -0.00944
C 29.50524 15.64829 -0.03735
C 30.77458 14.87771 -0.00971
C 30.71001 13.47542 0.01518
C 29.44413 12.81419 0.01908
C 29.42627 11.38023 0.07705
C 33.16818 14.91693 0.00455
C 33.15199 13.46983 -0.00644
C 31.9978 12.69785 -0.01839
C 31.90396 11.35424 0.00137
C 34.3641 19.97839 0.01951
C 1.24581 19.16112 -0.01678
C 1.26064 17.74878 0.01223
C 0.02747 17.0347 0.00648
C 34.42944 15.5356 0.02114
C 1.16693 14.83222 -0.02957
C 1.1913 13.43839 0.00343
C 34.36717 12.80297 -0.02656
C 34.37973 11.33226 -0.02442
C 1.23635 10.71193 -0.00027
C 1.2517 9.30356 -0.00583
C 0.04982 8.60057 -0.02302
C 34.37774 7.15845 -0.02849
C 1.20059 6.41241 0.02931
C 1.2435 5.01265 0.00628
C 0.02427 4.30733 -0.0345
C 0.05975 2.85995 -0.00931
C 1.25818 2.12087 -0.00939
C 1.21522 0.71631 -0.00468
C 0.1161 21.40606 -0.02213
C 27.06525 7.10886 0.03265
C 1.26058 22.06816 0.02712
C 34.3275 24.06127 0.03076
C 33.17288 10.62032 0.00199
C 33.23187 9.20793 0.04381
C 31.92077 8.51671 0.02806
C 31.91985 7.08752 0.01504
C 33.14389 6.37246 -0.00069
C 33.17283 4.95234 0.04926
C 31.95029 4.23147 -0.03838
C 31.91003 2.79422 0.00349
C 33.24431 2.20686 -0.00323
C 33.2249 0.80704 -0.00841
C 31.98083 0.01749 0.0001
C 34.35211 32.65754 -0.02927
C 1.18311 31.93524 -0.01404
C 1.21279 30.51782 0.01027
C 0.00261 29.7931 0.01831
C 0.0445 28.3855 -0.01037
C 1.2969 27.74011 -0.00439
C 1.23348 26.27386 -0.00598
C 34.31119 25.47072 -0.05239
C 1.12499 23.4737 0.00723
C 27.00563 8.55079 0.00261
C 28.21138 9.26767 0.02326
C 28.24693 10.65362 0.00924
C 19.59866 7.05926 -0.0055
C 20.83259 6.31449 0.01515
C 20.91743 4.93549 -0.00225
C 19.62044 4.2638 0.00071
C 19.63885 2.8912 -0.01107
C 20.87123 2.21844 -0.01586
C 20.81305 0.72145 -0.01971
C 19.65785 33.98993 -0.02118
C 22.05751 32.63289 0.00733
C 23.27403 31.99414 -0.00178
C 23.48452 30.61621 0.00768
C 21.93766 21.16986 -0.0276
C 22.02502 19.85234 0.03005
C 23.35828 19.17126 -0.04078
C 23.37451 17.7696 0.02117
C 22.14792 16.92135 0.02737
C 22.11695 15.54854 -0.00498
C 23.36996 14.85192 0.00135
C 23.40831 13.46613 0.03102
C 19.70034 8.51462 0.02734
C 22.24931 12.72923 0.02555
C 20.87173 9.22309 0.01153
C 19.63833 11.34072 -0.03213
C 18.44987 9.22626 -0.01154
C 17.2113 8.58638 -0.01721
C 17.20163 7.14489 -0.02422
C 18.34693 6.37421 0.01277
C 18.36492 4.96676 0.00096
C 17.15449 4.18909 -0.01527
C 17.2319 2.76587 0.01087
C 18.44524 2.10477 0.00199
C 18.44375 0.66203 0.01511
C 17.19812 0.03412 -0.00478
C 19.6372 32.4181 -0.01662
C 20.87725 31.94458 -0.01185
C 20.81234 19.03252 0.01126
C 20.92933 17.72617 0.01852
C 19.69902 16.96095 -0.00381
C 19.72585 15.55309 0.03046
C 20.97207 14.78672 0.0296
C 20.93819 13.394 0.03374
C 19.66048 12.71753 -0.02845
C 20.9089 10.56973 0.02239
C 3.68028 31.99525 -0.00518
C 22.18409 11.26015 0.01423
C 23.3702 9.13282 -0.009
C 24.623 8.55088 0.00152
C 24.62166 7.10195 0.01257
C 25.87791 6.38341 0.02316
C 25.86906 4.93932 0.04185
C 24.64973 4.26375 0.00194
C 24.61356 2.80071 -0.00621
C 25.86085 2.15643 0.02611
C 25.90192 0.7572 0.02198
C 24.62543 0.05854 0.01094
C 27.02284 32.61622 0.00235
C 28.293 31.92236 0.01495
C 28.34866 30.43057 0.01259
C 27.04307 29.82477 0.01799
C 26.8911 28.4601 0.01699
C 26.97203 15.59372 -0.00416
C 28.22183 15.00241 0.01177
C 28.21046 13.55638 0.04266
C 27.05704 12.81971 0.01324
C 27.08595 11.40996 0.0014
C 25.8058 9.30393 -0.00294
C 23.41426 10.54119 -0.00285
C 25.86741 10.73717 0.00826
C 24.60971 12.767 -0.00942
C 22.06214 8.47378 -0.01199
C 22.15715 7.04065 -0.00229
C 23.3487 6.40465 -0.00938
C 23.49313 5.05673 -0.0264
C 22.12323 4.27351 -0.01154
C 22.17612 2.88747 0.00684
C 23.36979 2.14776 -0.01052
C 23.30924 0.71006 -0.01679
C 22.09728 34.05024 0.00367
C 24.52471 32.69799 0.04306
C 25.75947 31.96348 0.00996
C 25.78785 30.52499 0.00195
C 24.4771 29.70265 -0.00802
C 24.59928 28.19608 -0.00218
C 25.79802 27.96292 -0.01654
C 24.5392 16.99707 -0.00037
C 24.53869 15.64129 -0.0032
C 25.78875 14.93689 0.00622
C 25.83874 13.51444 -0.02815
C 24.61342 11.36033 0.00487
C 2.46017 32.63297 -0.00074
