345
Graphene
C 0.04715 0.04503 0.01295
C 14.76685 29.79717 0.02098
C 14.73812 28.46695 0.01848
C 15.95981 27.73231 -0.00619
C 16.03862 26.28351 -0.02162
C 14.77185 25.69563 0.00889
C 14.79103 24.13295 -0.00481
C 15.8953 23.41199 0.00979
C 15.92483 4.90722 0.01443
C 14.73234 4.16298 0.03505
C 14.81543 2.74761 -0.02815
C 16.06193 2.14307 -0.04147
C 16.02675 0.68307 -0.05302
C 14.78962 34.05644 0.00213
C 17.23961 32.64734 -0.00066
C 18.47294 32.01528 -0.00289
C 18.41315 30.51123 0.00028
C 17.22806 29.74743 -0.02213
C 15.98905 30.46033 -0.03113
C 16.02792 31.84633 0.0351
C 14.75962 32.59386 0.00422
C 12.24185 0.05172 0.00798
C 9.85405 2.79586 0.03542
C 11.03288 2.19687 0.02299
C 10.99276 0.80669 0.00244
C 9.83522 0.04321 -0.01717
C 12.31402 32.70727 0.05265
C 13.54413 31.95389 -0.01952
C 13.57653 30.52228 -0.02813
C 12.31186 29.80457 0.00374
C 17.22424 28.35422 0.03698
C 12.36173 28.47912 0.00052
C 13.63953 26.39758 0.01965
C 12.25428 23.96906 0.02058
C 13.45821 23.67562 -0.01957
C 13.57775 4.79036 -0.0108
C 12.3054 4.3232 -0.00368
C 12.37052 2.86671 -0.02696
C 13.61001 2.07553 -0.00114
C 13.51398 0.62464 0.00228
C 13.43129 27.73159 -0.03682
C 9.85536 4.20589 0.01416
C 18.39013 27.66715 -0.00109
C 17.23648 25.55277 0.03338
C 19.7545 7.01283 0.00654
C 20.86964 6.43916 -0.00703
C 20.96155 5.02041 -0.04076
C 19.64891 4.3887 -0.00652
C 19.66526 2.90188 0.0058
C 20.87168 2.06297 -0.00865
C 20.89583 0.65508 0.00675
C 19.69716 0.03965 -0.00311
C 22.15393 32.64783 0.00742
C 23.34581 31.98373 -0.01594
C 23.34839 30.56772 0.0106
C 22.17262 29.81216 -0.01154
C 22.20829 28.44996 -0.01721
C 23.36921 27.63479 -0.02422
C 23.3673 26.24375 0.01277
C 22.16292 25.53694 0.00096
C 22.18749 24.05219 -0.01527
C 19.46989 21.43141 -0.04422
C 20.84474 21.92001 -0.02957
C 20.90832 23.36283 -0.00831
C 19.69421 24.05784 0.00364
C 17.13284 24.1461 -0.0258
C 18.36331 23.44179 -0.0331
C 18.48568 21.98409 -0.00316
C 18.49179 6.53897 0.02188
C 18.39766 5.10179 -0.01979
C 17.17077 4.30501 0.02691
C 17.27592 2.84422 -0.01581
C 18.48831 2.1389 0.01452
C 18.43149 26.27025 -0.00491
C 18.44878 0.76355 0.04892
C 19.73774 32.72231 -0.03557
C 20.90629 31.92444 0.03754
C 20.89801 30.48001 0.01739
C 19.67821 29.7612 0.00755
C 19.63072 28.34985 -0.0054
C 20.97218 27.72248 0.00667
C 20.86864 26.28534 0.00143
C 19.643 25.56716 -0.017
C 17.17796 34.07931 -0.00111
C 11.03296 4.90129 0.01945
C 10.96913 23.59167 -0.01454
C 9.86655 24.14545 0.01241
C 2.4936 7.07952 0.00393
C 3.67096 6.35283 0.00895
C 3.65257 4.89103 0.00685
C 2.42116 4.23771 0.02888
C 2.46 2.80517 -0.00482
C 3.65604 2.10795 -0.01384
C 3.7085 0.68207 0.03693
C 2.53715 34.07048 0.01745
C 4.85064 32.71091 0.00488
C 6.16067 31.97233 -0.01004
C 6.11623 30.52294 -0.02896
C 4.89476 29.83745 -0.00131
C 4.91753 28.47647 -0.01118
C 6.16777 27.64436 -0.014
C 6.09674 26.28346 0.02147
C 4.86557 25.57545 0.00373
C 4.90537 24.12882 -0.00191
C 2.44564 8.5582 0.0288
C 3.68562 9.25446 -0.0008
C 3.75195 10.6525 -0.01362
C 2.45694 11.37982 -0.00892
C 3.70866 30.56951 0.01227
C 2.44828 29.83437 0.00873
C 2.37658 28.48048 -0.00049
C 3.70336 27.74883 0.00848
C 3.64158 26.27738 -0.01303
C 2.44587 25.53594 -0.01378
C 2.39843 24.18476 0.02635
C 3.71906 23.37593 0.0127
C 6.18614 23.44205 0.00438
C 3.63895 21.99292 0.01396
C 2.52293 19.84145 -0.01142
C 3.72935 19.13233 -0.00562
C 3.65807 17.75808 -0.00494
C 2.40392 17.0965 0.00054
C 2.4558 15.65258 0.03007
C 3.75481 14.91085 -0.00095
C 3.73267 13.4936 0.01572
C 2.54622 12.76871 -0.04848
C 2.40379 21.25837 0.01849
C 6.22548 21.94722 0.01291
C 4.81565 21.29596 0.00093
C 4.94329 19.89695 0.00057
C 7.32429 25.62088 -0.01536
C 7.3976 24.17484 -0.02689
C 8.66254 23.46997 -0.01046
C 8.5503 21.87179 -0.00891
C 7.49898 21.37244 0.02819
C 7.272 8.68748 0.00165
C 7.46104 7.21633 -0.02971
C 8.54492 6.34692 0.02894
C 8.54076 26.27825 0.03101
C 8.57408 4.93324 -0.01789
C 7.4236 2.78209 -0.00925
C 8.6293 2.09426 0.01877
C 8.61156 0.73951 0.01363
C 7.38174 0.12763 -0.02162
C 9.8303 32.68666 0.00415
C 11.10743 31.95109 -0.0014
C 11.11101 30.50825 0.02162
C 9.82815 29.93803 0.0076
C 7.32148 4.16674 0.00444
C 23.36371 23.42818 0.01087
C 8.5346 27.61578 -0.00428
C 7.28281 29.80251 0.00985
C 6.11695 19.19476 -0.01634
C 4.88554 16.99653 -0.00334
C 4.85806 15.81264 0.02339
C 4.93541 12.62082 0.01641
C 4.86252 11.46136 -0.00719
C 6.24536 9.23339 0.01364
C 4.93364 8.59076 -0.01062
C 4.92825 7.12288 -0.00033
C 7.37666 28.38867 -0.02245
C 6.18966 6.4475 0.03589
C 4.89462 4.26871 0.0402
C 4.8545 2.88143 0.00572
C 6.18267 2.14215 0.03592
C 6.16494 0.77862 0.00406
C 4.94416 0.06573 0.00943
C 7.35705 32.75056 0.02841
C 8.55011 32.0867 -0.01111
C 8.58633 30.54225 -0.01275
C 6.17118 4.99199 -0.02759
C 3.59331 31.97606 -0.03337
C 23.3696 22.02743 0.00199
C 22.17591 19.89801 -0.00478
C 31.97202 29.79918 -0.02142
C 31.92818 28.41974 0.0544
C 33.14909 27.72068 0.00026
C 33.22739 26.30189 0.00682
C 31.96538 25.55716 -0.01779
C 31.93142 24.15881 0.03794
C 33.14975 23.39767 0.01927
C 33.21173 21.99689 0.01574
C 31.90773 21.35079 -0.02383
C 31.95751 19.93548 -0.01429
C 33.23729 19.23128 -0.0136
C 33.24261 17.7252 0.00594
C 31.96624 17.02372 -0.02474
C 31.96174 15.64284 0.00369
C 33.19887 14.89976 0.00455
C 33.13581 13.49787 -0.00644
C 31.896 12.76492 -0.01839
C 33.16299 30.5221 0.01428
C 33.14708 31.91394 -0.01694
C 31.99969 32.69702 0.01713
C 29.48751 34.05545 0.00346
C 30.77635 19.20418 0.03531
C 30.72607 17.73518 -0.00669
C 29.52251 17.03 0.0101
C 29.5359 15.66214 0.01705
C 30.7544 14.92555 -0.0405
C 30.72972 13.55032 -0.01303
C 29.51588 12.78979 -0.01461
C 29.47765 11.40277 -0.02155
C 31.93167 11.36274 0.00137
C 30.66993 10.738 -0.00944
C 29.58958 8.49915 -0.00971
C 29.58007 7.04459 0.01518
C 30.81623 6.37896 0.01908
C 30.71657 4.99838 0.07705
C 29.48211 4.32272 0.0103
C 29.51787 2.83064 0.02108
C 30.74173 2.12568 0.00716
C 30.72998 0.67918 0.00307
C 30.7284 9.24245 -0.03735
C 29.55609 19.9374 0.01836
C 33.16819 10.56546 0.00199
C 31.95228 8.54338 0.02806
C 1.21609 17.80407 0.01223
C 34.42188 17.06765 0.00648
C 34.42958 15.57827 0.02114
C 1.20293 14.88795 -0.02957
C 1.25511 13.41126 0.00343
C 34.37517 12.77171 -0.02656
C 34.35737 11.31605 -0.02442
C 1.18278 10.63956 -0.00027
C 1.1622 9.27406 -0.00583
C 34.40877 8.50212 -0.02302
C 0.02339 7.03891 -0.02849
C 1.28916 6.3934 0.02931
C 1.24897 4.98045 0.00628
C 0.05737 4.23398 -0.0345
C 0.00988 2.73688 -0.00931
C 1.24361 2.08804 -0.00939
C 1.30701 0.69374 -0.00468
C 1.22342 19.15483 -0.01678
C 0.04545 19.88007 0.01951
C 0.01204 21.30495 -0.02213
C 1.20703 22.02824 0.02712
C 32.02044 7.14169 0.01504
C 33.19858 6.41184 -0.00069
C 33.2589 5.01014 0.04926
C 31.94269 4.31763 -0.03838
C 31.96266 2.83437 0.00349
C 33.19539 2.13201 -0.00323
C 33.26703 0.76638 -0.00841
C 32.02295 0.00706 0.0001
C 33.19439 9.14748 0.04381
C 34.40854 32.68793 -0.02927
C 1.24264 30.55453 0.01027
C 0.03768 29.88179 0.01831
C 34.38531 28.32446 -0.01037
C 1.16788 27.69944 -0.00439
C 1.2242 26.26567 -0.00598
C 0.03014 25.54753 -0.05239
C 34.35468 24.1245 0.03076
C 1.14693 23.45829 0.00723
C 1.16378 31.91068 -0.01404
C 29.50149 21.28409 -0.03039
C 30.74431 21.998 -0.01415
C 30.73292 23.47599 -0.01854
C 24.57826 21.34493 -0.00178
C 24.60366 19.88085 0.00768
C 25.7866 19.13828 -0.0276
C 25.72869 17.73509 0.03005
C 24.46592 17.08815 -0.04078
C 24.57152 15.64497 0.02117
C 25.85551 14.86282 0.02737
C 25.81097 13.4767 -0.00498
C 24.51946 12.77202 0.00135
C 24.61891 11.47051 0.03102
C 25.75416 10.71347 0.02555
C 25.80132 9.22189 0.01423
C 24.47343 7.02599 -0.00285
C 25.83109 6.45255 -0.009
C 25.78776 4.99822 -0.01199
C 24.62698 4.25607 -0.00229
C 24.53931 2.82755 -0.00938
C 25.81671 22.01668 0.00733
C 25.80183 23.48056 -0.02118
C 24.56478 24.15939 -0.01971
C 24.60962 25.55978 -0.01586
C 23.29063 19.08341 -0.01662
C 23.25666 17.71381 -0.01185
C 23.42603 14.79624 0.01126
C 23.43883 13.67366 0.01852
C 23.29571 6.36755 -0.00381
C 23.33196 4.96669 0.03046
C 22.14068 4.18948 0.0296
C 22.13168 2.76626 0.03374
C 25.8046 2.1434 -0.0264
C 23.39215 2.10839 -0.02845
C 22.15348 34.02708 0.02239
C 24.58461 32.66659 0.01153
C 25.82651 31.88327 0.02734
C 25.84701 30.43984 -0.0055
C 24.57054 29.76671 0.01515
C 24.5376 28.36596 -0.00225
C 25.83638 27.68343 0.00071
C 25.86826 26.27856 -0.01107
C 23.34684 0.74216 -0.03213
C 25.70914 0.69667 -0.01154
C 24.53444 34.06071 0.00684
C 27.05091 32.56986 -0.01052
C 26.97812 8.54891 0.02611
C 27.12389 7.0968 0.02198
C 28.30208 6.37799 0.01094
C 28.14402 4.95309 0.00235
C 26.98812 4.19398 0.01495
C 27.06101 2.77186 0.01259
C 28.30034 2.10277 0.01799
C 28.30488 0.65715 0.01699
C 28.33962 9.19267 -0.00621
C 27.06129 34.02013 -0.00416
C 30.71302 31.94749 0.04266
C 30.76927 30.43536 0.01324
C 29.49971 29.77689 0.0014
C 29.51847 28.39368 0.00924
C 30.7882 27.62945 0.02326
C 30.79102 26.20579 0.00261
C 29.50194 25.47686 0.03265
C 29.47931 24.13015 -0.02049
C 29.55695 32.65311 0.01177
C 22.1286 21.24162 0.01511
C 28.32115 10.66403 0.00194
C 27.0494 12.80019 0.02316
C 28.27616 31.9517 -0.01679
C 28.37224 30.52877 0.00367
C 27.1208 29.84256 0.04306
C 27.10079 28.4597 0.00996
C 28.29377 27.71081 0.00195
C 28.32246 26.1945 -0.00802
C 27.07168 25.54583 -0.00218
C 27.05852 24.15152 -0.01654
C 27.03858 11.41348 0.04185
C 28.24901 23.40868 -0.00037
C 27.07072 21.33812 0.00622
C 27.02091 19.93245 -0.02815
C 28.29074 19.18077 -0.00942
C 28.30302 17.787 0.00487
C 27.01258 17.12011 0.00826
C 27.07526 15.60598 -0.00294
C 28.32039 14.98474 0.00152
C 28.30191 13.49928 0.01257
C 28.30079 21.97354 -0.0032
C 2.34793 32.61292 -0.00966
