372
Graphene
C 34.27766 0.0376 0.01295
C 12.23598 21.29326 0.00244
C 12.25202 19.84217 -0.01717
C 13.50292 19.22433 0.05265
C 13.58998 17.75208 -0.01952
C 12.31403 17.21331 -0.02813
C 13.4024 0.75811 0.00374
C 12.29957 34.04464 0.00052
C 14.75489 32.68457 -0.03682
C 16.00649 32.01782 0.01965
C 16.08788 30.65219 0.02058
C 14.82149 29.9309 -0.01957
C 14.74705 28.43166 -0.0108
C 15.97609 27.68562 -0.00368
C 15.99499 26.28294 -0.02696
C 14.81685 25.52642 -0.00114
C 14.69988 24.10544 0.00228
C 15.98828 23.4461 0.00798
C 16.03815 22.00365 0.00422
C 14.65183 21.50922 0.0351
C 13.46337 22.06724 0.02299
C 14.77834 19.96722 -0.03113
C 13.43138 23.4551 0.03542
C 12.32772 25.59015 0.01945
C 9.84188 24.18438 -0.02689
C 10.98221 23.41538 -0.01046
C 10.98005 21.93992 -0.00891
C 9.72293 21.2706 0.02819
C 9.847 19.80773 0.00165
C 11.02338 19.09831 -0.02971
C 10.97173 17.52417 0.02894
C 9.6613 16.8115 -0.01789
C 9.69539 2.85683 0.00444
C 10.82425 2.02725 -0.00925
C 11.05362 0.72697 0.01877
C 9.73495 0.10764 0.01363
C 12.25366 32.66121 -0.02162
C 13.53984 31.99473 0.00415
C 13.55588 30.62382 -0.0014
C 12.28277 29.89093 0.02162
C 12.30834 28.32849 0.0076
C 13.5533 27.64078 0.01241
C 13.59893 26.24677 -0.01454
C 12.26649 24.2271 0.01416
C 15.94862 19.14833 0.02098
C 15.99729 17.78652 0.01848
C 15.81807 0.83073 -0.00619
C 20.90152 26.25126 -0.01581
C 19.62881 25.56341 0.01452
C 19.68359 24.07069 0.04892
C 20.88718 23.36783 -0.00111
C 20.94369 21.97792 -0.03557
C 19.6917 21.24952 0.03754
C 19.71745 19.77614 0.01739
C 20.94697 19.06783 0.00755
C 20.94713 17.68429 -0.0054
C 19.68973 16.90404 0.00667
C 19.61945 15.62793 0.00143
C 20.84369 14.85018 -0.017
C 20.96656 13.42248 0.00364
C 20.60874 4.68006 -0.00831
C 19.66077 2.78112 -0.02957
C 20.76491 1.79803 -0.04422
C 20.58828 0.17884 0.00654
C 19.28823 33.59216 -0.00703
C 21.91948 32.11432 -0.04076
C 20.95043 27.6855 0.02691
C 19.7841 28.5223 -0.01979
C 19.89491 30.13463 0.02188
C 21.27532 30.87717 -0.00316
C 14.66703 0.06207 -0.02162
C 17.1847 32.67612 0.00889
C 18.61883 32.3314 -0.00481
C 18.62003 30.85985 0.00979
C 17.31407 29.96743 0.01443
C 17.26218 28.5435 0.03505
C 18.52777 27.8495 -0.02815
C 18.38921 26.3512 -0.04147
C 17.27239 25.59228 -0.05302
C 9.88259 25.634 -0.01536
C 17.16083 24.18864 0.00213
C 18.43472 21.90186 -0.00289
C 17.18646 21.25742 0.00028
C 17.25169 19.85067 -0.02213
C 18.43509 19.07052 0.03698
C 18.47549 17.65659 -0.00109
C 17.21663 17.12631 -0.00491
C 18.56573 1.89459 0.03338
C 18.39559 0.61864 -0.0258
C 17.08927 0.13803 -0.0331
C 18.47597 23.37767 -0.00066
C 23.28341 31.85089 -0.00652
C 11.13616 26.34889 0.03101
C 9.82084 28.46888 -0.02245
C 3.5821 6.43573 0.03368
C 3.67807 5.02424 -0.02929
C 2.40762 4.37013 -0.00966
C 2.37989 2.87835 -0.03337
C 3.60253 2.22426 0.01227
C 3.52935 0.71521 0.00873
C 2.28044 0.0995 -0.00049
C 4.85002 32.6693 0.00848
C 6.12234 31.97988 -0.01303
C 6.10356 30.60848 -0.01378
C 4.84988 29.93958 0.02635
C 4.83956 28.49305 0.0127
C 6.08829 27.834 0.01396
C 6.08033 26.28178 0.01849
C 4.84047 25.58075 -0.01142
C 4.91682 24.17446 -0.00562
C 6.20413 23.43653 -0.00494
C 6.11101 22.02542 0.00054
C 4.88828 21.373 0.03007
C 2.45433 7.14662 -0.00077
C 4.91268 19.9612 -0.00095
C 2.43169 8.57938 0.01305
C 3.70395 10.81433 0.00988
C 3.61114 30.6485 0.03828
C 2.37744 29.84251 0.01226
C 2.40909 28.41551 -0.00279
C 3.65813 27.76875 0.01996
C 3.63788 26.2967 -0.03996
C 2.41012 25.61769 0.01465
C 2.33553 24.19135 -0.00074
C 3.64701 23.47726 -0.00518
C 3.54585 22.10044 0.0086
C 2.45982 21.37618 -0.00643
C 2.4844 19.92397 0.017
C 3.77222 19.27887 -0.03113
C 3.74417 17.76801 -0.02566
C 2.53584 17.10622 -0.00094
C 2.43456 15.71495 0.02322
C 3.69398 15.03589 -0.00725
C 3.68132 13.64403 -0.05697
C 2.41487 12.82292 0.01087
C 2.47423 11.45412 -0.01343
C 3.72524 9.30616 0.0276
C 6.16507 19.27399 0.01572
C 6.20769 17.89344 -0.04848
C 4.91665 17.16439 -0.00892
C 7.33208 24.20689 -0.01634
C 8.55037 23.52615 -0.00334
C 8.58419 22.07015 0.02339
C 7.34962 21.35157 0.01641
C 7.45131 19.94244 -0.00719
C 8.67736 19.11933 0.01364
C 8.62925 17.75961 -0.01062
C 7.3684 17.18797 -0.00033
C 7.58635 15.71536 0.03589
C 8.88157 15.40635 -0.02759
C 7.2375 4.24098 0.0402
C 7.21806 2.91852 0.00572
C 8.48464 2.19213 0.03592
C 8.50516 0.75665 0.00406
C 7.28533 0.06925 0.00943
C 9.81373 32.7682 0.02841
C 11.01692 32.03908 -0.01111
C 11.01127 30.58673 -0.01275
C 9.82033 29.88363 0.00985
C 7.34247 25.6815 0.00057
C 8.61654 26.32644 0.00093
C 8.59676 27.70464 0.01291
C 7.34888 28.53805 0.00438
C 5.03528 15.72185 -0.01362
C 6.28797 14.96219 -0.0008
C 6.10648 13.61868 0.0288
C 4.94589 12.90864 0.00393
C 4.93794 11.50786 0.00895
C 6.11809 10.82826 0.00685
C 6.10892 9.38082 0.02888
C 4.93766 8.6478 -0.00482
C 4.9352 7.14665 -0.01384
C 11.02313 27.70864 -0.00428
C 6.10151 6.54123 0.03693
C 4.8662 4.28462 0.00488
C 4.87491 2.8486 -0.01004
C 6.00974 2.08047 -0.02896
C 6.0359 0.74387 -0.00131
C 4.87378 0.01922 -0.01118
C 7.36014 32.72918 -0.014
C 8.62044 32.05199 0.02147
C 8.62718 30.66891 0.00373
C 7.36443 29.9195 -0.00191
C 6.14681 5.06763 0.01745
C 23.4615 30.35645 0.0058
C 22.21498 29.89747 -0.00865
C 22.12337 28.37361 0.00675
C 29.38412 2.84488 0.00716
C 30.59845 2.23728 0.00307
C 30.5912 0.74548 0.00346
C 29.38523 0.01817 0.01713
C 31.90027 32.67385 -0.01694
C 33.1215 32.04406 0.01428
C 33.07358 30.53655 -0.02142
C 31.89693 29.88135 0.0544
C 31.97323 28.47413 0.00026
C 33.19084 27.70944 0.00682
C 33.15413 26.2626 -0.01779
C 31.87667 25.50046 0.03794
C 31.43766 24.13872 0.01927
C 32.72432 23.21505 0.01574
C 32.86935 21.63292 -0.02383
C 32.19053 20.1402 -0.01429
C 33.24555 19.19822 -0.0136
C 33.26994 17.75198 0.00594
C 31.99334 17.09951 -0.02474
C 29.39878 4.27132 0.02108
C 31.92254 15.69648 0.00369
C 30.69133 5.03263 0.0103
C 29.41895 7.09764 0.01908
C 29.46164 29.80914 0.00261
C 29.45504 28.43848 0.03265
C 30.73509 27.86316 -0.02049
C 30.81195 26.41461 -0.01854
C 29.63347 25.57221 -0.01415
C 30.00118 24.22641 -0.03039
C 29.5175 21.26529 0.01836
C 29.64816 19.96174 0.03531
C 30.91542 19.47793 -0.00669
C 30.82324 17.92698 0.0101
C 29.62795 17.07822 0.01705
C 29.4499 15.64062 -0.0405
C 30.75074 14.93848 -0.01303
C 30.76415 13.47732 -0.01461
C 29.50986 12.80547 -0.02155
C 29.5201 11.29301 -0.00944
C 30.79735 10.61563 -0.03735
C 30.71428 9.27931 -0.00971
C 29.42767 8.52638 0.01518
C 30.67546 6.44744 0.07705
C 33.09933 14.90155 0.00455
C 33.20513 13.55019 -0.00644
C 31.99821 12.83296 -0.01839
C 34.4279 19.8896 0.01951
C 1.32228 19.2052 -0.01678
C 1.2126 17.80861 0.01223
C 0.00054 17.06954 0.00648
C 34.40273 15.58825 0.02114
C 1.14903 14.83743 -0.02957
C 1.21236 13.49476 0.00343
C 34.40675 12.81337 -0.02656
C 0.03393 11.38476 -0.02442
C 1.24064 10.71409 -0.00027
C 1.24612 9.29423 -0.00583
C 34.40825 8.55017 -0.02302
C 34.41579 7.16964 -0.02849
C 1.21636 6.47266 0.02931
C 1.17094 4.98694 0.00628
C 34.37902 4.31073 -0.0345
C 34.28719 2.83446 -0.00931
C 1.07391 2.20763 -0.00939
C 1.05145 0.78108 -0.00468
C 34.28513 21.30435 -0.02213
C 1.05821 22.04968 0.02712
C 1.05367 23.47187 0.00723
C 34.12339 24.02802 0.03076
C 32.02648 11.44205 0.00137
C 33.24603 10.6262 0.00199
C 33.1821 9.23771 0.04381
C 31.89116 8.54287 0.02806
C 31.93191 7.13602 0.01504
C 33.19989 6.39045 -0.00069
C 33.13493 4.96031 0.04926
C 31.90444 4.33888 -0.03838
C 31.90837 2.84875 0.00349
C 30.6573 30.57136 0.02326
C 33.09452 2.1516 -0.00323
C 31.80264 0.02942 0.0001
C 34.33192 32.70707 -0.02927
C 1.08847 32.013 -0.01404
C 1.1428 30.52716 0.01027
C 34.33603 29.86333 0.01831
C 34.41826 28.44211 -0.01037
C 1.1728 27.71368 -0.00439
C 1.10258 26.2463 -0.00598
C 34.29124 25.45899 -0.05239
C 33.09634 0.73182 -0.00841
C 30.66975 32.00544 0.00924
C 29.41359 32.65776 0.0014
C 26.97936 34.06954 0.01324
C 23.172 1.94228 0.02239
C 23.10359 0.49556 0.01153
C 21.89097 33.61893 0.02734
C 24.48488 32.59347 -0.0055
C 25.65798 31.89519 0.01515
C 25.81546 30.46033 -0.00225
C 24.65507 29.65905 0.00071
C 24.62011 28.30103 -0.01107
C 25.85645 27.65803 -0.01586
C 25.78892 26.14265 -0.01971
C 24.53361 25.56313 -0.02118
C 24.72677 24.13356 0.00733
C 25.96903 23.45921 -0.00178
C 25.89649 21.99474 0.00768
C 24.64911 21.30931 -0.0276
C 24.65507 19.90776 0.03005
C 25.91132 19.20592 -0.04078
C 25.90975 17.72933 0.02117
C 24.57181 17.03802 0.02737
C 21.90669 2.62421 -0.03213
C 21.84325 4.08187 -0.02845
C 23.2106 4.80606 0.03374
C 23.19144 6.20807 0.0296
C 23.38064 27.66577 -0.00311
C 23.2758 26.22814 0.00742
C 22.05929 25.48545 -0.01594
C 22.16756 24.02047 0.0106
C 23.45308 23.3852 -0.01154
C 23.41756 21.94539 -0.01721
C 22.15063 21.27048 -0.02422
C 22.17362 19.82114 0.01277
C 23.45664 19.15926 0.00096
C 24.53587 15.58037 -0.00498
C 23.39449 17.70588 -0.01527
C 22.0778 15.56794 0.00199
C 23.35017 14.85386 0.01511
C 23.36797 13.40828 -0.00478
C 22.04963 12.62259 -0.01662
C 21.94913 11.15633 -0.01185
C 23.27008 10.5526 0.01126
C 23.29935 9.17224 0.01852
C 22.1404 8.3467 -0.00381
C 21.99845 6.99502 0.03046
C 22.09832 16.91955 0.01087
C 3.5979 32.02122 0.0174
C 25.79764 14.84634 0.00135
C 24.56035 12.73431 0.02555
C 27.15268 19.83494 0.00826
C 28.49016 19.16984 -0.00294
C 28.38887 17.77417 0.00152
C 27.12238 17.04646 0.01257
C 27.10948 15.56789 0.02316
C 28.31237 14.93664 0.04185
C 28.30266 13.47573 0.00194
C 27.05629 12.76703 -0.00621
C 26.99565 11.30444 0.02611
C 28.25777 10.60249 0.02198
C 28.21146 9.20134 0.01094
C 26.9345 8.42954 0.00235
C 26.99819 7.01158 0.01495
C 28.18906 6.46105 0.01259
C 28.19239 4.97711 0.01799
C 26.92122 4.28792 0.01699
C 26.90817 2.81747 -0.00416
C 28.21898 2.14466 0.01177
C 28.1279 0.75431 0.04266
C 27.1332 21.25547 0.00487
C 28.51338 22.05173 -0.00942
C 28.6522 23.47691 -0.02815
C 27.25445 24.06878 0.00622
C 24.52468 11.29292 0.01423
C 25.8257 10.52978 -0.00285
C 25.76869 9.12696 -0.009
C 24.517 8.47974 -0.01199
C 24.50475 6.98133 -0.00229
C 25.67196 6.31868 -0.00938
C 25.67953 4.91544 -0.0264
C 24.3936 4.14342 -0.01154
C 24.50222 2.73306 0.00684
C 25.81803 13.48012 0.03102
C 25.68662 2.01967 -0.01052
C 24.44928 33.96832 0.00367
C 26.93106 32.70018 0.04306
C 28.14868 31.96959 0.00996
C 28.23973 30.61797 0.00195
C 26.99281 29.77892 -0.00802
C 27.04145 28.3474 -0.00218
C 28.25519 27.69726 -0.01654
C 28.27268 26.23496 -0.00037
C 27.03481 25.44702 -0.0032
C 25.68794 0.61219 -0.01679
C 2.3395 32.71577 0.0073
