290
Graphene
C 34.30919 0.02343 0.01295
C 13.5128 0.7865 0.00143
C 12.29743 0.16407 -0.017
C 14.76938 32.68454 0.00364
C 15.98565 31.92214 -0.00831
C 16.00374 30.50415 -0.02957
C 14.76423 29.78899 -0.04422
C 12.20608 19.8099 0.00667
C 14.71216 28.32843 0.00654
C 16.14853 26.31875 -0.04076
C 14.90038 25.57771 -0.00652
C 14.76654 24.10472 0.0058
C 16.0002 0.72418 -0.00865
C 14.75399 0.16591 0.00675
C 17.23053 32.68868 -0.00311
C 16.07604 27.66683 -0.00703
C 18.42849 31.95124 0.00742
C 12.41258 21.22581 -0.0054
C 13.76106 23.27629 0.01739
C 11.12062 19.30715 -0.00491
C 9.87033 2.86511 0.03338
C 10.84989 2.2954 -0.0258
C 11.10361 0.96531 -0.0331
C 9.85188 0.19465 -0.00316
C 12.33537 32.73488 0.02188
C 13.59389 21.94876 0.00755
C 13.58957 31.92817 -0.01979
C 12.34416 29.84892 -0.01581
C 12.27372 28.34404 0.01452
C 13.49343 27.62952 0.04892
C 13.58056 26.23914 -0.00111
C 12.33238 25.4626 -0.03557
C 12.33272 24.0423 0.03754
C 13.55074 30.53307 0.02691
C 9.88103 19.72386 -0.00109
C 18.48175 30.52562 -0.01594
C 17.32859 28.4493 -0.01154
C 23.32276 31.91667 -0.03213
C 23.30217 30.52438 0.02239
C 21.98893 29.74317 0.01153
C 21.93074 28.24946 0.02734
C 23.25289 27.63992 -0.0055
C 23.42314 26.16146 0.01515
C 22.12088 32.61014 -0.02845
C 23.45053 6.37263 -0.00225
C 21.98373 4.33262 -0.01107
C 21.98176 2.96657 -0.01586
C 23.31506 2.16506 -0.01971
C 23.37309 0.72307 -0.02118
C 22.14788 0.08626 0.00733
C 24.54326 32.68452 -0.00178
C 23.07685 5.09535 0.00071
C 17.25168 29.82999 0.0106
C 19.67559 34.04325 0.03374
C 20.80994 2.1825 0.03046
C 18.48593 27.65474 -0.01721
C 18.7469 26.24479 -0.02422
C 17.42568 25.66453 0.01277
C 18.48781 2.04026 0.00096
C 18.37295 0.62897 -0.01527
C 17.21087 34.01624 0.01087
C 20.91696 0.71023 0.0296
C 19.62515 32.62442 0.00199
C 20.83217 30.54898 -0.00478
C 19.63169 29.80639 -0.01662
C 19.647 28.43868 -0.01185
C 20.78079 27.47885 0.01126
C 20.22866 26.10564 0.01852
C 19.44515 2.60303 -0.00381
C 20.8454 31.95274 0.01511
C 9.80128 21.22019 0.03698
C 11.00487 21.8888 -0.02213
C 11.14908 23.27936 0.00028
C 3.55566 0.73216 -0.01789
C 2.35795 34.03151 0.00444
C 4.97624 32.7691 -0.00925
C 6.20432 32.05121 0.01877
C 6.14971 30.58762 0.01363
C 4.88465 29.88745 -0.02162
C 3.36382 2.07533 0.02894
C 4.86103 28.49171 0.00415
C 6.19687 26.2976 0.02162
C 4.99167 25.52076 0.0076
C 4.94109 24.12828 0.01241
C 6.25876 23.40303 -0.01454
C 6.18387 21.98219 0.01945
C 4.95136 21.29413 0.01416
C 6.15054 27.68517 -0.0014
C 4.89662 19.90565 0.03542
C 2.25229 2.8164 -0.02971
C 2.45143 15.7503 0.02819
C 3.67551 30.6178 0.03592
C 2.45276 29.90985 0.00406
C 2.3983 28.42688 0.00943
C 3.61897 27.73867 0.02841
C 3.68581 26.24265 -0.01111
C 2.46443 25.58803 -0.01275
C 2.44776 4.14756 0.00165
C 2.43732 24.10046 0.00985
C 3.66317 21.99453 -0.00428
C 2.40228 21.35286 0.03101
C 2.40055 19.94187 -0.01536
C 3.67526 19.18572 -0.02689
C 3.64378 17.83112 -0.01046
C 2.41796 17.19983 -0.00891
C 3.70011 23.39637 -0.02245
C 6.09206 19.12484 0.02299
C 5.87591 17.50364 0.00244
C 4.67651 16.95369 -0.01717
C 7.25452 17.08774 0.01848
C 7.14283 2.93619 -0.00619
C 8.3626 2.396 -0.02162
C 8.51721 0.88924 0.00889
C 7.19659 0.24121 -0.00481
C 9.87721 32.75961 0.00979
C 8.26066 17.68799 0.02098
C 11.10968 32.08414 0.01443
C 9.84685 29.89408 -0.02815
C 9.91064 28.40277 -0.04147
C 11.09211 27.70202 -0.05302
C 11.20437 26.26288 0.00213
C 9.93595 25.51637 -0.00066
C 9.90675 24.06144 -0.00289
C 11.05408 30.60301 0.03505
C 8.60783 19.01126 -0.03113
C 7.32064 19.73703 0.0351
C 7.3582 21.24873 0.00422
C 4.56105 2.89625 0.05265
C 5.90367 2.45224 -0.01952
C 6.01376 0.98136 -0.02813
C 4.85086 0.11609 0.00374
C 7.31536 32.8099 0.00052
C 8.61921 32.18965 -0.03682
C 8.60576 30.70728 0.01965
C 7.36851 29.85964 0.02058
C 7.36931 28.38606 -0.01957
C 8.65144 27.73482 -0.0108
C 8.70022 26.30494 -0.00368
C 7.4626 25.56883 -0.02696
C 7.5301 24.1106 -0.00114
C 8.69522 23.35512 0.00228
C 8.61086 21.94671 0.00798
C 25.67595 31.92181 0.00768
C 25.78739 30.45251 -0.0276
C 24.52241 29.81028 0.03005
C 24.50541 28.42428 -0.04078
C 33.15537 22.07789 -0.01429
C 31.92422 21.34542 -0.0136
C 31.98668 19.94356 0.00594
C 33.20212 19.21871 -0.02474
C 33.19198 17.71396 0.00369
C 31.95977 16.98103 0.00455
C 33.16077 23.51484 -0.02383
C 31.93059 15.60663 -0.00644
C 33.16173 13.44042 0.00137
C 31.86966 12.85339 0.00199
C 31.88274 11.46558 0.04381
C 33.13253 10.68294 0.02806
C 33.08872 9.33468 0.01504
C 31.87517 8.5706 -0.00069
C 33.14543 14.92348 -0.01839
C 31.89105 7.1026 0.04926
C 31.91059 24.24964 0.01574
C 33.19029 26.36494 0.03794
C 29.42419 7.17502 0.07705
C 30.5831 6.41736 0.0103
C 30.63252 4.97349 0.02108
C 29.42865 4.25823 0.00716
C 29.38597 2.84209 0.00307
C 30.69549 2.20286 0.00346
C 31.94523 25.59336 0.01927
C 30.68292 0.79033 0.01713
C 31.8494 32.68932 0.01428
C 33.10539 31.94483 -0.02142
C 33.1243 30.56719 0.0544
C 31.94339 29.86033 0.00026
C 31.9023 28.45209 0.00682
C 33.18717 27.74338 -0.01779
C 29.42543 0.04423 -0.01694
C 33.13316 6.47165 -0.03838
C 33.14477 5.10786 0.00349
C 31.86595 4.33035 -0.00323
C 34.43187 17.03512 -0.02957
C 0.01219 15.65018 0.00343
C 1.35118 14.83003 -0.02656
C 1.21496 13.51214 -0.02442
C 0.07032 12.70875 -0.00027
C 34.36235 11.27609 -0.00583
C 1.14906 17.83284 0.02114
C 34.35939 8.70076 -0.02302
C 1.25985 6.51741 0.02931
C 1.32498 5.03327 0.00628
C 34.39041 4.30302 -0.0345
C 34.33403 2.89671 -0.00931
C 1.08709 2.13569 -0.00939
C 1.10392 0.73484 -0.00468
C 0.09582 7.33834 -0.02849
C 1.12173 19.18477 0.00648
C 34.35483 19.96127 0.01223
C 34.3782 21.40264 -0.01678
C 31.87987 2.9252 -0.00841
C 33.06092 2.14939 0.0001
C 33.09261 0.75505 -0.02927
C 31.90448 0.03314 -0.01404
C 34.28117 32.67948 0.01027
C 1.09029 31.95228 0.01831
C 1.16626 30.59145 -0.01037
C 34.37605 29.89388 -0.00439
C 34.38805 28.51787 -0.00598
C 1.17793 27.77854 -0.05239
C 1.2559 26.3472 0.03076
C 0.04308 25.66209 0.00723
C 34.4004 24.20444 0.02712
C 1.17214 23.4003 -0.02213
C 1.20291 22.06635 0.01951
C 29.41921 8.62548 0.01908
C 3.67753 32.04832 0.00572
C 30.6632 9.33609 0.01518
C 29.43794 11.49007 -0.03735
C 26.97494 32.72503 0.04306
C 28.1257 32.02303 0.00996
C 28.15181 30.60695 0.00195
C 26.98727 29.84015 -0.00802
C 27.00177 28.43609 -0.00218
C 28.23883 27.65094 -0.01654
C 24.54585 0.09885 0.00367
C 28.23092 26.19844 -0.00037
C 27.0465 24.0222 0.00622
C 28.17896 23.19906 -0.02815
C 28.18613 21.82477 -0.00942
C 27.40106 20.70128 0.00487
C 28.402 19.34603 0.00826
C 28.1058 17.95039 -0.00294
C 26.93982 25.42806 -0.0032
C 26.97096 17.19689 0.00152
C 25.73825 0.78239 -0.01679
C 24.49263 2.97169 0.00684
C 25.69352 27.62653 0.02117
C 25.72857 26.08115 0.02737
C 24.39811 25.52874 -0.00498
C 25.70581 15.0106 0.00135
C 25.59371 13.6803 0.03102
C 24.68544 12.77959 0.02555
C 25.67715 2.1488 -0.01052
C 24.51429 11.55329 0.01423
C 25.7553 9.38101 -0.009
C 24.55532 8.62144 -0.01199
C 24.49376 7.26093 -0.00229
C 25.73685 6.51851 -0.00938
C 25.6673 5.03814 -0.0264
C 24.48356 4.44028 -0.01154
C 25.71102 10.73158 -0.00285
C 26.79868 15.85198 0.01257
C 28.16337 15.15874 0.02316
C 28.21202 13.62316 0.04185
C 30.67677 26.26916 -0.02049
C 29.48616 25.45775 -0.01854
C 29.37604 24.05581 -0.01415
C 30.71651 23.51416 -0.03039
C 30.69335 22.07624 0.01836
C 29.54453 21.36117 0.03531
C 30.71928 27.69386 0.03265
C 29.64266 19.88095 -0.00669
C 30.67797 17.77762 0.01705
C 29.38582 17.25463 -0.0405
C 29.40382 15.89542 -0.01303
C 30.60877 15.06533 -0.01461
C 30.67943 13.64662 -0.02155
C 29.52734 12.86746 -0.00944
C 30.79877 19.22773 0.0101
C 29.46563 28.4298 0.00261
C 29.42339 29.8741 0.02326
C 30.6939 30.59476 0.00924
C 26.95008 12.93251 0.00194
C 26.90196 11.41822 -0.00621
C 28.22057 10.74905 0.02611
C 28.16975 9.34888 0.02198
C 26.96664 8.61008 0.01094
C 27.00456 7.15232 0.00235
C 28.24564 6.43643 0.01495
C 28.23198 5.01828 0.01259
C 26.97538 4.34196 0.01799
C 26.92763 2.94745 0.01699
C 28.10713 2.16035 -0.00416
C 28.13015 0.77765 0.01177
C 26.91844 0.10306 0.04266
C 29.42001 32.69664 0.01324
C 30.61659 32.04376 0.0014
C 30.68377 10.69799 -0.00971
C 2.37475 32.66012 0.0402
