313
Graphene
C 0.01385 0.01898 0.01295
C 11.09638 6.36039 -0.0331
C 11.0068 5.03099 -0.00316
C 9.8331 4.28133 0.02188
C 9.87636 2.81659 -0.01979
C 11.107 2.18675 0.02691
C 11.09197 0.72729 -0.01581
C 9.8091 34.06268 0.01452
C 12.2809 32.63158 0.04892
C 13.53217 31.88953 -0.00111
C 13.51374 30.49657 -0.03557
C 12.3496 29.84331 0.03754
C 12.33253 28.36374 0.01739
C 13.53548 27.67153 0.00755
C 13.57707 26.24117 -0.0054
C 12.26865 25.61631 0.00667
C 9.84741 7.07467 -0.0258
C 11.0441 13.44172 0.03338
C 11.02921 14.85703 -0.00491
C 9.86603 15.52867 -0.00109
C 9.81105 32.6573 -0.00619
C 11.0454 31.99141 -0.02162
C 11.06564 30.51458 0.00889
C 9.8039 29.85863 -0.00481
C 9.77292 28.42683 0.00979
C 11.09399 27.73373 0.01443
C 11.07092 26.26521 0.03505
C 12.3272 24.13955 0.00143
C 9.84116 25.55869 -0.02815
C 11.05698 23.46216 -0.05302
C 11.06746 21.99416 0.00213
C 9.84715 21.30415 -0.00066
C 9.8462 19.93188 -0.00289
C 11.09599 19.17659 0.00028
C 11.07558 17.78622 -0.02213
C 9.84679 17.01042 0.03698
C 9.86274 24.15338 -0.04147
C 7.39998 34.07859 0.01848
C 13.58077 23.40238 -0.017
C 12.30419 21.27148 -0.00831
C 14.75851 32.66354 0.00199
C 15.98529 31.91439 0.01511
C 15.94688 30.51661 -0.00478
C 14.75555 29.80931 -0.01662
C 14.79725 28.38979 -0.01185
C 16.03063 27.68746 0.01126
C 14.7537 25.54173 0.01852
C 14.74225 15.65717 -0.00381
C 15.98806 13.48374 0.03046
C 14.75975 12.74014 0.0296
C 14.74866 11.31999 0.03374
C 15.99287 10.66923 -0.02845
C 15.98913 9.19928 -0.03213
C 14.74175 8.57833 0.02239
C 14.77165 7.11682 0.01153
C 12.31985 34.03709 0.01087
C 13.55013 0.75481 -0.01527
C 13.49885 2.08182 0.00096
C 12.31266 2.83128 0.01277
C 12.31331 19.89101 -0.02957
C 13.54438 19.13728 -0.04422
C 13.48782 17.79922 0.00654
C 12.2725 16.9965 -0.00703
C 12.32807 15.58044 -0.04076
C 13.58071 14.90548 -0.00652
C 13.52611 13.50507 0.0058
C 13.50766 22.06506 0.00364
C 12.26035 12.77338 -0.00865
C 13.47337 10.67904 -0.00311
C 13.52164 9.24954 0.00742
C 12.31581 8.48237 -0.01594
C 12.3299 7.05939 0.0106
C 13.53481 6.40345 -0.01154
C 13.51999 4.98576 -0.01721
C 12.26945 4.2816 -0.02422
C 12.35066 11.37752 0.00675
C 8.60558 0.70432 0.02098
C 8.60438 2.07912 -0.03113
C 7.36874 2.80569 0.0351
C 3.67723 9.22972 -0.02759
C 2.49527 8.54502 0.0402
C 2.42415 7.09266 0.00572
C 3.64644 6.42 0.03592
C 3.64446 4.99302 0.00406
C 2.4513 4.24073 0.00943
C 2.41273 2.85836 0.02841
C 3.68121 2.14085 -0.01111
C 3.71941 0.73784 -0.01275
C 2.45204 34.07783 0.00985
C 4.90765 32.63484 -0.02245
C 6.10582 31.956 -0.00428
C 6.15404 30.51828 0.03101
C 4.87509 29.79163 -0.01536
C 4.92694 28.38325 -0.02689
C 3.70564 10.64204 0.03589
C 2.43311 11.40207 -0.00033
C 2.498 12.79873 -0.01062
C 3.66201 13.51965 0.01364
C 3.66727 30.56761 -0.02896
C 2.47028 29.87311 -0.00131
C 2.48344 28.33919 -0.01118
C 3.66214 27.70003 -0.014
C 3.66308 26.28823 0.02147
C 2.44461 25.57021 0.00373
C 2.46421 24.17039 -0.00191
C 6.17189 27.75012 -0.01046
C 3.73512 23.39762 0.00438
C 2.48226 21.32394 0.00093
C 2.47837 19.8881 0.00057
C 3.69716 19.19523 -0.01634
C 3.67523 17.80432 -0.00334
C 2.47992 17.07647 0.02339
C 2.46445 15.62349 0.01641
C 3.70312 14.91347 -0.00719
C 3.64483 22.04434 0.01291
C 6.20858 26.23344 -0.00891
C 4.97143 25.5692 0.02819
C 4.91241 24.14766 0.00165
C 8.67125 27.65449 0.05265
C 8.59911 26.23902 -0.01952
C 7.33175 25.5332 -0.02813
C 7.36717 24.18207 0.00374
C 8.59094 23.42566 0.00052
C 8.65444 22.01236 -0.03682
C 7.37552 21.31615 0.01965
C 7.42369 28.39767 -0.01717
C 7.364 19.83051 0.02058
C 8.63948 17.74306 -0.0108
C 7.33645 17.01391 -0.00368
C 7.37046 15.6279 -0.02696
C 8.58766 14.93326 -0.00114
C 8.6073 6.42158 0.00228
C 8.61818 4.99054 0.00798
C 7.34319 4.23846 0.00422
C 8.62224 19.18006 -0.01957
C 15.96893 6.39317 0.02734
C 7.39072 29.83323 0.00244
C 8.58807 31.95047 0.03542
C 6.1271 23.41318 -0.02971
C 6.13648 21.99201 0.02894
C 4.93206 21.32317 -0.01789
C 4.91629 19.8579 0.00444
C 6.13944 19.18792 -0.00925
C 6.15447 17.78711 0.01877
C 4.91222 17.04384 0.01363
C 8.67852 30.52662 0.02299
C 4.96091 15.59682 -0.02162
C 4.96169 7.13072 -0.0014
C 6.12825 6.33888 0.02162
C 4.9061 2.8006 0.0076
C 6.11391 2.13889 0.01241
C 6.1225 0.64541 -0.01454
C 4.91132 0.00656 0.01945
C 7.35743 32.70181 0.01416
C 6.10583 14.9381 0.00415
C 3.67163 31.92418 -0.01004
C 15.96405 4.97767 -0.0055
C 14.73285 2.85985 -0.00225
C 33.24942 23.4268 0.01927
C 33.20169 21.99426 0.01574
C 32.01576 21.28224 -0.02383
C 32.00554 19.93219 -0.01429
C 33.19856 19.17587 -0.0136
C 33.15513 17.78158 0.00594
C 32.0097 17.04325 -0.02474
C 31.99721 15.62609 0.00369
C 33.21695 14.90266 0.00455
C 33.25053 13.50258 -0.00644
C 31.93475 12.83322 -0.01839
C 31.9497 11.35928 0.00137
C 33.1939 10.65052 0.00199
C 33.13945 9.23842 0.04381
C 31.98956 8.53177 0.02806
C 33.22354 26.29561 0.03794
C 33.21365 27.64998 -0.01779
C 31.9276 29.85643 0.00682
C 33.18656 30.56652 0.00026
C 30.76345 13.47461 -0.00944
C 29.47674 12.81777 -0.03735
C 29.47072 11.38111 -0.00971
C 30.7495 10.62865 0.01518
C 30.76734 9.23567 0.01908
C 29.49262 8.56023 0.07705
C 29.47435 7.09932 0.0103
C 31.9853 7.15583 0.01504
C 30.76125 6.37725 0.02108
C 29.51726 4.25629 0.00307
C 29.48394 2.81255 0.00346
C 30.72764 2.1232 0.01713
C 30.73688 0.73244 -0.01694
C 29.47104 34.07177 0.01428
C 31.95804 32.64854 -0.02142
C 33.20718 31.91188 0.0544
C 30.75211 4.98293 0.00716
C 30.73467 14.90516 -0.02155
C 33.20554 6.42309 -0.00069
C 31.97897 4.24128 -0.03838
C 34.41666 15.60869 0.02114
C 1.22383 14.9236 -0.02957
C 1.25726 13.50322 0.00343
C 0.01832 12.78054 -0.02656
C 34.40184 11.36218 -0.02442
C 1.2103 10.6844 -0.00027
C 1.2238 9.22457 -0.00583
C 34.38604 8.55877 -0.02302
C 0.02191 7.10089 -0.02849
C 1.22045 6.3379 0.02931
C 1.25161 4.93161 0.00628
C 34.42946 4.24338 -0.0345
C 0.00455 2.84461 -0.00931
C 1.26642 2.14597 -0.00939
C 1.24656 0.7025 -0.00468
C 34.4317 17.00088 0.00648
C 1.21061 17.75775 0.01223
C 1.2745 19.21334 -0.01678
C 34.43216 19.84188 0.01951
C 31.99989 2.84673 0.00349
C 33.20765 2.12668 -0.00323
C 33.19457 0.71007 -0.00841
C 31.98115 34.05199 0.0001
C 34.39918 32.66548 -0.02927
C 1.25903 31.93747 -0.01404
C 1.2076 30.49431 0.01027
C 33.18245 4.98785 0.04926
C 34.40146 29.79942 0.01831
C 1.20756 27.6786 -0.00439
C 1.2323 26.27848 -0.00598
C 0.00332 25.55105 -0.05239
C 0.00666 24.1415 0.03076
C 1.22898 23.47107 0.00723
C 1.2474 22.01638 0.02712
C 34.42469 21.24893 -0.02213
C 0.00782 28.4285 -0.01037
C 30.77743 30.51733 -0.01461
C 30.71848 31.9424 -0.01303
C 29.55912 32.66686 -0.0405
C 17.23296 34.06187 -0.01199
C 19.63754 32.68489 -0.00229
C 20.96543 32.03215 -0.00938
C 19.64547 11.36475 -0.0264
C 20.96301 10.70983 -0.01154
C 20.86669 9.24712 0.00684
C 19.66853 8.48939 -0.01052
C 19.7066 7.08009 -0.01679
C 20.92474 6.42947 0.00367
C 20.94933 4.98365 0.04306
C 19.64628 4.23613 0.00996
C 19.67613 2.85886 0.00195
C 20.91489 2.15471 -0.00802
C 20.93436 0.77267 -0.00218
C 19.64634 34.04135 -0.01654
C 18.42339 0.69544 -0.009
C 18.44922 2.11124 -0.00285
C 17.25706 2.8464 0.01423
C 17.16003 4.21461 0.02555
C 15.93319 2.17067 0.00071
C 15.97705 0.66882 -0.01107
C 14.74637 34.07157 -0.01586
C 17.20533 32.63779 -0.01971
C 18.42706 31.97737 -0.02118
C 18.42038 30.57447 0.00733
C 17.22686 29.78219 -0.00178
C 22.11793 32.62808 -0.00037
C 17.13502 28.3705 0.00768
C 17.17491 11.38646 0.03005
C 18.41944 10.64752 -0.04078
C 18.45517 9.2106 0.02117
C 17.23563 8.5263 0.02737
C 17.22696 7.15519 -0.00498
C 18.45425 6.42592 0.00135
C 18.44074 4.99592 0.03102
C 17.18619 12.82609 -0.0276
C 22.14422 11.36895 -0.0032
C 23.35557 10.6774 0.00622
C 23.37924 9.20339 -0.02815
C 24.63082 34.06396 0.04266
C 27.03533 32.64578 0.01324
C 28.25677 13.46072 0.0014
C 27.06456 12.77911 0.00924
C 27.06505 11.38565 0.02326
C 28.26666 10.60771 0.00261
C 28.27759 9.189 0.03265
C 25.75451 0.69583 0.01177
C 27.05055 8.48327 -0.02049
C 28.30126 6.41226 -0.01415
C 28.27748 4.95021 -0.03039
C 27.04374 4.23799 0.01836
C 27.05771 2.82965 0.03531
C 28.28923 2.0782 -0.00669
C 28.25168 0.72069 0.0101
C 27.07381 34.04043 0.01705
C 27.0671 7.10355 -0.01854
C 14.76987 4.28259 0.01515
C 25.81164 2.11138 -0.00416
C 24.61286 4.21395 0.01799
C 22.12791 8.49907 -0.00942
C 22.10461 7.08077 0.00487
C 23.35614 6.38611 0.00826
C 23.38385 4.96712 -0.00294
C 22.12966 4.27236 0.00152
C 22.10044 2.84956 0.01257
C 23.30709 2.09819 0.02316
C 24.58625 2.78733 0.01699
C 23.35458 0.69874 0.04185
C 24.62441 11.35851 -0.00621
C 25.85385 10.66091 0.02611
C 25.7638 9.2339 0.02198
C 24.5766 8.47508 0.01094
C 24.6127 7.09124 0.00235
C 25.81327 6.37073 0.01495
C 25.8524 4.9535 0.01259
C 22.16887 34.04855 0.00194
C 2.46217 32.66665 0.00488
