291
Graphene
C 34.32123 34.07035 0.01295
C 12.32897 32.66458 0.00667
C 13.59523 31.91556 0.00143
C 13.56426 30.49947 -0.017
C 12.27863 29.89292 0.00364
C 12.20018 28.38487 -0.00831
C 13.46381 27.7066 -0.02957
C 9.86553 0.02133 -0.0054
C 13.39852 26.3164 -0.04422
C 13.6289 9.10503 -0.00703
C 12.26954 8.66528 -0.04076
C 12.25089 7.1072 -0.00652
C 13.56722 6.44674 0.0058
C 13.52489 5.00619 -0.00865
C 12.3065 4.31234 0.00675
C 12.13268 25.78345 0.00654
C 12.38545 2.94893 -0.00311
C 11.15583 0.7627 0.00755
C 9.85547 2.82857 0.03754
C 9.79072 32.71152 -0.00109
C 11.14387 32.02506 -0.00491
C 11.04838 30.54548 0.03338
C 9.85036 29.8267 -0.0258
C 9.7712 28.35472 -0.0331
C 11.04883 27.65966 -0.00316
C 11.1209 2.17335 0.01739
C 10.84934 26.12796 0.02188
C 11.04959 9.35931 0.02691
C 9.80684 8.72212 -0.01581
C 9.79121 7.20371 0.01452
C 11.02597 6.4891 0.04892
C 11.01218 4.94867 -0.00111
C 9.77128 4.18382 -0.03557
C 9.66521 25.47583 -0.01979
C 13.56125 2.08312 0.00742
C 13.55918 0.75219 -0.01594
C 12.36837 34.06244 0.0106
C 17.25328 32.65087 -0.03213
C 18.42181 31.94949 0.02239
C 18.39206 30.59404 0.01153
C 17.24223 29.73299 0.02734
C 17.19183 28.22987 -0.0055
C 18.45737 27.70875 0.01515
C 14.83195 34.03431 -0.02845
C 16.8853 11.10698 -0.00225
C 18.47898 9.1683 -0.01107
C 17.24252 8.61648 -0.01586
C 17.1883 7.12736 -0.01971
C 18.43918 6.38712 -0.02118
C 18.49829 4.99124 0.00733
C 17.25086 4.33916 -0.00178
C 18.25001 10.65873 0.00071
C 16.06281 0.7173 0.03374
C 16.04101 2.13516 0.0296
C 14.74802 2.83387 0.03046
C 14.7735 32.63633 -0.01154
C 15.95997 31.85857 -0.01721
C 16.04838 30.47289 -0.02422
C 14.80501 29.72081 0.01277
C 14.75109 28.30597 0.00096
C 15.94217 27.52411 -0.01527
C 15.87629 26.01694 0.01087
C 14.59781 25.52464 0.00199
C 15.08662 24.28532 0.01511
C 16.23402 9.58113 -0.00478
C 14.97495 8.77521 -0.01662
C 14.85821 7.10617 -0.01185
C 15.98696 6.3886 0.01126
C 15.97898 4.94954 0.01852
C 14.74919 4.22417 -0.00381
C 7.35481 0.02783 0.03698
C 17.2861 2.89114 0.00768
C 8.54386 0.76213 -0.02213
C 7.35101 2.8799 -0.00289
C 2.55948 11.43958 0.02894
C 3.75572 10.64379 -0.01789
C 3.66398 9.21806 0.00444
C 2.43001 8.54725 -0.00925
C 2.45006 7.09157 0.01877
C 3.65762 6.38451 0.01363
C 2.56402 12.8721 -0.02971
C 3.58198 4.99237 -0.02162
C 2.4031 2.84279 -0.0014
C 3.60989 2.09718 0.02162
C 3.61002 0.72499 0.0076
C 2.4135 34.0548 0.01241
C 4.87566 32.71034 -0.01454
C 6.09038 31.98841 0.01945
C 2.38624 4.25317 0.00415
C 6.08593 30.55325 0.01416
C 3.76971 13.55803 0.00165
C 2.37697 15.75811 -0.00891
C 3.65943 30.59309 0.00572
C 2.4037 29.84094 0.03592
C 2.26165 28.40453 0.00406
C 3.58787 27.67078 0.00943
C 3.54696 26.2665 0.02841
C 2.36507 25.58762 -0.01111
C 3.62433 15.05505 0.02819
C 2.27654 24.14341 -0.01275
C 3.77414 22.09642 -0.02245
C 2.51523 21.34339 -0.00428
C 2.52928 19.9812 0.03101
C 3.66091 19.29484 -0.01536
C 3.55837 17.91625 -0.02689
C 2.38298 17.12618 -0.01046
C 3.56149 23.58859 0.00985
C 4.82959 29.84278 0.03542
C 4.86343 28.42177 0.02299
C 6.13616 27.66155 0.00244
C 8.67481 31.92283 0.02098
C 8.61447 30.49747 0.01848
C 7.33339 29.89388 -0.00619
C 7.35381 28.46783 -0.02162
C 8.56665 27.76849 0.00889
C 8.45198 26.2987 -0.00481
C 7.30356 32.69796 -0.03113
C 7.18373 25.49926 0.00979
C 8.42943 9.25781 0.03505
C 7.33283 8.42456 -0.02815
C 7.39771 6.98593 -0.04147
C 8.62206 6.30632 -0.05302
C 8.56796 4.95189 0.00213
C 7.31851 4.28395 -0.00066
C 7.00806 24.0767 0.01443
C 4.87167 0.09097 0.0351
C 6.18426 0.73131 0.00422
C 6.14425 2.15387 0.00798
C 6.06234 26.31872 -0.01717
C 4.79372 25.54183 0.05265
C 4.8422 24.21949 -0.01952
C 5.93839 23.19831 -0.02813
C 5.13126 21.90349 0.00374
C 4.87976 12.77421 0.00052
C 5.02101 11.33394 -0.03682
C 6.19218 10.5241 0.01965
C 6.09293 9.19155 0.02058
C 4.83958 8.50215 -0.01957
C 4.94873 7.10571 -0.0108
C 6.13876 6.38074 -0.00368
C 6.08862 5.01158 -0.02696
C 4.84091 4.34944 -0.00114
C 4.888 2.80737 0.00228
C 8.54536 2.12852 0.00028
C 3.63132 32.01861 0.0402
C 18.48111 2.16503 -0.0276
C 17.26809 0.02414 -0.04078
C 33.15928 27.66746 -0.01429
C 33.14854 26.25983 -0.0136
C 33.49087 22.83332 0.00594
C 33.45249 18.37078 -0.02474
C 31.57699 14.97267 0.00369
C 32.97191 14.97248 0.00455
C 31.83264 28.39618 -0.02383
C 33.31127 13.50242 -0.00644
C 32.05859 11.46953 0.00137
C 33.29256 10.68517 0.00199
C 33.21522 9.29583 0.04381
C 31.9135 8.62723 0.02806
C 31.87128 7.17976 0.01504
C 33.06548 6.46256 -0.00069
C 32.04849 12.79888 -0.01839
C 33.09159 5.06782 0.04926
C 31.90834 29.85083 0.01574
C 33.08567 31.98078 0.03794
C 29.80324 13.01215 0.07705
C 29.57287 11.57608 0.0103
C 30.72741 10.71579 0.02108
C 30.69469 9.29408 0.00716
C 29.42509 8.60568 0.00307
C 29.37944 7.20907 0.00346
C 33.13658 30.55542 0.01927
C 30.59419 6.46921 0.01713
C 29.42681 4.28751 0.01428
C 29.45932 2.89294 -0.02142
C 30.64472 2.16742 0.0544
C 30.58645 0.7699 0.00026
C 29.43686 34.06097 0.00682
C 31.87433 32.69168 -0.01779
C 30.63575 5.06284 -0.01694
C 31.84092 4.34801 -0.03838
C 31.80095 2.89553 0.00349
C 33.10536 2.14098 -0.00323
C 1.11817 15.03476 -0.02957
C 1.29051 13.56503 0.00343
C 0.10162 12.86755 -0.02656
C 0.00337 11.38037 -0.02442
C 1.27708 10.72137 -0.00027
C 1.20629 9.29199 -0.00583
C 34.22926 15.74163 0.02114
C 34.43311 8.58949 -0.02302
C 1.19679 6.37761 0.02931
C 1.18405 4.99317 0.00628
C 34.30723 4.29974 -0.0345
C 34.33519 2.90448 -0.00931
C 1.11855 2.09963 -0.00939
C 1.12764 0.72401 -0.00468
C 34.33287 7.16381 -0.02849
C 34.2879 17.24722 0.00648
C 1.19921 17.88964 0.01223
C 1.15999 19.28201 -0.01678
C 33.10886 0.7555 -0.00841
C 31.80331 0.03915 0.0001
C 34.38705 32.66583 -0.02927
C 1.19215 31.95958 -0.01404
C 1.12057 30.57716 0.01027
C 34.35071 29.86351 0.01831
C 34.36631 28.41233 -0.01037
C 1.12244 27.65134 -0.00439
C 1.10209 26.28244 -0.00598
C 34.31117 25.42672 -0.05239
C 34.35846 23.94689 0.03076
C 1.17013 23.41186 0.00723
C 1.24539 21.96832 0.02712
C 34.26906 21.44758 -0.02213
C 34.21058 19.86532 0.01951
C 30.90954 13.9205 0.01908
C 18.44144 0.72753 0.03005
C 30.67902 27.84657 0.01518
C 29.46048 29.8752 -0.03735
C 22.17095 32.56772 0.04306
C 23.34744 31.87609 0.00996
C 23.31164 30.44372 0.00195
C 22.08224 29.66777 -0.00802
C 21.98603 11.43286 -0.00218
C 23.27052 10.7139 -0.01654
C 19.67463 0.03202 0.00367
C 23.24904 9.19742 -0.00037
C 22.05033 7.15721 0.00622
C 23.26495 6.37792 -0.02815
C 23.34456 4.97882 -0.00942
C 22.16403 4.31063 0.00487
C 22.11857 2.81502 0.00826
C 23.33314 2.13706 -0.00294
C 22.06578 8.45941 -0.0032
C 23.42084 0.68876 0.00152
C 20.92539 0.65852 -0.01679
C 19.70591 2.85832 0.00684
C 19.70388 32.63595 0.02117
C 20.91515 32.00225 0.02737
C 20.90829 30.51684 -0.00498
C 19.68595 29.82601 0.00135
C 19.63496 28.47085 0.03102
C 19.84616 12.78548 0.02555
C 20.86374 2.14147 -0.01052
C 19.50461 11.48166 0.01423
C 20.85525 9.21244 -0.009
C 19.63579 8.45305 -0.01199
C 19.66629 7.04377 -0.00229
C 20.89598 6.3714 -0.00938
C 20.92885 5.03675 -0.0264
C 19.70461 4.23811 -0.01154
C 20.83565 10.68424 -0.00285
C 22.14592 33.98903 0.01257
C 24.63059 32.58234 0.02316
C 25.81245 31.86947 0.04185
C 28.23148 10.86774 -0.02049
C 28.25322 9.31539 -0.01854
C 27.04765 8.69758 -0.01415
C 26.97082 7.24357 -0.03039
C 28.15553 6.49607 0.01836
C 28.20037 5.01182 0.03531
C 27.01554 11.57113 0.03265
C 26.98032 4.30795 -0.00669
C 28.27819 2.19591 0.01705
C 28.20327 0.7074 -0.0405
C 26.93336 0.0395 -0.01303
C 29.46871 32.64792 -0.01461
C 30.67277 31.91659 -0.02155
C 30.76928 30.57274 -0.00944
C 27.01304 2.83645 0.0101
C 27.04829 29.75426 0.00261
C 28.1687 30.59282 0.02326
C 28.19636 32.01088 0.00924
C 25.71642 30.33487 0.00194
C 24.49684 29.77895 -0.00621
C 24.52373 11.27885 0.02611
C 25.81351 10.72336 0.02198
C 25.80555 9.28001 0.01094
C 24.55395 8.54778 0.00235
C 24.49358 7.15273 0.01495
C 25.74519 6.45066 0.01259
C 25.82055 4.99909 0.01799
C 24.59782 4.24289 0.01699
C 24.54156 2.83519 -0.00416
C 25.82356 2.17913 0.01177
C 25.73897 0.70322 0.04266
C 24.55076 33.99824 0.01324
C 26.98378 32.69827 0.0014
C 29.48005 28.51356 -0.00971
C 2.36164 32.69093 -0.02759
