414
Graphene
C 34.42422 34.01809 0.01295
C 12.25921 28.45355 0.00985
C 13.44011 27.76395 -0.02245
C 13.50565 26.29996 -0.00428
C 12.27523 25.53796 0.03101
C 12.24871 24.13128 -0.01536
C 13.47599 23.42841 -0.02689
C 13.55557 21.95891 -0.01046
C 12.30811 21.34439 -0.00891
C 12.29462 19.84902 0.02819
C 13.49338 19.12592 0.00165
C 13.59948 17.75045 -0.02971
C 12.31677 17.03438 0.02894
C 12.34344 15.59438 -0.01789
C 13.60712 14.89377 0.00444
C 13.50058 13.52113 -0.00925
C 12.33138 12.75603 0.01877
C 12.34021 11.31898 0.01363
C 13.54992 10.69818 -0.02162
C 13.54233 9.21489 0.00415
C 12.21302 8.44426 -0.0014
C 12.31743 7.07348 0.02162
C 12.14315 29.90519 -0.01275
C 13.39142 30.58318 -0.01111
C 13.42208 31.95892 0.02841
C 12.26956 32.71214 0.00943
C 11.07141 21.99252 -0.014
C 9.84346 21.27695 0.02147
C 9.9071 19.89995 0.00373
C 11.11449 19.1799 -0.00191
C 11.03862 17.7326 0.00438
C 9.87868 17.00122 0.01291
C 9.89871 15.59294 0.00093
C 11.12883 14.88729 0.00057
C 11.12193 13.518 -0.01634
C 9.87733 12.801 -0.00334
C 13.58962 6.37983 0.0076
C 9.81048 11.41004 0.02339
C 11.09819 9.17626 -0.00719
C 9.7816 8.47884 0.01364
C 9.75739 7.14323 -0.01062
C 11.08491 6.38928 -0.00033
C 11.03942 4.94268 0.03589
C 9.80669 4.33757 -0.02759
C 9.78815 2.95233 0.0402
C 10.9586 2.26389 0.00572
C 10.95993 0.78768 0.03592
C 9.70624 0.13957 0.00406
C 11.07139 10.66519 0.01641
C 13.56297 4.93598 0.01241
C 12.38252 4.22 -0.01454
C 12.34265 2.88604 0.01945
C 14.74608 8.49748 -0.02162
C 14.8012 7.05531 0.00889
C 16.04341 6.34257 -0.00481
C 15.96675 4.8826 0.00979
C 14.76105 4.33508 0.01443
C 14.81033 2.86415 0.03505
C 16.02125 2.11779 -0.02815
C 15.99328 0.71129 -0.04147
C 14.70804 0.00641 -0.05302
C 17.16277 32.69471 0.00213
C 16.02328 9.1808 -0.00619
C 18.38908 31.92955 -0.00066
C 17.09898 29.82527 0.00028
C 17.0569 28.45937 -0.02213
C 18.298 27.73581 0.03698
C 18.29166 26.32491 -0.00109
C 17.05604 25.54045 -0.00491
C 17.16927 24.12506 0.03338
C 18.44127 23.44942 -0.0258
C 18.44864 21.99819 -0.0331
C 17.20303 21.26074 -0.00316
C 17.25183 19.81565 0.02188
C 18.31902 30.58791 -0.00289
C 11.02726 23.39707 -0.01118
C 16.05504 10.61572 0.01848
C 14.79402 12.71609 -0.03113
C 13.53199 2.16723 0.01416
C 13.43145 0.7954 0.03542
C 12.22692 0.04001 0.02299
C 14.67215 32.71153 0.00244
C 15.9324 31.99069 -0.01717
C 15.85165 30.57524 0.05265
C 14.65941 29.84093 -0.01952
C 14.6485 28.43687 -0.02813
C 15.86128 27.7038 0.00374
C 15.95124 26.2583 0.00052
C 14.83943 11.33773 0.02098
C 14.6955 25.5022 -0.03682
C 15.90044 23.40678 0.02058
C 15.992 21.99927 -0.01957
C 14.79966 21.24767 -0.0108
C 14.75411 19.83709 -0.00368
C 16.02863 19.13733 -0.02696
C 16.03603 17.74649 -0.00114
C 14.85474 16.98739 0.00228
C 14.84771 15.58953 0.00798
C 16.10195 14.86014 0.00422
C 15.99481 13.45602 0.0351
C 14.69797 24.07755 0.01965
C 9.87194 24.18942 -0.00131
C 9.86376 25.6313 -0.02896
C 11.0667 26.36114 -0.01004
C 2.32284 2.86855 0.04505
C 3.53265 2.22722 0.03284
C 3.57538 0.71759 -0.04307
C 2.32936 0.05544 0.03189
C 4.84426 32.77555 0.00031
C 6.05498 31.99 -0.003
C 6.03624 30.60407 0.01402
C 4.90634 29.8359 0.02379
C 4.85566 28.41818 0.00907
C 6.09168 27.78295 0.00643
C 2.40283 4.31515 -0.04999
C 6.15263 26.26725 -0.01509
C 4.95296 24.13189 0.02374
C 6.11667 23.39133 0.00402
C 6.1714 21.98485 0.0073
C 4.90349 21.31554 0.0174
C 4.87941 19.88544 0.03828
C 6.11914 19.21742 0.01226
C 6.19294 17.68011 -0.00279
C 4.91062 17.05778 0.01996
C 4.90363 15.69155 -0.03996
C 6.16964 14.93377 0.01465
C 4.90275 25.5342 0.03267
C 6.16016 13.50956 -0.00074
C 3.59741 4.97336 -0.03291
C 2.38555 7.19625 0.01707
C 3.61565 30.52401 0.03278
C 2.38598 29.8204 -0.00177
C 2.42921 28.41776 0.04421
C 3.65362 27.67978 0.00088
C 3.66978 26.26871 0.00828
C 2.45076 25.54891 -0.02375
C 2.42258 24.10753 0.00558
C 3.68558 23.4323 -0.0059
C 3.62164 22.02736 -0.01386
C 2.43097 21.34863 -0.02805
C 3.58273 6.41901 0.02769
C 2.43484 19.93954 0.00081
C 3.65635 17.81343 0.02728
C 2.44631 17.07026 -0.00039
C 2.44616 15.60359 0.0064
C 3.7521 14.93441 0.00211
C 3.679 13.52412 -0.00449
C 2.42852 12.91411 -0.01979
C 2.41234 11.3976 0.02784
C 3.64144 10.72191 -0.01977
C 3.65384 9.29602 -0.00561
C 2.3895 8.50774 0.00208
C 3.66997 19.22114 0.00245
C 18.51374 19.08371 -0.01979
C 4.8542 12.84008 -0.00518
C 6.17595 10.65692 -0.00643
C 7.40726 15.65001 0.01849
C 8.63808 14.94418 -0.01142
C 8.67395 13.55754 -0.00562
C 7.37758 12.86768 -0.00494
C 7.36429 11.43521 0.00054
C 8.57032 10.70257 0.03007
C 8.58773 9.23817 -0.00095
C 7.37996 8.62542 0.01572
C 7.34489 7.15659 -0.04848
C 8.55474 6.43678 -0.00892
C 7.43265 17.08457 0.01396
C 8.54682 5.0084 -0.01362
C 7.26149 2.97534 0.0288
C 8.52676 2.2184 0.00393
C 8.61799 0.81394 0.00895
C 7.35125 0.10486 0.00685
C 9.75114 32.80475 0.02888
C 10.95202 32.09504 -0.00482
C 10.9404 30.73393 -0.01384
C 9.78217 29.9324 0.03693
C 9.73588 28.542 0.01745
C 10.98457 27.75503 0.00488
C 7.24096 4.30286 -0.0008
C 4.86805 11.41556 0.0086
C 8.63069 17.80486 0.0127
C 7.3924 19.92345 -0.01378
C 6.13918 9.28495 0.017
C 4.88782 8.53077 -0.03113
C 4.77987 7.1476 -0.02566
C 6.02863 6.48058 -0.00094
C 6.1306 5.14809 0.02322
C 4.88744 4.3894 -0.00725
C 4.7735 2.96999 -0.05697
C 6.02404 2.30443 0.01087
C 6.09464 0.8603 -0.01343
C 4.85431 0.12956 0.00988
C 8.59952 19.2548 0.02635
C 7.3392 32.80702 0.0276
C 8.55713 30.63367 -0.00077
C 7.3657 29.94831 0.03368
C 7.35196 28.48541 -0.02929
C 8.53565 27.75688 -0.00966
C 8.6203 26.31778 -0.03337
C 7.4093 25.56339 0.01227
C 7.41277 24.12392 0.00873
C 8.66577 23.43212 -0.00049
C 8.62165 21.99764 0.00848
C 7.33892 21.36142 -0.01303
C 8.49984 32.10165 0.01305
C 18.63093 17.65313 0.02691
C 17.33572 16.96646 -0.01581
C 17.35656 15.56035 0.01452
C 30.69377 10.69794 -0.00944
C 30.58826 9.33148 -0.03735
C 29.45765 8.4548 -0.00971
C 29.58085 7.05438 0.01518
C 30.79459 6.36105 0.01908
C 30.69032 4.96583 0.07705
C 29.51189 4.32514 0.0103
C 29.47391 2.7766 0.02108
C 30.72186 2.14057 0.00716
C 30.74015 0.74897 0.00307
C 30.72429 13.32965 -0.02155
C 29.48189 34.03961 0.00346
C 33.14309 31.90614 -0.01694
C 33.19663 30.47676 0.01428
C 31.90158 29.79745 -0.02142
C 31.90645 28.42018 0.0544
C 33.18858 27.62061 0.00026
C 33.10802 26.21403 0.00682
C 31.865 25.52296 -0.01779
C 31.94562 24.08743 0.03794
C 33.12005 23.35958 0.01927
C 33.15674 22.02554 0.01574
C 32.02185 32.64389 0.01713
C 31.97547 21.27445 -0.02383
C 30.7442 14.77158 -0.01461
C 29.4087 16.95059 -0.0405
C 28.32868 6.35827 0.01495
C 28.2772 4.95491 0.01259
C 27.01392 4.33349 0.01799
C 27.06879 2.88317 0.01699
C 28.27132 2.18274 -0.00416
C 28.26039 0.68103 0.01177
C 27.05316 0.01609 0.04266
C 29.47549 32.66957 0.01324
C 30.71425 31.91025 0.0014
C 30.6342 30.46231 0.00924
C 29.64852 15.63558 -0.01303
C 29.38507 29.83215 0.02326
C 30.61595 27.60887 0.03265
C 30.63802 26.20698 -0.02049
C 29.44124 25.42178 -0.01854
C 29.46771 24.08084 -0.01415
C 30.68573 23.37919 -0.03039
C 30.70949 22.01652 0.01836
C 29.52528 21.27102 0.03531
C 29.56222 19.85759 -0.00669
C 30.73983 19.09725 0.0101
C 30.67985 17.73274 0.01705
C 29.36659 28.37745 0.00261
C 27.16138 7.16431 0.00235
C 31.99213 19.88633 -0.01429
C 33.15679 17.76487 0.00594
C 1.21675 23.38868 0.00723
C 1.1947 22.00932 0.02712
C 34.38444 21.30416 -0.02213
C 34.40446 19.85896 0.01951
C 1.18191 19.16853 -0.01678
C 1.20734 17.73401 0.01223
C 0.00122 16.99775 0.00648
C 0.06143 15.64318 0.02114
C 1.23336 14.95759 -0.02957
C 1.21614 13.51987 0.00343
C 34.383 24.08674 0.03076
C 0.00018 12.79967 -0.02656
C 1.23481 10.70037 -0.00027
C 1.15902 9.2382 -0.00583
C 34.29785 8.50746 -0.02302
C 34.38029 7.05811 -0.02849
C 1.17189 6.39088 0.02931
C 1.16119 4.95417 0.00628
C 34.34429 4.23945 -0.0345
C 34.38595 2.87821 -0.00931
C 1.1473 2.09643 -0.00939
C 1.09264 0.72744 -0.00468
C 34.3957 11.34526 -0.02442
C 33.18437 19.17408 -0.0136
C 0.01013 25.49286 -0.05239
C 1.16021 27.68692 -0.00439
C 31.89533 16.97309 -0.02474
C 31.95625 15.5533 0.00369
C 33.23062 14.95779 0.00455
C 33.2665 13.59397 -0.00644
C 32.09351 12.74763 -0.01839
C 31.94986 11.32507 0.00137
C 33.20952 10.6577 0.00199
C 33.04879 9.2313 0.04381
C 31.84105 8.58925 0.02806
C 31.90781 7.20342 0.01504
C 1.18689 26.25074 -0.00598
C 33.12039 6.41919 -0.00069
C 31.95808 4.21062 -0.03838
C 31.96884 2.80861 0.00349
C 33.15204 2.09233 -0.00323
C 33.18697 0.65519 -0.00841
C 31.97577 34.0581 0.0001
C 34.33661 32.61598 -0.02927
C 1.20617 31.88431 -0.01404
C 1.18588 30.49386 0.01027
C 34.33638 29.81237 0.01831
C 34.37944 28.32792 -0.01037
C 33.15233 4.94219 0.04926
C 3.60036 31.92751 0.01138
C 28.13033 17.73892 0.01094
C 27.03071 19.84476 0.02611
C 19.66767 21.34237 -0.01721
C 19.67004 19.92802 -0.02422
C 20.91912 19.19854 0.01277
C 21.01912 17.86061 0.00096
C 19.90289 17.01273 -0.01527
C 19.78465 15.50111 0.01087
C 19.86999 11.10886 0.00199
C 20.95904 9.24524 0.01511
C 19.62254 8.52333 -0.00478
C 19.70789 7.08071 -0.01662
C 20.93115 21.96531 -0.01154
C 21.01303 6.47549 -0.01185
C 19.70124 4.28925 0.01852
C 19.66411 2.87413 -0.00381
C 20.9312 2.12958 0.03046
C 20.84383 0.67664 0.0296
C 19.63093 34.04956 0.03374
C 22.06965 32.61597 -0.02845
C 23.38785 31.9194 -0.03213
C 23.24202 30.54912 0.02239
C 21.98964 29.82036 0.01153
C 22.00648 28.41086 0.02734
C 21.00723 5.02382 0.01126
C 23.30319 27.69677 -0.0055
C 20.85869 23.43596 0.0106
C 19.6277 25.58468 0.00742
C 18.5841 14.80103 0.04892
C 18.5263 13.35056 -0.00111
C 17.24196 12.67487 -0.03557
C 17.26324 11.36073 0.03754
C 18.54601 10.67458 0.01739
C 18.50283 9.2629 0.00755
C 17.27116 8.55718 -0.0054
C 17.29978 7.14194 0.00667
C 18.44834 6.35937 0.00143
C 18.5318 4.99705 -0.017
C 19.66142 24.19302 -0.01594
C 17.17456 4.18661 0.00364
C 18.47222 2.09356 -0.02957
C 18.39528 0.70972 -0.04422
C 17.19495 0.02147 0.00654
C 19.57341 32.63312 -0.00703
C 20.80387 31.97005 -0.04076
C 20.82381 30.54227 -0.00652
C 19.47253 29.85167 0.0058
C 19.60349 28.45905 -0.00865
C 20.76788 27.67347 0.00675
C 20.81936 26.26613 -0.00311
C 17.18871 2.84462 -0.00831
C 28.25791 19.15436 0.02198
C 23.27364 26.22173 0.01515
C 22.06313 24.11429 0.00071
C 24.63324 19.6155 -0.01679
C 25.943 19.00939 0.00367
C 24.52697 7.08058 0.04306
C 25.87161 6.59884 0.00996
C 25.81787 5.05057 0.00195
C 24.5747 4.29724 -0.00802
C 24.63907 2.87641 -0.00218
C 25.85044 2.14077 -0.01654
C 25.84011 0.75938 -0.00037
C 24.58227 34.06942 -0.0032
C 24.5595 21.05749 -0.01052
C 27.08348 32.66274 0.00622
C 28.22587 30.58803 -0.00942
C 27.00973 29.83832 0.00487
C 26.99768 28.33724 0.00826
C 28.18294 27.67611 -0.00294
C 28.2645 26.21236 0.00152
C 26.94692 25.5195 0.01257
C 27.00755 24.10708 0.02316
C 28.20934 23.35302 0.04185
C 28.26063 21.96586 0.00194
C 27.04882 21.27489 -0.00621
C 28.2528 31.9847 -0.02815
C 22.01063 25.58222 -0.00225
C 25.81456 21.92049 0.00684
C 24.53597 24.07988 -0.0264
C 23.34072 23.34071 -0.01107
C 23.38236 21.91138 -0.01586
C 22.17142 21.31396 -0.01971
C 22.21618 19.8281 -0.02118
C 23.29136 18.99325 0.00733
C 22.15493 8.63871 -0.00178
C 22.13838 7.21448 0.00768
C 23.38935 6.35784 -0.0276
C 23.39618 4.9706 0.03005
C 22.19478 4.24159 -0.04078
C 25.81394 23.3207 -0.01154
C 22.08488 2.81932 0.02117
C 23.36807 0.71797 -0.00498
C 21.98997 33.97494 0.00135
C 24.60573 32.60647 0.03102
C 25.84799 31.91561 0.02555
C 25.8166 30.53094 0.01423
C 24.58966 29.93976 -0.00285
C 24.57151 28.37769 -0.009
C 25.77337 27.64447 -0.01199
C 25.75269 26.25814 -0.00229
C 24.48063 25.55822 -0.00938
C 23.41254 2.14824 0.02737
C 2.34393 32.67865 -0.00407
