364
Graphene
C 34.39285 0.02718 0.01295
C 9.84166 11.37607 0.00052
C 11.03062 10.67486 -0.03682
C 11.14539 9.19715 0.01965
C 9.86935 8.46147 0.02058
C 9.8026 7.11342 -0.01957
C 11.01537 6.41814 -0.0108
C 11.04 4.99388 -0.00368
C 9.82398 4.30454 -0.02696
C 9.80183 12.75411 0.00374
C 9.80458 2.89425 -0.00114
C 11.10143 0.7483 0.00798
C 9.81021 34.07943 0.00422
C 12.26388 32.66344 0.0351
C 13.28113 31.71889 -0.03113
C 12.53825 30.29486 0.02098
C 12.31014 21.14478 0.01848
C 12.44203 19.71173 -0.00619
C 13.76838 19.03648 -0.02162
C 11.03731 2.10154 0.00228
C 11.02439 13.4264 -0.02813
C 10.94942 14.81888 -0.01952
C 9.81043 15.53771 0.05265
C 8.62997 2.13501 0.02894
C 8.56714 0.73007 -0.01789
C 7.38621 0.07846 0.00444
C 9.7779 32.7418 -0.00925
C 10.95628 32.073 0.01877
C 11.12597 30.66043 0.01363
C 9.7927 29.99989 -0.02162
C 9.76457 28.56105 0.00415
C 11.01931 27.77962 -0.0014
C 10.99831 26.60784 0.02162
C 9.89429 25.59619 0.0076
C 9.86778 24.23517 0.01241
C 11.08697 23.39863 -0.01454
C 11.28432 22.09358 0.01945
C 9.96936 21.40749 0.01416
C 10.00444 19.87644 0.03542
C 11.14452 19.03637 0.02299
C 11.01459 17.70385 0.00244
C 9.781 16.95289 -0.01717
C 13.45114 17.65327 0.00889
C 12.24984 16.9092 -0.00481
C 12.21372 15.52722 0.00979
C 13.44559 14.91069 0.01443
C 14.71937 11.38742 -0.03557
C 15.89151 10.69392 0.03754
C 15.95582 9.26088 0.01739
C 14.75341 8.50876 0.00755
C 14.73245 7.12499 -0.0054
C 15.92242 6.40871 0.00667
C 15.92586 4.9368 0.00143
C 14.66452 4.26828 -0.017
C 14.69093 2.85037 0.00364
C 15.96756 2.02219 -0.00831
C 15.99324 0.60447 -0.02957
C 14.69637 33.95089 -0.04422
C 17.13679 32.5814 0.00654
C 18.39888 31.94469 -0.00703
C 18.99225 19.02466 -0.04076
C 18.52284 17.6723 -0.00652
C 17.18804 17.10367 0.0058
C 17.20681 15.65325 -0.00865
C 18.40064 14.88223 0.00675
C 14.69658 12.82633 -0.00111
C 7.35919 2.88528 -0.02971
C 15.91788 13.55615 0.04892
C 14.75141 15.57665 -0.01581
C 13.44357 13.50835 0.03505
C 12.24469 12.77166 -0.02815
C 12.27496 11.37849 -0.04147
C 13.45268 10.70556 -0.05302
C 13.54257 9.28038 0.00213
C 12.36641 8.48032 -0.00066
C 12.27293 7.07697 -0.00289
C 13.50984 6.44632 0.00028
C 13.49581 4.97684 -0.02213
C 12.26923 4.25022 0.03698
C 12.2207 2.81788 -0.00109
C 13.51283 2.13557 -0.00491
C 13.53032 0.70815 0.03338
C 12.31819 0.02547 -0.0258
C 14.54872 32.46729 -0.0331
C 15.87159 31.90392 -0.00316
C 15.41238 19.187 0.02188
C 15.89019 17.76956 -0.01979
C 14.79661 16.87211 0.02691
C 16.01652 14.90084 0.01452
C 18.4468 13.45377 -0.00311
C 7.37261 4.31465 0.00165
C 8.57953 6.42335 -0.00891
C 3.6633 6.48965 -0.01303
C 3.63116 5.04969 -0.01378
C 2.42327 4.29313 0.02635
C 2.3592 2.89599 0.0127
C 3.63717 2.1218 0.01396
C 3.60287 0.77039 0.01849
C 2.39026 0.04729 -0.01142
C 4.79929 32.71798 -0.00562
C 2.47729 7.16609 0.00848
C 6.06042 32.0235 -0.00494
C 4.88914 29.90233 0.03007
C 4.9449 28.45169 -0.00095
C 6.16219 27.7157 0.01572
C 6.165 26.32448 -0.04848
C 4.90023 25.56912 -0.00892
C 4.92455 24.19706 -0.01362
C 6.17148 23.47235 -0.0008
C 6.23495 21.98558 0.0288
C 6.0803 30.63796 0.00054
C 2.4553 8.64013 -0.00049
C 3.67853 9.3073 0.00873
C 3.64572 10.7442 0.01227
C 3.63618 30.62652 0.0086
C 2.46006 29.79374 -0.00643
C 2.45062 28.39929 0.017
C 3.71247 27.77874 -0.03113
C 3.71761 26.36062 -0.02566
C 2.40635 25.59483 -0.00094
C 2.46175 24.13704 0.02322
C 3.70938 23.47736 -0.00725
C 3.69447 22.06256 -0.05697
C 2.54025 21.28836 0.01087
C 2.45227 19.90288 -0.01343
C 3.70354 19.17892 0.00988
C 3.69263 17.7861 0.0276
C 2.46549 17.11593 0.01305
C 2.42099 15.63961 -0.00077
C 3.7062 14.99021 0.03368
C 3.64102 13.55776 -0.02929
C 2.40729 12.83427 -0.00966
C 2.42391 11.45087 -0.03337
C 4.91602 21.30331 0.00393
C 4.94465 19.94333 0.00895
C 6.22822 19.22358 0.00685
C 6.26921 17.78144 0.02888
C 8.72485 26.4041 -0.01062
C 7.46787 25.59747 -0.00033
C 7.38039 24.17457 0.03589
C 8.67303 23.50604 -0.02759
C 8.73439 22.06284 0.0402
C 7.50412 21.27731 0.00572
C 7.47752 19.90646 0.03592
C 8.64586 19.15273 0.00406
C 8.62356 17.74265 0.00943
C 7.46248 17.01177 0.02841
C 7.40326 15.67017 -0.01111
C 8.56636 14.84909 -0.01275
C 8.54586 13.52044 0.00985
C 7.27213 12.78267 -0.02245
C 7.2961 11.3026 -0.00428
C 8.55466 10.63361 0.03101
C 8.60075 9.22793 -0.01536
C 7.34824 8.56832 -0.02689
C 7.36565 7.12334 -0.01046
C 8.58428 27.82438 0.01364
C 8.6376 5.03854 0.02819
C 7.38392 28.45686 -0.00719
C 8.54506 30.64262 0.02339
C 5.00721 17.1097 -0.00482
C 4.95071 15.72729 -0.01384
C 6.13441 14.93086 0.03693
C 6.05791 13.55644 0.01745
C 4.89307 12.83356 0.00488
C 4.8893 11.47453 -0.01004
C 6.09384 10.65184 -0.02896
C 6.13188 9.21272 -0.00131
C 4.8262 8.5606 -0.01118
C 4.89576 7.12067 -0.014
C 6.13298 6.46403 0.02147
C 6.06364 5.03449 0.00373
C 4.86828 4.36217 -0.00191
C 4.84835 2.86203 0.00438
C 6.1317 2.18818 0.01291
C 6.10299 0.78193 0.00093
C 4.84254 0.07962 0.00057
C 7.35636 32.7412 -0.01634
C 8.55534 32.03755 -0.00334
C 7.32078 29.9091 0.01641
C 17.14952 12.795 0.00742
C 17.18268 11.35311 -0.01594
C 18.41407 10.66663 0.0106
C 30.74553 6.40552 0.00346
C 30.77205 4.9849 0.01713
C 29.45964 4.26417 -0.01694
C 29.55303 2.85301 0.01428
C 30.76118 2.12977 -0.02142
C 30.73647 0.7026 0.0544
C 29.48206 0.00529 0.00026
C 31.92678 32.69394 0.00682
C 29.46649 7.13139 0.00307
C 33.19659 31.95034 -0.01779
C 31.92453 29.84431 0.01927
C 31.99924 28.37915 0.01574
C 33.24422 27.73882 -0.02383
C 33.20897 26.31599 -0.01429
C 33.32634 19.11522 -0.0136
C 33.08681 17.77401 0.00594
C 31.73545 17.02469 -0.02474
C 31.94159 15.61549 0.00369
C 33.12237 30.55586 0.03794
C 29.44092 8.58052 0.00716
C 30.63703 9.2379 0.02108
C 30.69074 10.66321 0.0103
C 28.29126 6.45022 -0.02049
C 28.24888 5.02803 -0.01854
C 27.12401 4.27104 -0.01415
C 27.05952 2.84378 -0.03039
C 28.31609 2.1129 0.01836
C 28.28435 0.67686 0.03531
C 26.99435 34.03212 -0.00669
C 29.46598 32.61544 0.0101
C 30.71997 31.92799 0.01705
C 30.7025 30.49233 -0.0405
C 29.39088 29.74864 -0.01303
C 29.65693 28.33576 -0.01461
C 30.71659 27.73571 -0.02155
C 29.91008 17.11971 -0.00944
C 29.56395 15.74173 -0.03735
C 30.67088 14.9116 -0.00971
C 30.68182 13.51736 0.01518
C 29.44801 12.824 0.01908
C 29.47534 11.41812 0.07705
C 33.16207 14.88068 0.00455
C 33.10389 13.50241 -0.00644
C 31.84647 12.83371 -0.01839
C 31.95529 11.3169 0.00137
C 34.33858 20.03533 0.01951
C 1.23131 19.25708 -0.01678
C 1.18453 17.8156 0.01223
C 34.33614 17.02387 0.00648
C 34.37563 15.71371 0.02114
C 1.20216 14.95181 -0.02957
C 1.13498 13.49866 0.00343
C 34.37571 12.73622 -0.02656
C 34.41209 11.36547 -0.02442
C 1.18431 10.68175 -0.00027
C 1.1714 9.28044 -0.00583
C 34.32784 8.4833 -0.02302
C 34.43024 7.1148 -0.02849
C 1.20213 6.48416 0.02931
C 1.21491 5.03751 0.00628
C 34.42626 4.31176 -0.0345
C 34.41138 2.91432 -0.00931
C 1.19423 2.18308 -0.00939
C 1.16544 0.71483 -0.00468
C 0.10077 21.3839 -0.02213
C 27.0084 7.13455 0.03265
C 1.3294 22.05558 0.02712
C 34.37751 24.01889 0.03076
C 33.15422 10.66009 0.00199
C 33.11281 9.24122 0.04381
C 31.92307 8.57082 0.02806
C 31.93906 7.12035 0.01504
C 33.16308 6.44158 -0.00069
C 33.22699 5.00055 0.04926
C 31.99302 4.3307 -0.03838
C 32.02543 2.8605 0.00349
C 33.18181 2.14761 -0.00323
C 33.14455 0.70661 -0.00841
C 31.93737 0.01791 0.0001
C 0.00186 32.68226 -0.02927
C 1.14808 31.9419 -0.01404
C 1.14704 30.54099 0.01027
C 34.38757 29.8762 0.01831
C 34.42282 28.37283 -0.01037
C 1.13011 27.60843 -0.00439
C 1.09096 26.24442 -0.00598
C 34.20817 25.45246 -0.05239
C 1.2599 23.49714 0.00723
C 27.07981 8.52866 0.00261
C 28.22453 9.27804 0.02326
C 28.23081 10.75557 0.00924
C 19.68982 7.08506 -0.0055
C 20.88741 6.40092 0.01515
C 20.82325 4.97717 -0.00225
C 19.62916 4.23077 0.00071
C 19.64973 2.79544 -0.01107
C 20.87917 2.09099 -0.01586
C 20.88791 0.63145 -0.01971
C 19.63789 33.9895 -0.02118
C 22.07275 32.68688 0.00733
C 23.40197 32.0105 -0.00178
C 23.46619 30.63254 0.00768
C 21.76752 21.04907 -0.0276
C 21.86029 19.73208 0.03005
C 23.21079 19.23279 -0.04078
C 23.43512 17.78459 0.02117
C 22.14316 16.9898 0.02737
C 22.12246 15.47955 -0.00498
C 23.34773 14.80242 0.00135
C 23.34848 13.39965 0.03102
C 19.58069 8.45679 0.02734
C 22.11331 12.61482 0.02555
C 20.87054 9.1045 0.01153
C 19.71096 11.27614 -0.03213
C 18.38158 9.21958 -0.01154
C 17.18503 8.49899 -0.01721
C 17.14866 7.11167 -0.02422
C 18.39867 6.40432 0.01277
C 18.41727 5.00404 0.00096
C 17.20114 4.27118 -0.01527
C 17.13417 2.85633 0.01087
C 18.4357 2.0658 0.00199
C 18.43146 0.61079 0.01511
C 17.12078 33.96893 -0.00478
C 19.60878 32.49934 -0.01662
C 20.99923 31.79529 -0.01185
C 20.45681 18.98109 0.01126
C 20.87305 17.53403 0.01852
C 19.69491 16.75428 -0.00381
C 19.66058 15.43662 0.03046
C 20.8591 14.79249 0.0296
C 20.95472 13.33623 0.03374
C 19.719 12.6689 -0.02845
C 20.90736 10.57671 0.02239
C 3.60009 31.97565 -0.00518
C 22.15438 11.27701 0.01423
C 23.36271 9.19577 -0.009
C 24.60784 8.49196 0.00152
C 24.64249 7.09119 0.01257
C 25.83372 6.39682 0.02316
C 25.91243 5.01911 0.04185
C 24.64696 4.24121 0.00194
C 24.61194 2.89195 -0.00621
C 25.82583 2.08247 0.02611
C 25.75785 0.66104 0.02198
C 24.51247 0.04038 0.01094
C 27.01454 32.65963 0.00235
C 28.23132 31.88631 0.01495
C 28.1696 30.58063 0.01259
C 26.99705 29.84908 0.01799
C 27.15913 28.38863 0.01699
C 26.94318 15.72258 -0.00416
C 28.24046 15.12023 0.01177
C 28.25346 13.65275 0.04266
C 27.03256 12.87853 0.01324
C 26.98375 11.4513 0.0014
C 25.8407 9.20951 -0.00294
C 23.35756 10.63888 -0.00285
C 25.81223 10.6286 0.00826
C 24.62181 12.74998 -0.00942
C 22.16743 8.45652 -0.01199
C 22.05586 7.04106 -0.00229
C 23.42342 6.37823 -0.00938
C 23.34659 4.88045 -0.0264
C 22.16642 4.25492 -0.01154
C 22.07261 2.82768 0.00684
C 23.3543 2.16578 -0.01052
C 23.34379 0.77129 -0.01679
C 22.06664 0.07926 0.00367
C 24.60361 32.71671 0.04306
C 25.76284 31.91865 0.00996
C 25.65715 30.49438 0.00195
C 24.36072 29.62267 -0.00802
C 24.38062 28.22142 -0.00218
C 25.73335 28.02998 -0.01654
C 24.59528 16.99603 -0.00037
C 24.54664 15.55602 -0.0032
C 25.78043 14.91432 0.00622
C 25.77377 13.52072 -0.02815
C 24.60708 11.32461 0.00487
C 2.33694 32.71839 -0.00074
