397
Graphene
C 0.00559 0.03329 0.01295
C 9.81267 0.0617 -0.01789
C 12.30723 32.65873 0.00444
C 13.52262 32.01582 -0.00925
C 13.53022 30.6555 0.01877
C 12.27472 29.91646 0.01363
C 12.25732 28.48028 -0.02162
C 13.48786 27.67669 0.00415
C 13.45823 26.20325 -0.0014
C 12.254 25.57319 0.02162
C 11.06244 0.74922 0.02894
C 12.40386 24.06104 0.0076
C 12.27024 17.14076 -0.01454
C 12.31951 15.66435 0.01945
C 13.5099 14.87188 0.01416
C 13.55188 13.37089 0.03542
C 12.34351 12.70542 0.02299
C 12.28873 11.31315 0.00244
C 13.56317 10.53719 -0.01717
C 13.50583 9.15303 0.05265
C 12.28097 8.55753 -0.01952
C 13.51897 17.75448 0.01241
C 11.04564 2.18688 -0.02971
C 9.86593 2.93953 0.00165
C 9.8356 4.33334 0.02819
C 11.049 26.27474 0.01364
C 9.85775 25.57125 -0.01062
C 9.9051 24.14667 -0.00033
C 11.27571 23.35157 0.03589
C 10.96263 22.05703 -0.02759
C 9.83781 21.31204 0.0402
C 9.81892 19.86362 0.00572
C 11.10919 19.23626 0.03592
C 11.09466 17.87007 0.00406
C 9.82517 17.04864 0.00943
C 9.85401 15.67756 0.02841
C 11.12987 14.88839 -0.01111
C 11.12331 13.4363 -0.01275
C 9.86879 12.72511 0.00985
C 9.89673 11.35832 -0.02245
C 11.05616 10.52788 -0.00428
C 10.98264 9.19423 0.03101
C 9.84325 8.49157 -0.01536
C 9.88063 7.09189 -0.02689
C 11.06122 6.39191 -0.01046
C 11.03786 4.95668 -0.00891
C 12.27227 7.12705 -0.02813
C 13.67143 6.56002 0.00374
C 13.68011 5.14875 0.00052
C 12.26823 4.29751 -0.03682
C 16.13085 0.68536 -0.00066
C 14.77651 34.03053 -0.00289
C 17.18424 32.60566 0.00028
C 18.45067 31.93451 -0.02213
C 18.5001 30.54793 0.03698
C 17.22306 29.88703 -0.00109
C 17.23472 28.35642 -0.00491
C 18.52379 27.69114 0.03338
C 18.44312 26.20726 -0.0258
C 17.16237 25.50068 -0.0331
C 17.17995 24.14351 -0.00316
C 18.44955 23.37603 0.02188
C 18.40055 21.99216 -0.01979
C 17.2831 21.21497 0.02691
C 17.07393 19.89312 -0.01581
C 18.4089 19.16844 0.01452
C 18.39587 17.80636 0.04892
C 17.16415 17.07217 -0.00111
C 17.16172 15.63583 -0.03557
C 18.3982 15.01655 0.03754
C 18.49331 13.58727 0.01739
C 16.0087 2.03782 0.00213
C 11.0295 27.76348 -0.00719
C 14.96137 2.85369 -0.05302
C 14.8282 8.42551 -0.02815
C 12.2966 2.79876 0.01965
C 13.62322 2.11179 0.02058
C 13.55155 0.75624 -0.01957
C 12.31751 0.07192 -0.0108
C 14.77201 32.68938 -0.00368
C 15.89345 31.9121 -0.02696
C 15.993 30.54501 -0.00114
C 14.74941 29.81777 0.00228
C 14.73101 28.34276 0.00798
C 15.97673 27.7122 0.00422
C 15.96273 26.25426 0.0351
C 14.64582 25.60861 -0.03113
C 16.07137 19.03135 0.02098
C 15.87229 17.70133 0.01848
C 14.66187 17.05224 -0.00619
C 14.76188 15.57921 -0.02162
C 15.9469 14.88983 0.00889
C 16.03734 13.48472 -0.00481
C 14.71585 12.74391 0.00979
C 14.64645 11.2755 0.01443
C 15.95417 10.85254 0.03505
C 14.63194 4.25381 -0.04147
C 9.76883 28.43014 0.01641
C 9.80299 29.86904 0.02339
C 11.02813 30.55655 -0.00334
C 2.43046 4.37667 0.03828
C 2.42756 2.86558 0.01226
C 3.67027 2.18229 -0.00279
C 3.68765 0.74646 0.01996
C 2.40639 0.06483 -0.03996
C 4.89168 32.68154 0.01465
C 6.08001 32.0418 -0.00074
C 6.08612 30.54724 -0.00518
C 4.85738 29.85887 0.0086
C 4.8263 28.45314 -0.00643
C 6.05922 27.69194 0.017
C 6.05359 26.32479 -0.03113
C 4.85452 25.60341 -0.02566
C 4.91072 24.17416 -0.00094
C 6.17807 23.44009 0.02322
C 6.18681 22.06878 -0.00725
C 4.97235 21.23025 -0.05697
C 4.97275 19.82172 0.01087
C 6.0715 19.09651 -0.01343
C 6.06161 17.69851 0.00988
C 4.89268 17.0319 0.0276
C 3.68641 4.99819 0.0174
C 4.88427 15.59855 0.01305
C 3.62577 6.4903 0.0073
C 2.43609 8.56137 0.02374
C 3.64271 30.58428 -0.01979
C 2.53896 29.82201 0.02784
C 2.38911 28.40604 -0.01977
C 3.71323 27.73266 -0.00561
C 3.64815 26.24914 0.00208
C 2.42401 25.56336 0.01707
C 2.4392 24.19589 0.02769
C 3.63995 23.41495 -0.03291
C 3.77412 22.07072 -0.04999
C 2.46627 21.38074 0.04505
C 2.42629 19.91732 0.03284
C 3.6615 19.18362 -0.04307
C 3.62174 17.74873 0.03189
C 2.43198 16.98129 0.00031
C 2.43127 15.51324 -0.003
C 3.64525 14.85832 0.01402
C 3.66981 13.5438 0.02379
C 2.43582 12.82184 0.00907
C 2.41695 11.40387 0.00643
C 3.63804 10.72401 -0.01509
C 3.59545 9.29099 0.03267
C 2.35988 7.15613 0.00402
C 17.25935 12.80243 0.00755
C 6.11895 14.93174 -0.00077
C 4.88601 12.78371 -0.02929
C 8.5998 19.13327 0.00895
C 8.56095 17.77586 0.00685
C 7.28114 16.96393 0.02888
C 7.33292 15.54041 -0.00482
C 8.63535 14.85098 -0.01384
C 8.67813 13.52033 0.03693
C 7.42868 12.785 0.01745
C 7.37151 11.40405 0.00488
C 8.54968 10.64214 -0.01004
C 8.58146 9.2416 -0.02896
C 7.31146 8.58665 -0.00131
C 7.36059 7.13356 -0.01118
C 8.62118 6.49989 -0.014
C 8.57695 5.07322 0.02147
C 7.31401 4.34009 0.00373
C 7.37682 2.88929 -0.00191
C 8.66572 2.20781 0.00438
C 8.63389 0.76292 0.01291
C 7.4357 0.04776 0.00093
C 9.8133 32.66386 0.00057
C 11.01699 31.99843 -0.01634
C 7.38218 19.84731 0.00393
C 6.11449 13.43394 0.03368
C 7.39527 21.29684 0.0288
C 8.65133 23.46731 -0.01362
C 4.86705 11.38241 -0.00966
C 6.10511 10.69226 -0.03337
C 6.0868 9.28997 0.01227
C 4.93564 8.5929 0.00873
C 4.9732 7.10023 -0.00049
C 6.17429 6.44795 0.00848
C 6.10004 5.0209 -0.01303
C 4.88517 4.30494 -0.01378
C 4.8999 2.9226 0.02635
C 6.08468 2.23362 0.0127
C 6.10375 0.89067 0.01396
C 4.88684 0.06429 0.01849
C 7.38041 32.7661 -0.01142
C 8.53311 32.03122 -0.00562
C 8.56644 30.56725 -0.00494
C 7.37406 29.87475 0.00054
C 7.29349 28.4302 0.03007
C 8.5241 27.78025 -0.00095
C 8.58828 26.26154 0.01572
C 7.37535 25.63411 -0.04848
C 7.38068 24.17195 -0.00892
C 8.63146 22.03859 -0.0008
C 3.65951 32.01225 -0.00449
C 17.13965 11.52012 -0.0054
C 19.60964 32.6676 0.00143
C 30.71687 6.33056 0.01908
C 30.80248 4.96997 0.07705
C 29.56904 4.27311 0.0103
C 29.44104 2.87859 0.02108
C 30.67831 2.0502 0.00716
C 30.68887 0.67616 0.00307
C 29.50885 34.07386 0.00346
C 31.92314 32.63252 0.01713
C 33.25689 31.92754 -0.01694
C 29.53834 7.05904 0.01518
C 33.20645 30.52707 0.01428
C 31.95513 28.45385 0.0544
C 33.17417 27.74045 0.00026
C 33.21849 26.28115 0.00682
C 32.01973 25.46638 -0.01779
C 32.00732 24.12135 0.03794
C 33.22927 23.3962 0.01927
C 33.20449 21.93157 0.01574
C 31.98087 21.22349 -0.02383
C 31.98959 19.9023 -0.01429
C 31.97214 29.85589 -0.02142
C 29.51659 8.48147 -0.00971
C 30.7831 9.24493 -0.03735
C 30.70857 10.61279 -0.00944
C 29.47112 32.64372 0.01177
C 30.75791 31.89936 0.04266
C 30.70092 30.53078 0.01324
C 29.52795 29.79583 0.0014
C 29.55378 28.33601 0.00924
C 30.79147 27.60949 0.02326
C 30.76223 26.22202 0.00261
C 29.55052 25.57001 0.03265
C 29.5075 24.05241 -0.02049
C 30.73345 23.36547 -0.01854
C 30.70091 21.93872 -0.01415
C 29.37456 21.2997 -0.03039
C 29.46385 19.8751 0.01836
C 30.75027 19.24795 0.03531
C 30.67654 17.78001 -0.00669
C 29.48332 17.11124 0.0101
C 29.43334 15.64943 0.01705
C 30.71823 14.93911 -0.0405
C 30.72345 13.5343 -0.01303
C 29.47085 12.86051 -0.01461
C 29.44236 11.36052 -0.02155
C 33.15727 19.1001 -0.0136
C 33.15957 17.72833 0.00594
C 31.89397 17.05092 -0.02474
C 31.899 15.64365 0.00369
C 1.2256 22.04032 0.02712
C 0.07939 21.32268 -0.02213
C 0.02503 19.808 0.01951
C 1.26661 19.1439 -0.01678
C 1.13385 17.70535 0.01223
C 0.01593 17.04123 0.00648
C 34.40676 15.59059 0.02114
C 1.16318 14.87974 -0.02957
C 1.18964 13.49248 0.00343
C 34.38099 12.82245 -0.02656
C 34.41248 11.35475 -0.02442
C 1.21712 10.66484 -0.00027
C 1.21523 9.27826 -0.00583
C 34.38848 8.56977 -0.02302
C 34.39044 7.13103 -0.02849
C 1.20814 6.41945 0.02931
C 1.22741 5.01131 0.00628
C 34.41593 4.29108 -0.0345
C 34.30855 2.85329 -0.00931
C 1.16253 2.1559 -0.00939
C 1.20694 0.74284 -0.00468
C 1.22691 23.46067 0.00723
C 27.06364 0.00885 -0.00416
C 0.00406 24.15873 0.03076
C 1.15602 26.25822 -0.00598
C 33.10712 14.90664 0.00455
C 33.11878 13.48748 -0.00644
C 31.92693 12.8099 -0.01839
C 31.9128 11.38611 0.00137
C 33.1804 10.68168 0.00199
C 33.19447 9.23143 0.04381
C 31.98966 8.54351 0.02806
C 31.92433 7.1 0.01504
C 33.20774 6.33195 -0.00069
C 33.20735 4.88806 0.04926
C 31.93873 4.20116 -0.03838
C 31.92078 2.85189 0.00349
C 33.12327 2.11004 -0.00323
C 33.17982 0.69091 -0.00841
C 32.00037 34.07566 0.0001
C 0.05393 32.68242 -0.02927
C 1.20989 31.98665 -0.01404
C 1.27896 30.50055 0.01027
C 34.42552 29.7889 0.01831
C 34.42942 28.42384 -0.01037
C 1.1678 27.71766 -0.00439
C 34.40654 25.58723 -0.05239
C 28.29902 0.69457 0.01699
C 28.20388 2.10917 0.01799
C 26.89991 2.93089 0.01259
C 23.40542 27.67586 -0.00478
C 23.30405 26.28303 -0.01662
C 22.08582 25.54715 -0.01185
C 22.07588 24.17161 0.01126
C 23.38336 23.41755 0.01852
C 23.35856 21.9962 -0.00381
C 22.07399 21.32845 0.03046
C 22.08779 19.8884 0.0296
C 23.24211 19.17001 0.03374
C 23.29583 17.69583 -0.02845
C 22.12493 16.94222 -0.03213
C 22.12835 15.52875 0.02239
C 23.37797 14.83159 0.01153
C 23.37711 13.4183 0.02734
C 22.21676 12.84852 -0.0055
C 23.28674 0.43262 0.01515
C 22.0758 33.9538 -0.00225
C 24.67019 32.64358 0.00071
C 25.83361 31.9796 -0.01107
C 25.78791 30.53228 -0.01586
C 24.64584 29.82417 -0.01971
C 22.19722 28.47962 0.01511
C 24.71164 28.33048 -0.02118
C 22.20796 29.89514 0.00199
C 23.34114 31.97251 -0.01527
C 20.91586 31.89356 -0.017
C 20.9182 30.48018 0.00364
C 19.6606 29.81352 -0.00831
C 19.6986 28.40174 -0.02957
C 20.94769 27.67937 -0.04422
C 20.87453 26.25739 0.00654
C 19.63402 25.57202 -0.00703
C 19.63829 24.10417 -0.04076
C 20.81835 23.41613 -0.00652
C 20.90479 21.96673 0.0058
C 19.66804 21.35018 -0.00865
C 19.59066 19.91984 0.00675
C 20.81823 19.1551 -0.00311
C 20.91884 17.77525 0.00742
C 19.60739 17.12314 -0.01594
C 19.65029 15.67183 0.0106
C 20.87949 14.94648 -0.01154
C 20.9301 13.36544 -0.01721
C 19.63417 12.92409 -0.02422
C 19.82712 0.00457 0.01277
C 22.12038 32.619 0.00096
C 23.38589 30.55316 0.01087
C 17.30086 34.00485 0.00667
C 25.90012 27.68207 0.00733
C 24.52068 25.5935 0.00768
C 26.98599 25.55834 -0.00218
C 27.01199 24.1345 -0.01654
C 28.31509 23.38899 -0.00037
C 28.23022 21.98367 -0.0032
C 27.0083 21.28793 0.00622
C 27.00291 19.84693 -0.02815
C 28.21043 19.17447 -0.00942
C 28.26697 17.75949 0.00487
C 26.95223 16.99806 0.00826
C 26.99428 15.58519 -0.00294
C 28.2543 14.98413 0.00152
C 28.27608 13.52802 0.01257
C 27.01689 12.78166 0.02316
C 27.09203 11.37084 0.04185
C 28.30219 10.59167 0.00194
C 28.32103 9.22756 -0.00621
C 26.97175 8.37761 0.02611
C 27.05942 7.0347 0.02198
C 28.31765 6.45554 0.01094
C 28.3173 5.00579 0.00235
C 27.25501 4.27057 0.01495
C 28.31438 26.2169 -0.00802
C 25.81288 26.32178 -0.00178
C 28.41396 27.56992 0.00195
C 27.14183 29.76658 0.04306
C 24.58905 24.18674 -0.0276
C 25.76138 23.42685 0.03005
C 25.78293 22.01634 -0.04078
C 24.60675 21.24822 0.02117
C 24.47591 19.85745 0.02737
C 25.72007 19.10745 -0.00498
C 25.72128 17.72944 0.00135
C 24.57572 16.99702 0.03102
C 24.59104 15.59582 0.02555
C 25.77981 14.85038 0.01423
C 25.8207 13.4549 -0.00285
C 24.60566 12.7486 -0.009
C 24.53938 11.37125 -0.01199
C 25.77145 10.61726 -0.00229
C 26.09212 9.33559 -0.00938
C 25.85173 2.12922 -0.0264
C 25.76859 0.78287 -0.01154
C 24.53061 34.0733 0.00684
C 27.06463 32.6246 -0.01052
C 28.26229 31.89274 -0.01679
C 28.31233 30.48459 0.00367
C 27.18263 28.36162 0.00996
C 2.46027 32.66869 0.00211
