365
Graphene
C 34.42735 0.02979 0.01295
C 16.03746 31.91165 0.00052
C 15.95863 10.77083 -0.03682
C 15.87309 9.37101 0.01965
C 14.85602 8.49199 0.02058
C 14.85391 7.12616 -0.01957
C 16.05065 6.38557 -0.0108
C 15.91401 4.94067 -0.00368
C 14.71278 4.18788 -0.02696
C 14.78982 32.52076 0.00374
C 14.7982 2.74638 -0.00114
C 16.03482 0.67132 0.00798
C 14.81675 33.98124 0.00422
C 17.27239 32.50417 0.0351
C 18.56674 31.89593 -0.03113
C 17.26188 21.44081 0.02098
C 18.45414 18.98581 0.01848
C 18.48224 17.75818 -0.00619
C 18.37006 14.91733 -0.02162
C 16.09524 2.08687 0.00228
C 12.24033 34.07288 -0.02813
C 13.49846 0.67056 -0.01952
C 13.52884 2.07863 0.05265
C 11.02372 5.03395 0.02894
C 9.80433 4.3237 -0.01789
C 9.86459 2.93452 0.00444
C 11.11292 2.17507 -0.00925
C 11.05335 0.74435 0.01877
C 9.82198 0.03091 0.01363
C 12.26214 32.6789 -0.02162
C 13.53631 31.90422 0.00415
C 13.55474 30.58558 -0.0014
C 12.38635 29.83533 0.02162
C 12.17554 28.41996 0.0076
C 12.25835 25.49249 0.01241
C 12.38169 24.13012 -0.01454
C 13.38821 22.08523 0.01945
C 12.42694 7.10796 0.01416
C 13.60899 6.38007 0.03542
C 13.46479 4.9161 0.02299
C 12.24093 4.28554 0.00244
C 12.33123 2.8081 -0.01717
C 18.28648 13.54972 0.00889
C 17.24617 12.70751 -0.00481
C 17.27176 11.40471 0.00979
C 18.48629 10.64653 0.01443
C 19.65846 11.467 -0.03557
C 20.80159 10.69778 0.03754
C 20.84537 9.25347 0.01739
C 19.65586 8.47609 0.00755
C 19.68169 7.06239 -0.0054
C 20.97195 6.37386 0.00667
C 20.89631 4.97265 0.00143
C 19.64298 4.30844 -0.017
C 19.68311 2.84103 0.00364
C 20.91415 2.15747 -0.00831
C 20.95215 0.72804 -0.02957
C 19.71276 34.02547 -0.04422
C 22.18894 32.61999 0.00654
C 23.4225 31.94107 -0.00703
C 23.37539 30.49574 -0.04076
C 21.9679 29.73798 -0.00652
C 22.14515 28.39248 0.0058
C 23.27585 27.57623 -0.00865
C 23.37585 26.16352 0.00675
C 19.60692 12.81926 -0.00111
C 11.04596 6.49406 -0.02971
C 20.87128 13.5101 0.04892
C 19.5384 15.62719 -0.01581
C 18.42722 9.27899 0.03505
C 17.19554 8.56176 -0.02815
C 17.24576 7.07713 -0.04147
C 18.492 6.35398 -0.05302
C 18.43708 5.0258 0.00213
C 17.21159 4.31194 -0.00066
C 17.29911 2.86117 -0.00289
C 18.46304 2.12867 0.00028
C 18.45192 0.64518 -0.02213
C 17.24122 33.99996 0.03698
C 19.70156 32.64388 -0.00109
C 20.95715 31.96011 -0.00491
C 20.87584 30.58376 0.03338
C 20.77016 21.95806 -0.0258
C 19.61579 21.41714 -0.0331
C 19.60497 19.87511 -0.00316
C 20.85505 19.19651 0.02188
C 20.85017 17.79509 -0.01979
C 19.68955 17.00513 0.02691
C 20.79942 14.87397 0.01452
C 9.7814 6.94222 0.00165
C 9.67924 19.85682 0.02819
C 9.96275 21.2352 -0.00891
C 3.64846 6.38943 0.00848
C 3.69781 4.99316 -0.01303
C 2.5188 4.25845 -0.01378
C 2.44259 2.89905 0.02635
C 3.68121 2.12204 0.0127
C 3.65432 0.71793 0.01396
C 2.44018 34.02247 0.01849
C 4.93043 32.68822 -0.01142
C 6.1697 31.9289 -0.00562
C 6.14431 30.51963 -0.00494
C 4.92339 29.78639 0.00054
C 4.92485 28.42711 0.03007
C 6.13047 27.7447 -0.00095
C 6.15695 26.29686 0.01572
C 4.95939 25.55007 -0.04848
C 4.88452 24.13179 -0.00892
C 6.1507 23.44966 -0.01362
C 6.16039 22.01424 -0.0008
C 4.90502 21.343 0.0288
C 2.43326 7.13501 -0.00049
C 4.87969 19.85194 0.00393
C 2.41676 8.51397 0.00873
C 3.62476 10.65837 -0.03337
C 3.7465 30.50336 -0.00518
C 2.48979 29.81845 0.0086
C 2.47107 28.40934 -0.00643
C 3.7355 27.61014 0.017
C 3.68312 26.23524 -0.03113
C 2.39721 25.61659 -0.02566
C 2.40057 24.18158 -0.00094
C 3.68276 23.47588 0.02322
C 3.62595 22.07085 -0.00725
C 2.43949 21.29812 -0.05697
C 2.51136 19.86427 0.01087
C 3.71862 19.11451 -0.01343
C 3.71453 17.65302 0.00988
C 2.40128 17.0201 0.0276
C 2.4145 15.65333 0.01305
C 3.56868 14.8897 -0.00077
C 3.64247 13.73085 0.03368
C 2.53105 12.82225 -0.02929
C 2.46355 11.33925 -0.00966
C 3.85438 9.32492 0.01227
C 22.2058 24.25816 -0.00311
C 6.15179 19.18481 0.00895
C 5.02241 17.14354 0.02888
C 7.26318 6.97789 -0.01062
C 8.55946 6.46475 -0.00033
C 8.56445 4.99787 0.03589
C 7.40597 4.28374 -0.02759
C 7.39775 2.8761 0.0402
C 8.63565 2.22594 0.00572
C 8.62079 0.73423 0.03592
C 7.372 0.03412 0.00406
C 9.86963 32.70095 0.00943
C 11.08665 31.91188 0.02841
C 11.05092 30.46464 -0.01111
C 9.77978 29.77201 -0.01275
C 9.75032 28.42649 0.00985
C 10.98846 27.67221 -0.02245
C 11.07014 26.2413 -0.00428
C 9.79523 25.5868 0.03101
C 9.81306 24.21205 -0.01536
C 11.1114 23.40995 -0.02689
C 11.10897 21.99592 -0.01046
C 8.62759 19.30953 0.01364
C 6.01606 17.73429 0.00685
C 7.34834 19.85145 -0.00719
C 8.63718 22.00718 0.02339
C 4.97635 8.5007 -0.00482
C 4.88328 7.15975 -0.01384
C 6.09869 6.42278 0.03693
C 6.21526 4.98992 0.01745
C 4.98038 4.30588 0.00488
C 4.94216 2.91086 -0.01004
C 6.15708 2.23301 -0.02896
C 6.10893 0.83012 -0.00131
C 4.8964 0.11372 -0.01118
C 7.36439 32.67478 -0.014
C 8.57571 31.99025 0.02147
C 8.58228 30.57633 0.00373
C 7.40306 29.79722 -0.00191
C 7.32946 28.4299 0.00438
C 8.59956 27.73056 0.01291
C 8.55094 26.34406 0.00093
C 7.35608 25.62915 0.00057
C 7.31754 24.1752 -0.01634
C 8.52823 23.47675 -0.00334
C 7.40011 21.28724 0.01641
C 3.76493 31.9214 -0.00074
C 23.27995 23.48686 0.00742
C 22.09376 21.36586 0.0106
C 29.48483 0.04519 0.00346
C 31.98749 32.61857 0.01713
C 33.16275 31.91499 -0.01694
C 33.19029 30.5144 0.01428
C 31.96232 29.84894 -0.02142
C 31.91076 28.44943 0.0544
C 33.10527 27.70583 0.00026
C 33.14181 26.33654 0.00682
C 30.76463 0.69341 0.00307
C 31.9273 25.61125 -0.01779
C 33.11929 23.46319 0.01927
C 33.18049 22.05128 0.01574
C 31.95463 21.28379 -0.02383
C 31.95554 19.861 -0.01429
C 33.21607 19.20756 -0.0136
C 33.27236 17.77343 0.00594
C 32.00168 17.05792 -0.02474
C 31.95281 15.64445 0.00369
C 31.96136 24.17738 0.03794
C 30.70597 2.14852 0.00716
C 29.47446 2.8464 0.02108
C 29.56728 4.27842 0.0103
C 29.53034 24.12816 -0.02049
C 30.79318 23.41112 -0.01854
C 30.79459 21.99408 -0.01415
C 29.47151 21.33302 -0.03039
C 29.54108 19.92147 0.01836
C 30.74781 19.15398 0.03531
C 30.72069 17.75892 -0.00669
C 29.51455 17.05588 0.0101
C 29.57469 15.64657 0.01705
C 30.75169 14.82356 -0.0405
C 30.8009 13.40961 -0.01303
C 29.5618 12.79201 -0.01461
C 29.51523 11.40348 -0.02155
C 30.7206 10.66583 -0.00944
C 30.69822 9.16188 -0.03735
C 29.54363 8.45377 -0.00971
C 29.4703 7.06441 0.01518
C 30.66733 6.35636 0.01908
C 30.73588 4.96907 0.07705
C 33.17111 14.92792 0.00455
C 33.16481 13.49129 -0.00644
C 32.03077 12.67979 -0.01839
C 31.988 11.31217 0.00137
C 0.04142 19.90146 0.01951
C 1.28 19.14474 -0.01678
C 1.186 17.72736 0.01223
C 34.41638 17.0242 0.00648
C 0.00999 15.59151 0.02114
C 1.22471 14.8781 -0.02957
C 1.27783 13.45484 0.00343
C 34.42606 12.83017 -0.02656
C 34.41129 11.37226 -0.02442
C 1.19837 10.68537 -0.00027
C 1.25261 9.31819 -0.00583
C 0.04138 8.57212 -0.02302
C 34.38185 7.12701 -0.02849
C 1.20561 6.43556 0.02931
C 1.27625 5.00727 0.00628
C 0.02824 4.30821 -0.0345
C 0.02747 2.84698 -0.00931
C 1.22014 2.12501 -0.00939
C 1.21824 0.71968 -0.00468
C 34.40649 21.31573 -0.02213
C 29.47869 25.56119 0.03265
C 1.21176 21.97305 0.02712
C 34.37006 24.17488 0.03076
C 33.22151 10.62841 0.00199
C 33.24941 9.21647 0.04381
C 31.89927 8.53494 0.02806
C 31.90204 7.08246 0.01504
C 33.13523 6.3714 -0.00069
C 33.18523 4.94746 0.04926
C 31.93544 4.27662 -0.03838
C 31.94639 2.81498 0.00349
C 33.22209 2.19491 -0.00323
C 33.20706 0.75404 -0.00841
C 31.97731 34.00839 0.0001
C 34.37844 32.68528 -0.02927
C 1.16009 31.93465 -0.01404
C 1.25642 30.55261 0.01027
C 0.05352 29.79912 0.01831
C 34.37642 28.35269 -0.01037
C 1.20452 27.76977 -0.00439
C 1.17653 26.33223 -0.00598
C 34.3846 25.62492 -0.05239
C 1.15163 23.44453 0.00723
C 30.73705 26.3102 0.00261
C 30.71617 27.75385 0.02326
C 29.52545 28.44773 0.00924
C 24.60456 29.75156 -0.0055
C 24.54854 28.3375 0.01515
C 25.78479 27.70199 -0.00225
C 25.81181 26.28905 0.00071
C 24.60144 25.60618 -0.01107
C 24.59442 24.11252 -0.01586
C 25.78923 23.38267 -0.01971
C 25.81386 21.99191 -0.02118
C 24.6317 21.2472 0.00733
C 24.58055 19.8987 -0.00178
C 25.79265 19.10751 0.00768
C 25.77175 17.66616 -0.0276
C 24.52186 17.00806 0.03005
C 24.54465 15.61305 -0.04078
C 25.7948 14.88754 0.02117
C 25.88295 13.47546 0.02737
C 24.64758 12.746 -0.00498
C 24.58676 11.33792 0.00135
C 25.77915 10.60929 0.03102
C 25.83713 30.49321 0.02734
C 25.83027 9.20213 0.02555
C 25.7911 31.87222 0.01153
C 22.15874 0.03499 -0.03213
C 22.10553 19.87299 -0.01154
C 23.35621 19.18732 -0.01721
C 23.27231 17.7361 -0.02422
C 22.03414 16.9783 0.01277
C 22.07504 15.55651 0.00096
C 23.31884 14.84191 -0.01527
C 23.40718 13.48438 0.01087
C 22.16463 12.78839 0.00199
C 22.07005 11.38796 0.01511
C 23.26849 10.61886 -0.00478
C 23.35046 9.19206 -0.01662
C 22.1395 8.47923 -0.01185
C 22.18068 7.05114 0.01126
C 23.47478 6.3367 0.01852
C 23.37665 4.93814 -0.00381
C 22.14605 4.22682 0.03046
C 22.14678 2.78998 0.0296
C 23.39188 2.10323 0.03374
C 23.35559 0.69879 -0.02845
C 24.62495 32.56931 0.02239
C 23.34723 22.02138 -0.01594
C 24.56698 8.48588 0.01423
C 25.84784 6.38775 -0.009
C 28.31854 14.93474 0.00152
C 28.31404 13.47887 0.01257
C 27.12337 12.77271 0.02316
C 27.02157 11.33615 0.04185
C 28.30115 10.68348 0.00194
C 28.38513 9.22762 -0.00621
C 27.11106 8.54595 0.02611
C 27.10534 7.13577 0.02198
C 28.24854 6.371 0.01094
C 28.28818 4.92029 0.00235
C 27.06083 4.29416 0.01495
C 27.12246 2.91583 0.01259
C 28.27039 2.19794 0.01799
C 28.27297 0.7615 0.01699
C 27.03066 0.0107 -0.00416
C 29.49349 32.68918 0.01177
C 30.67913 31.96356 0.04266
C 30.76105 30.53937 0.01324
C 29.46449 29.91145 0.0014
C 27.05354 15.57929 -0.00294
C 24.62481 7.0982 -0.00285
C 27.05853 17.0308 0.00826
C 28.31681 19.16504 -0.00942
C 25.7777 4.99274 -0.01199
C 24.60965 4.18073 -0.00229
C 24.59024 2.79601 -0.00938
C 25.94636 2.17884 -0.0264
C 25.80171 0.76033 -0.01154
C 24.62356 0.01441 0.00684
C 27.00186 32.69128 -0.01052
C 28.16677 31.96841 -0.01679
C 28.20386 30.53551 0.00367
C 26.97765 29.75488 0.04306
C 27.04689 28.38238 0.00996
C 28.28091 27.65467 0.00195
C 28.22538 26.22425 -0.00802
C 26.95271 25.54541 -0.00218
C 27.00334 24.16341 -0.01654
C 28.21887 23.44938 -0.00037
C 28.20746 21.98385 -0.0032
C 27.00988 21.27043 0.00622
C 27.03735 19.84012 -0.02815
C 28.27893 17.75711 0.00487
C 2.45072 32.5787 0.01465
