340
Graphene
C 0.0251 0.0388 0.01295
C 9.91847 12.73884 -0.00619
C 9.7649 11.50318 -0.02162
C 11.04122 9.27528 0.00889
C 9.89052 8.50742 -0.00481
C 9.86584 7.13734 0.00979
C 11.09703 6.42414 0.01443
C 10.99157 4.92775 0.03505
C 9.78467 4.23694 -0.02815
C 9.81603 2.73406 -0.04147
C 11.06904 2.11283 -0.05302
C 11.11114 0.74441 0.00213
C 9.86826 34.05299 -0.00066
C 12.35302 32.65278 -0.00289
C 13.59597 31.9362 0.00028
C 13.49923 30.5993 -0.02213
C 12.3148 29.78227 0.03698
C 12.32426 28.28369 -0.00109
C 10.97417 14.82951 0.01848
C 13.66474 27.62603 -0.00491
C 9.79085 15.57916 0.02098
C 9.80111 24.19973 0.0351
C 7.38834 8.4824 -0.01717
C 7.3381 7.15192 0.05265
C 8.52696 6.44303 -0.01952
C 8.61873 5.00419 -0.02813
C 7.40006 4.27899 0.00374
C 7.39861 2.85476 0.00052
C 8.62644 2.13545 -0.03682
C 8.60188 0.72917 0.01965
C 7.39715 34.06559 0.02058
C 9.8811 32.68386 -0.01957
C 11.09642 32.04491 -0.0108
C 11.04462 30.54614 -0.00368
C 9.81875 29.86846 -0.02696
C 9.85555 28.33265 -0.00114
C 11.08107 27.65169 0.00228
C 11.08713 26.3143 0.00798
C 9.94654 25.5516 0.00422
C 9.79124 16.92736 -0.03113
C 12.26842 7.14026 0.03338
C 13.55378 6.38055 -0.0258
C 13.45078 4.93789 -0.0331
C 18.59755 10.67635 -0.04076
C 18.49022 9.2613 -0.00652
C 17.24871 8.52819 0.0058
C 17.23005 7.13974 -0.00865
C 18.41065 6.49378 0.00675
C 18.419 5.00363 -0.00311
C 17.20526 4.17233 0.00742
C 17.23208 2.78191 -0.01594
C 18.47357 2.17053 0.0106
C 18.43633 0.68012 -0.01154
C 17.18131 0.02019 -0.01721
C 19.64534 32.67643 -0.02422
C 20.9215 31.93124 0.01277
C 20.95584 30.54213 0.00096
C 19.65531 29.80708 -0.01527
C 19.62288 11.27219 0.01087
C 20.93419 10.6668 0.00199
C 17.2499 29.74521 -0.00703
C 18.38263 30.51181 0.00654
C 18.41298 31.94971 -0.04422
C 17.22267 32.62252 -0.02957
C 12.2842 4.23071 -0.00316
C 12.27606 2.88265 0.02188
C 13.48213 2.13507 -0.01979
C 13.48987 0.72602 0.02691
C 12.2425 0.05151 -0.01581
C 14.76281 32.70946 0.01452
C 15.97985 31.96298 0.04892
C 16.03864 30.47713 -0.00111
C 8.61677 9.22886 0.00244
C 14.78531 29.83243 -0.03557
C 14.7813 7.11179 0.01739
C 16.02659 6.41074 0.00755
C 15.9859 4.96319 -0.0054
C 14.75682 4.20725 0.00667
C 14.73343 2.80289 0.00143
C 15.98667 2.13074 -0.017
C 16.028 0.74535 0.00364
C 14.73333 0.02616 -0.00831
C 14.65101 28.38261 0.03754
C 20.85517 9.23504 0.01511
C 8.62719 10.63055 0.02299
C 7.32101 12.78473 0.01416
C 2.46242 8.52272 -0.00482
C 2.48754 7.05752 -0.01384
C 3.66577 6.35591 0.03693
C 3.66798 4.89277 0.01745
C 2.39589 4.23954 0.00488
C 2.46071 2.8341 -0.01004
C 3.63339 2.13212 -0.02896
C 3.72341 0.71667 -0.00131
C 2.53417 0.02255 -0.01118
C 4.88291 32.72262 -0.014
C 6.17615 31.93006 0.02147
C 6.11431 30.56007 0.00373
C 4.90543 29.85189 -0.00191
C 4.92607 28.46524 0.00438
C 6.16904 27.63943 0.01291
C 6.13293 26.27527 0.00093
C 4.8913 25.59817 0.00057
C 3.65081 9.24286 0.02888
C 4.91563 24.15109 -0.01634
C 3.67688 10.71867 0.00685
C 2.49204 12.74481 0.00393
C 3.70766 30.57805 -0.01378
C 2.49387 29.85542 0.02635
C 2.46111 28.41959 0.0127
C 3.63795 27.779 0.01396
C 3.70977 26.31515 0.01849
C 2.47128 25.53432 -0.01142
C 2.42551 24.12392 -0.00562
C 3.64744 23.44769 -0.00494
C 3.74482 21.94123 0.00054
C 2.52347 21.31145 0.03007
C 2.45715 19.86886 -0.00095
C 3.76771 19.14132 0.01572
C 3.68612 17.73523 -0.04848
C 2.37806 17.0305 -0.00892
C 2.41709 15.70878 -0.01362
C 3.67138 14.93595 -0.0008
C 3.72358 13.48679 0.0288
C 2.4272 11.39893 0.00895
C 6.21365 23.42724 -0.00334
C 6.13783 21.98723 0.02339
C 4.98553 21.28104 0.01641
C 8.53632 30.48095 0.02819
C 7.34102 29.90918 0.00165
C 7.32556 28.46585 -0.02971
C 8.57638 27.71696 0.02894
C 8.62402 26.3224 -0.01789
C 7.38116 25.48827 0.00444
C 7.42265 24.14888 -0.00925
C 8.67537 23.46242 0.01877
C 8.58784 22.04353 0.01363
C 7.37694 21.29281 -0.02162
C 7.3328 19.81702 0.00415
C 8.56766 19.15683 -0.0014
C 8.69424 17.77371 0.02162
C 7.37732 17.00978 0.0076
C 7.37753 15.63141 0.01241
C 8.58224 14.94843 -0.01454
C 8.56405 13.50266 0.01945
C 8.68776 31.92418 -0.00891
C 7.47361 32.6376 -0.01046
C 4.92426 0.04703 -0.02689
C 6.11733 0.58936 -0.01536
C 4.90047 19.87455 -0.00719
C 6.09344 19.17989 0.01364
C 6.0956 17.69595 -0.01062
C 4.90952 17.0414 -0.00033
C 4.89321 15.65059 0.03589
C 6.11793 14.93406 -0.02759
C 6.15891 13.44713 0.0402
C 4.90615 12.82017 0.00572
C 7.36997 11.39598 0.03542
C 4.93775 11.40341 0.03592
C 6.13565 9.22446 0.00943
C 4.91536 8.52614 0.02841
C 4.94552 7.14447 -0.01111
C 6.14087 6.41518 -0.01275
C 6.12039 5.0323 0.00985
C 4.96393 4.26184 -0.02245
C 4.92228 2.89807 -0.00428
C 6.1287 2.14866 0.03101
C 6.17564 10.70088 0.00406
C 19.65209 8.59815 -0.00478
C 19.64672 7.1532 -0.01662
C 20.91313 6.40183 -0.01185
C 31.91448 29.81222 -0.02142
C 31.99993 28.43012 0.0544
C 33.22505 27.68057 0.00026
C 33.21871 26.26026 0.00682
C 31.94341 25.59587 -0.01779
C 31.94687 24.19522 0.03794
C 33.20679 23.43283 0.01927
C 33.14891 22.00091 0.01574
C 31.91757 21.34259 -0.02383
C 31.97212 19.86134 -0.01429
C 33.22123 19.1584 -0.0136
C 33.14693 17.80562 0.00594
C 31.94772 17.05514 -0.02474
C 32.05698 15.68118 0.00369
C 33.23553 14.83932 0.00455
C 33.19853 13.48152 -0.00644
C 31.91264 12.76744 -0.01839
C 33.20899 30.52297 0.01428
C 31.95058 11.39529 0.00137
C 33.10466 31.94863 -0.01694
C 29.46073 34.07478 0.00346
C 30.70626 17.68193 -0.00669
C 29.49729 17.07936 0.0101
C 29.4702 15.61886 0.01705
C 30.77231 14.96709 -0.0405
C 30.74 13.47159 -0.01303
C 29.49887 12.78559 -0.01461
C 29.50803 11.38358 -0.02155
C 30.78277 10.6639 -0.00944
C 30.76672 9.26923 -0.03735
C 29.51369 8.50961 -0.00971
C 29.50188 7.11037 0.01518
C 30.7181 6.40335 0.01908
C 30.67553 5.04022 0.07705
C 29.54818 4.25942 0.0103
C 29.53526 2.78369 0.02108
C 30.81317 2.10316 0.00716
C 30.72997 0.7228 0.00307
C 31.93869 32.68411 0.01713
C 33.19668 10.65303 0.00199
C 33.17423 9.21908 0.04381
C 31.95299 8.51183 0.02806
C 1.20682 17.77939 0.01223
C 0.02987 17.07454 0.00648
C 0.01269 15.52493 0.02114
C 1.25789 14.87415 -0.02957
C 1.25799 13.49784 0.00343
C 34.43014 12.81288 -0.02656
C 34.41856 11.31116 -0.02442
C 1.17265 10.67207 -0.00027
C 1.26568 9.18699 -0.00583
C 34.38142 8.48074 -0.02302
C 34.38308 7.11973 -0.02849
C 1.17926 6.35628 0.02931
C 1.16294 4.98794 0.00628
C 34.40663 4.24334 -0.0345
C 0.01626 2.7622 -0.00931
C 1.26777 2.10895 -0.00939
C 1.25939 0.7444 -0.00468
C 1.28971 19.15103 -0.01678
C 0.01118 19.80551 0.01951
C 0.00634 21.29637 -0.02213
C 1.27349 21.98578 0.02712
C 31.93327 7.09257 0.01504
C 33.2008 6.37528 -0.00069
C 33.20077 4.98007 0.04926
C 31.94843 4.30497 -0.03838
C 32.00192 2.9178 0.00349
C 33.18922 2.13475 -0.00323
C 33.24038 0.75806 -0.00841
C 31.93185 0.0259 0.0001
C 30.75609 19.14646 0.03531
C 34.41299 32.65171 -0.02927
C 1.28943 30.57646 0.01027
C 0.04521 29.82039 0.01831
C 34.41159 28.35504 -0.01037
C 1.23017 27.72638 -0.00439
C 1.25472 26.28802 -0.00598
C 0.02864 25.6343 -0.05239
C 34.38714 24.07545 0.03076
C 1.17391 23.40508 0.00723
C 1.21374 31.95972 -0.01404
C 29.57953 19.87027 0.01836
C 29.46035 21.2541 -0.03039
C 30.6922 22.03792 -0.01415
C 24.58838 32.63207 -0.0276
C 25.78978 31.95176 0.03005
C 25.81412 30.47364 -0.04078
C 24.56673 29.89055 0.02117
C 24.62985 28.49539 0.02737
C 25.81244 27.69833 -0.00498
C 25.85953 26.28306 0.00135
C 25.71041 13.3989 0.03102
C 24.56151 12.81223 0.02555
C 24.58742 11.37532 0.01423
C 25.87485 10.59751 -0.00285
C 25.84491 9.19847 -0.009
C 24.55209 8.575 -0.01199
C 24.59513 7.13882 -0.00229
C 25.80765 6.47551 -0.00938
C 25.78994 5.01089 -0.0264
C 24.56 4.25206 -0.01154
C 22.13416 0.03006 0.00768
C 23.37897 0.70491 -0.00178
C 23.35566 2.11923 0.00733
C 22.09655 2.79512 -0.02118
C 20.89121 4.95253 0.01126
C 19.65155 4.27832 0.01852
C 19.66437 2.90664 -0.00381
C 20.90285 2.06216 0.03046
C 20.88795 0.66619 0.0296
C 19.60391 34.06204 0.03374
C 22.1297 32.67829 -0.02845
C 23.39866 31.97876 -0.03213
C 24.52155 2.77685 0.00684
C 23.31984 30.5421 0.02239
C 22.14976 11.32444 0.02734
C 23.33506 10.61153 -0.0055
C 23.32331 9.24394 0.01515
C 22.14957 8.49604 -0.00225
C 22.1421 7.09292 0.00071
C 23.39036 6.40701 -0.01107
C 23.3482 4.95266 -0.01586
C 22.15597 4.18918 -0.01971
C 22.14653 29.81312 0.01153
C 3.64809 31.9664 -0.01303
C 25.8238 2.11666 -0.01052
C 24.65378 34.05675 0.00367
C 28.27493 6.42486 0.01094
C 28.18926 4.96299 0.00235
C 26.96378 4.23736 0.01495
C 27.04269 2.76778 0.01259
C 28.25244 2.13628 0.01799
C 28.32658 0.69305 0.01699
C 27.10495 34.06688 -0.00416
C 29.40173 32.66465 0.01177
C 30.6587 31.88631 0.04266
C 30.75061 30.50404 0.01324
C 29.51747 29.78281 0.0014
C 29.57034 28.33368 0.00924
C 30.80791 27.62585 0.02326
C 30.76555 26.24065 0.00261
C 29.49907 25.53388 0.03265
C 29.5371 24.04958 -0.02049
C 30.71577 23.40238 -0.01854
C 27.0506 7.14149 0.02198
C 27.11624 8.47506 0.02611
C 28.36939 9.19194 -0.00621
C 28.27678 10.61267 0.00194
C 27.0412 32.64636 0.04306
C 28.27675 31.94719 0.00996
C 28.29804 30.50704 0.00195
C 27.09448 29.84214 -0.00802
C 27.04889 28.42155 -0.00218
C 28.29272 27.70831 -0.01654
C 28.35696 26.26758 -0.00037
C 27.09973 25.57357 -0.0032
C 25.87461 0.73376 -0.01679
C 27.07887 24.19982 0.00622
C 28.34228 21.90585 -0.00942
C 28.27225 19.11011 0.00487
C 28.3065 17.82292 0.00826
C 27.02877 15.71474 -0.00294
C 28.21464 14.92856 0.00152
C 28.27849 13.50399 0.01257
C 27.00613 12.81499 0.02316
C 27.04847 11.32663 0.04185
C 28.28302 23.39851 -0.02815
C 2.44129 32.72684 0.00848
