404
Graphene
C 0.02624 34.07953 0.01295
C 12.40408 19.90515 -0.01046
C 13.55198 17.76943 -0.00891
C 12.28277 17.16532 0.02819
C 12.34512 15.66866 0.00165
C 13.56633 14.93044 -0.02971
C 13.50191 13.53189 0.02894
C 12.3069 12.74642 -0.01789
C 12.26762 11.31817 0.00444
C 13.47639 10.57025 -0.00925
C 13.59586 9.13663 0.01877
C 12.32859 8.47126 0.01363
C 12.33629 7.10588 -0.02162
C 13.59965 6.34379 0.00415
C 13.51199 4.94953 -0.0014
C 12.26033 4.34151 0.02162
C 12.32999 2.88989 0.0076
C 13.51154 2.03174 0.01241
C 13.55855 0.63929 -0.01454
C 12.33083 34.00121 0.01945
C 14.7051 32.62563 0.01416
C 15.93751 32.03068 0.03542
C 12.2482 21.1601 -0.02689
C 15.89985 30.61401 0.02299
C 13.32943 23.60256 -0.01536
C 12.31284 25.72324 -0.00428
C 11.08997 13.53734 0.00057
C 9.88479 12.79902 -0.01634
C 9.81057 11.40795 -0.00334
C 11.03529 10.63166 0.02339
C 11.1378 9.23971 0.01641
C 9.84206 8.63383 -0.00719
C 9.83605 7.19488 0.01364
C 11.01558 6.45919 -0.01062
C 11.01714 5.04095 -0.00033
C 9.85648 4.2439 0.03589
C 9.87874 2.82608 -0.02759
C 11.12692 2.08668 0.0402
C 11.15072 0.67273 0.00572
C 9.87326 34.05148 0.03592
C 12.30083 32.57532 0.00406
C 13.47085 31.91741 0.00943
C 13.51694 30.48959 0.02841
C 12.28497 29.8212 -0.01111
C 12.3501 28.38122 -0.01275
C 13.58614 27.68658 0.00985
C 13.59701 26.28257 -0.02245
C 12.24514 24.31724 0.03101
C 14.72372 29.84161 0.00244
C 14.79714 28.37658 -0.01717
C 15.97006 27.67196 0.05265
C 17.23302 25.73784 -0.02815
C 17.1887 15.58359 -0.04147
C 18.45767 15.02502 -0.05302
C 18.44222 13.55525 0.00213
C 17.23174 12.83659 -0.00066
C 17.26341 11.34737 -0.00289
C 18.4322 10.67466 0.00028
C 18.41646 9.2258 -0.02213
C 17.22525 8.47618 0.03698
C 17.17686 7.10553 -0.00109
C 18.44261 6.35932 -0.00491
C 18.36585 4.94408 0.03338
C 17.15718 4.16195 -0.0258
C 17.18167 2.78673 -0.0331
C 18.50765 2.12902 -0.00316
C 18.39432 0.76805 0.02188
C 17.18196 0.03255 -0.01979
C 19.59162 32.65467 0.02691
C 20.85542 32.03827 -0.01581
C 20.91129 30.60505 0.01452
C 19.68775 29.88619 0.04892
C 18.48555 26.21336 0.03505
C 18.4537 27.73067 0.01443
C 17.24713 28.43355 0.00979
C 17.21996 29.86272 -0.00481
C 15.96565 26.14669 -0.01952
C 14.67169 25.45172 -0.02813
C 14.5078 17.08432 0.00374
C 14.86439 15.69684 0.00052
C 15.99475 14.91744 -0.03682
C 15.96537 13.48036 0.01965
C 14.6998 12.82352 0.02058
C 14.68534 11.30904 -0.01957
C 15.96582 10.6807 -0.0108
C 15.9904 9.22632 -0.00368
C 11.11477 14.93576 0.00093
C 14.77396 8.50495 -0.02696
C 15.95742 6.27746 0.00228
C 15.95353 4.87354 0.00798
C 14.77467 4.12317 0.00422
C 14.70069 2.75474 0.0351
C 15.97045 2.08967 -0.03113
C 15.9656 0.69841 0.02098
C 14.74413 34.06406 0.01848
C 17.16795 32.68459 -0.00619
C 18.39435 31.94486 -0.02162
C 18.48782 30.52219 0.00889
C 14.78246 7.07106 -0.00114
C 19.6878 28.41552 -0.00111
C 9.87336 15.6087 0.01291
C 11.02574 17.79118 -0.00191
C 6.08619 31.94014 0.00643
C 6.15455 30.56326 -0.01509
C 4.91669 29.861 0.03267
C 4.89611 28.38151 0.02374
C 6.10223 27.71712 0.00402
C 6.18336 26.24705 0.0073
C 4.92189 25.63363 0.0174
C 4.90393 24.26083 0.03828
C 6.11137 23.52957 0.01226
C 6.15245 22.05874 -0.00279
C 4.88235 21.28556 0.01996
C 4.82143 19.8523 -0.03996
C 6.04031 19.18686 0.01465
C 6.19291 17.76538 -0.00074
C 5.02743 17.10613 -0.00518
C 6.13039 10.54328 0.0086
C 6.23986 9.20215 -0.00643
C 4.96639 8.48383 0.017
C 4.79204 7.11751 -0.03113
C 6.07276 6.4544 -0.02566
C 6.11063 5.03714 -0.00094
C 4.83781 32.62872 0.00907
C 4.94462 4.26006 0.02322
C 2.42869 33.99368 0.02379
C 3.64417 2.01227 -0.003
C 3.6417 30.51665 0.00081
C 2.44977 29.84821 0.00245
C 2.36025 28.40173 0.02728
C 3.67058 27.77796 -0.00039
C 3.71171 26.35494 0.0064
C 2.46473 25.5322 0.00211
C 2.44208 24.06747 -0.00449
C 3.70227 23.46305 -0.01979
C 3.71656 22.01301 0.02784
C 2.44952 21.3477 -0.01977
C 2.41084 19.888 -0.00561
C 3.60873 19.12547 0.00208
C 3.74299 17.5822 0.01707
C 2.43251 17.08634 0.02769
C 3.73482 9.16713 -0.03291
C 2.47303 8.62741 -0.04999
C 2.40754 7.17542 0.04505
C 3.61685 6.39699 0.03284
C 3.71918 4.98885 -0.04307
C 2.52806 4.31287 0.03189
C 2.4667 2.84755 0.00031
C 3.71588 0.61438 0.01402
C 4.82306 2.83654 -0.00725
C 6.11112 2.08109 -0.05697
C 6.12258 0.69643 0.01087
C 8.66281 6.42646 -0.04848
C 8.58327 4.97427 -0.00892
C 7.3627 4.28653 -0.01362
C 7.33899 2.8148 -0.0008
C 8.60932 2.15936 0.0288
C 8.59641 0.72899 0.00393
C 7.33366 0.03491 0.00895
C 9.77413 32.62271 0.00685
C 11.0408 31.98963 0.02888
C 11.07958 30.54309 -0.00482
C 9.85533 29.90047 -0.01384
C 9.82862 28.44979 0.03693
C 11.13062 27.80354 0.01745
C 11.11574 26.35801 0.00488
C 9.88991 25.69457 -0.01004
C 9.81572 24.24168 -0.02896
C 11.02563 23.52856 -0.00131
C 11.07927 22.13448 -0.01118
C 9.88071 21.33321 -0.014
C 9.78396 19.90527 0.02147
C 11.09251 19.23375 0.00373
C 7.41032 7.07839 0.01572
C 7.47715 8.51719 -0.00095
C 8.62776 9.33394 0.03007
C 8.58191 10.73112 0.00054
C 4.88824 34.0251 -0.01343
C 7.30769 32.71744 0.00988
C 8.52808 31.95306 0.0276
C 8.58359 30.55692 0.01305
C 7.34419 29.85784 -0.00077
C 7.3363 28.42796 0.03368
C 8.53947 27.81963 -0.02929
C 8.60373 26.34009 -0.00966
C 7.44713 25.58331 -0.03337
C 7.38119 24.14081 0.01227
C 9.79896 17.02339 0.00438
C 8.60128 23.43798 0.00873
C 7.36169 21.39094 0.00848
C 7.2199 19.94453 -0.01303
C 8.48866 19.12855 -0.01378
C 8.58105 17.75058 0.02635
C 7.38204 16.98235 0.0127
C 7.30961 15.65537 0.01396
C 8.52481 14.90332 0.01849
C 8.55823 13.4918 -0.01142
C 7.45292 12.81483 -0.00562
C 7.23983 11.47416 -0.00494
C 8.62673 22.07286 -0.00049
C 20.93631 27.746 -0.03557
C 20.88906 26.24311 0.03754
C 19.71739 25.61197 0.01739
C 30.70444 10.71353 -0.00971
C 30.7158 9.29049 0.01518
C 29.51743 8.46811 0.01908
C 29.52086 7.01141 0.07705
C 30.77088 6.38501 0.0103
C 30.7503 4.9326 0.02108
C 29.49155 4.29468 0.00716
C 29.52799 2.87778 0.00307
C 30.75478 2.1307 0.00346
C 30.75985 0.70082 0.01713
C 29.52422 34.06549 -0.01694
C 32.03029 32.6148 0.01428
C 33.22769 31.90233 -0.02142
C 33.2109 30.47474 0.0544
C 31.9832 29.80483 0.00026
C 31.97198 28.42707 0.00682
C 33.15155 27.70607 -0.01779
C 33.19723 26.21257 0.03794
C 31.95796 25.51493 0.01927
C 31.92951 24.11235 0.01574
C 33.16447 23.4339 -0.02383
C 29.45677 11.33362 -0.03735
C 33.12514 21.99062 -0.01429
C 29.48711 12.82156 -0.00944
C 30.77549 14.92827 -0.01461
C 27.05598 2.76461 0.01699
C 28.32472 2.12978 -0.00416
C 28.29396 0.70472 0.01177
C 27.02775 33.9959 0.04266
C 29.55492 32.65947 0.01324
C 30.7918 31.95749 0.0014
C 30.76756 30.53254 0.00924
C 29.5056 29.82505 0.02326
C 29.49888 28.38606 0.00261
C 30.74421 27.74976 0.03265
C 30.78709 26.33637 -0.02049
C 29.4921 25.64543 -0.01854
C 29.49974 24.18446 -0.01415
C 30.66632 23.41142 -0.03039
C 30.69469 22.03252 0.01836
C 29.52332 21.32143 0.03531
C 29.54619 19.88967 -0.00669
C 30.74198 19.1113 0.0101
C 30.72129 17.75108 0.01705
C 29.45117 17.01296 -0.0405
C 29.53698 15.61516 -0.01303
C 30.70993 13.47504 -0.02155
C 31.90378 21.26138 -0.0136
C 31.97026 19.80797 0.00594
C 33.15535 19.15681 -0.02474
C 0.0187 24.18308 0.02712
C 1.20687 23.3867 -0.02213
C 1.13962 21.96191 0.01951
C 34.31875 21.25497 -0.01678
C 34.38413 19.85296 0.01223
C 1.18378 19.23199 0.00648
C 1.28254 17.73924 0.02114
C 0.02057 17.03753 -0.02957
C 34.39889 15.64532 0.00343
C 34.32479 12.76457 -0.02656
C 34.35476 11.33247 -0.02442
C 1.08304 10.60678 -0.00027
C 1.23199 9.30624 -0.00583
C 0.01921 8.50234 -0.02302
C 34.35629 7.07635 -0.02849
C 1.23004 6.4528 0.02931
C 1.27795 5.04049 0.00628
C 0.02529 4.32967 -0.0345
C 34.38429 2.87142 -0.00931
C 1.1837 2.18011 -0.00939
C 1.2387 0.74617 -0.00468
C 0.02985 25.57772 0.00723
C 1.27771 26.26604 0.03076
C 1.19787 27.66785 -0.05239
C 34.38717 28.36959 -0.00598
C 33.15792 17.80148 0.00369
C 31.95412 17.04572 0.00455
C 31.97349 15.62433 -0.00644
C 33.27281 14.85462 -0.01839
C 33.203 13.4717 0.00137
C 31.95836 12.77548 0.00199
C 31.93468 11.36144 0.04381
C 33.0776 10.59016 0.02806
C 33.20744 9.13321 0.01504
C 31.91134 8.55083 -0.00069
C 26.99152 4.19619 0.01799
C 31.93222 7.1457 0.04926
C 33.16851 4.95384 0.00349
C 31.99348 4.24575 -0.00323
C 31.97955 2.84291 -0.00841
C 33.19814 2.07738 0.0001
C 33.21174 0.67758 -0.02927
C 31.97624 34.03777 -0.01404
C 34.42722 32.63905 0.01027
C 1.21337 31.93409 0.01831
C 1.20309 30.52109 -0.01037
C 0.04306 29.81787 -0.00439
C 33.11951 6.39169 -0.03838
C 28.21976 4.87633 0.01259
C 28.25988 6.3454 0.01495
C 27.06876 7.1284 0.00235
C 22.22871 15.52503 0.01087
C 23.42138 14.90891 0.00199
C 23.2643 13.45766 0.01511
C 22.04207 12.71509 -0.00478
C 22.15286 11.27605 -0.01662
C 23.41658 10.58789 -0.01185
C 23.38546 9.17777 0.01126
C 22.20582 8.50149 0.01852
C 22.1821 7.06486 -0.00381
C 23.41963 6.32613 0.03046
C 23.33526 4.91262 0.0296
C 22.10763 4.2299 0.03374
C 22.17827 2.79547 -0.02845
C 23.43807 2.1144 -0.03213
C 23.38693 0.62971 0.02239
C 22.17697 34.06225 0.01153
C 24.61676 32.65773 0.02734
C 25.78711 31.90845 -0.0055
C 25.92017 30.49675 0.01515
C 24.70534 29.79645 -0.00225
C 24.55675 28.3977 0.00071
C 23.32704 23.50882 -0.01527
C 22.2851 24.16498 0.00096
C 22.15929 25.54877 0.01277
C 23.43304 26.26712 -0.02422
C 19.75263 15.60741 0.00755
C 20.94623 14.95335 -0.0054
C 20.8848 13.43689 0.00667
C 19.60932 12.87099 0.00143
C 19.65705 11.41878 -0.017
C 20.87613 10.63662 0.00364
C 20.9151 9.22711 -0.00831
C 19.69686 8.51407 -0.02957
C 19.66947 7.08041 -0.04422
C 20.92106 6.3357 0.00654
C 25.70256 27.70436 -0.01107
C 20.86721 4.99191 -0.00703
C 19.65803 2.85011 -0.00652
C 20.94368 2.11663 0.0058
C 20.92431 0.68423 -0.00865
C 19.57311 0.04429 0.00675
C 22.13541 32.63152 -0.00311
C 23.37492 31.95151 0.00742
C 23.44351 30.57738 -0.01594
C 22.17332 29.9027 0.0106
C 22.15326 28.4319 -0.01154
C 23.35683 27.70884 -0.01721
C 19.59828 4.29041 -0.04076
C 3.68113 31.91913 -0.02805
C 25.75824 26.29133 -0.01586
C 24.57943 24.09245 -0.02118
C 27.09692 29.79063 0.00195
C 26.98538 28.38187 -0.00802
C 28.19144 27.67184 -0.00218
C 28.21811 26.28763 -0.01654
C 26.96917 25.6079 -0.00037
C 26.98617 24.1093 -0.0032
C 28.29289 23.4495 0.00622
C 28.24684 22.02696 -0.02815
C 26.97973 21.23343 -0.00942
C 27.04017 19.81552 0.00487
C 28.35787 19.15047 0.00826
C 28.30433 17.75593 -0.00294
C 27.06948 17.12679 0.00152
C 27.15338 15.67093 0.01257
C 28.36851 14.90916 0.02316
C 28.2442 13.47306 0.04185
C 26.96833 12.80384 0.00194
C 27.0202 11.37907 -0.00621
C 28.22741 10.65152 0.02611
C 28.35409 9.25822 0.02198
C 27.08594 8.54109 0.01094
C 28.34181 30.51941 0.00996
C 28.29067 31.91557 0.04306
C 27.04958 32.55768 0.00367
C 24.58664 34.00013 -0.01679
C 25.78802 23.39063 0.00733
C 25.70636 22.01658 -0.00178
C 24.55227 21.16153 0.00768
C 24.63224 19.96293 -0.0276
C 25.73425 19.09807 0.03005
C 25.79399 17.74615 -0.04078
C 24.62745 17.02771 0.02117
C 24.63411 15.64737 0.02737
C 25.89663 14.98932 -0.00498
C 25.7864 13.54777 0.00135
C 24.57116 25.51044 -0.01971
C 24.51317 12.81354 0.03102
C 25.85335 10.63815 0.01423
C 25.8688 9.24546 -0.00285
C 24.67922 8.47656 -0.009
C 24.56924 7.09175 -0.01199
C 25.90552 6.383 -0.00229
C 25.82107 4.98412 -0.00938
C 24.66352 4.25217 -0.0264
C 24.63829 2.7943 -0.01154
C 25.86945 2.02077 0.00684
C 25.86452 0.6374 -0.01052
C 24.62793 11.3941 0.02555
C 2.38088 32.65405 -0.01386
