425
Graphene
C 0.01749 0.01717 0.01295
C 12.33099 24.1411 0.00572
C 13.49428 23.50462 0.03592
C 13.5238 22.05699 0.00406
C 12.32271 21.31001 0.00943
C 12.34318 19.91514 0.02841
C 13.54131 19.20283 -0.01111
C 13.45986 17.7069 -0.01275
C 12.2565 17.01547 0.00985
C 12.25985 15.50532 -0.02245
C 13.52218 14.87177 -0.00428
C 12.3299 25.59742 0.0402
C 13.54951 13.45155 0.03101
C 12.33408 11.34102 -0.02689
C 13.57796 10.63428 -0.01046
C 13.50553 9.31418 -0.00891
C 12.32493 8.4897 0.02819
C 12.30082 7.01434 0.00165
C 13.47228 6.32331 -0.02971
C 13.57542 4.88362 0.02894
C 12.23336 4.24518 -0.01789
C 12.26228 2.8915 0.00444
C 13.51569 2.07776 -0.00925
C 12.25362 12.8359 -0.01536
C 13.4361 26.35746 -0.02759
C 13.52804 27.73912 0.03589
C 12.31245 28.43411 -0.00033
C 11.09514 19.19899 -0.01384
C 11.07699 17.75318 0.03693
C 9.81825 17.067 0.01745
C 9.81741 15.61905 0.00488
C 11.07188 14.95891 -0.01004
C 11.06588 13.59298 -0.02896
C 9.82684 12.808 -0.00131
C 9.81505 11.44622 -0.01118
C 11.09892 10.57993 -0.014
C 11.11043 9.20438 0.02147
C 9.89412 8.54972 0.00373
C 9.95117 7.10565 -0.00191
C 11.04688 6.34251 0.00438
C 11.05093 4.99243 0.01291
C 9.83591 4.21327 0.00093
C 9.75528 2.80827 0.00057
C 11.08416 2.11918 -0.01634
C 11.17356 0.72768 -0.00334
C 9.87155 0.02757 0.02339
C 12.31801 32.68263 0.01641
C 13.47861 32.05948 -0.00719
C 13.50994 30.58593 0.01364
C 12.26177 29.78084 -0.01062
C 13.54712 0.66998 0.01877
C 9.84793 19.93192 -0.00482
C 12.32252 34.05151 0.01363
C 15.95164 31.96047 0.00415
C 15.94544 2.13841 0.0351
C 16.0161 0.68593 -0.03113
C 14.81235 0.05791 0.02098
C 17.21314 32.61907 0.01848
C 18.46819 31.95067 -0.00619
C 18.4556 30.52964 -0.02162
C 17.25737 29.78445 0.00889
C 17.13536 28.39983 -0.00481
C 18.40263 27.66425 0.00979
C 18.46132 26.21571 0.01443
C 14.76838 2.7772 0.00422
C 17.20389 25.59327 0.03505
C 18.40027 23.44047 -0.04147
C 18.39277 22.0203 -0.05302
C 17.15175 21.35146 0.00213
C 17.1943 19.91285 -0.00066
C 18.44067 19.18513 -0.00289
C 18.46998 17.72317 0.00028
C 17.24328 17.03737 -0.02213
C 17.22854 15.64114 0.03698
C 18.46472 14.93681 -0.00109
C 18.51462 13.49959 -0.00491
C 17.20581 24.15474 -0.02815
C 14.76635 4.20297 0.00798
C 15.96112 4.93602 0.00228
C 15.99096 6.38723 -0.00114
C 16.03249 30.56124 -0.0014
C 14.72715 29.834 0.02162
C 14.70867 28.42353 0.0076
C 15.92161 27.69706 0.01241
C 15.96044 26.25762 -0.01454
C 14.67883 25.57814 0.01945
C 14.74231 24.179 0.01416
C 16.02141 23.41685 0.03542
C 15.93514 21.99659 0.02299
C 14.74505 21.24236 0.00244
C 14.72874 19.83905 -0.01717
C 15.99042 19.12361 0.05265
C 15.94869 17.71008 -0.01952
C 14.76234 17.01415 -0.02813
C 14.78446 15.63657 0.00374
C 15.97253 14.96776 0.00052
C 16.00981 13.45648 -0.03682
C 14.74683 12.78165 0.01965
C 14.75632 11.39076 0.02058
C 16.00848 10.69185 -0.01957
C 15.99605 9.16176 -0.0108
C 14.73731 8.53579 -0.00368
C 14.71473 7.12321 -0.02696
C 14.7199 32.68871 -0.02162
C 9.83781 21.32706 0.02888
C 11.05949 22.06009 0.00685
C 11.08626 23.40287 0.00895
C 3.70171 2.14163 -0.00449
C 3.71717 0.73347 -0.01979
C 2.48555 0.00402 0.02784
C 4.85586 32.74456 -0.01977
C 6.14445 31.97421 -0.00561
C 6.15052 30.50976 0.00208
C 4.90102 29.81983 0.01707
C 4.89614 28.42062 0.02769
C 6.20208 27.65482 -0.03291
C 6.22442 26.28814 -0.04999
C 2.44907 2.83161 0.00211
C 5.02285 25.54466 0.04505
C 6.14216 23.41423 -0.04307
C 6.08372 21.99657 0.03189
C 4.8676 21.38601 0.00031
C 4.92193 19.8972 -0.003
C 6.1779 19.17223 0.01402
C 6.15093 17.77834 0.02379
C 4.98205 17.01756 0.00907
C 4.89097 15.57002 0.00643
C 6.18429 14.87616 -0.01509
C 6.07814 13.44884 0.03267
C 4.90167 24.20389 0.03284
C 2.4094 4.29437 0.0064
C 3.64703 4.9912 -0.00039
C 3.72792 6.42204 0.02728
C 3.68979 30.45412 -0.01471
C 2.49447 29.83104 -0.02827
C 2.49274 28.44212 0.01078
C 3.6996 27.73026 -0.00112
C 3.6935 26.24446 0.03345
C 2.4318 25.47786 0.00748
C 2.44468 24.08874 0.00662
C 3.72416 23.42034 -0.0154
C 3.68948 21.9939 -0.01299
C 2.4454 21.3386 -0.00407
C 2.4833 19.94602 0.01138
C 3.66361 19.17049 0.03278
C 3.77189 17.74161 -0.00177
C 2.52347 17.03993 0.04421
C 2.48565 15.67071 0.00088
C 3.63419 14.81254 0.00828
C 3.66182 13.45238 -0.02375
C 2.40113 12.7937 0.00558
C 2.40918 11.30286 -0.0059
C 3.7016 10.64717 -0.01386
C 3.66794 9.25331 -0.02805
C 2.42754 8.53069 0.00081
C 2.48927 7.03272 0.00245
C 4.87527 12.80935 0.02374
C 4.91634 11.39648 0.00402
C 6.18477 10.67811 0.0073
C 6.11627 9.2265 0.0174
C 8.62849 13.51618 0.01227
C 7.41218 12.81071 0.00873
C 7.38566 11.38798 -0.00049
C 8.58749 10.69999 0.00848
C 8.66406 9.24065 -0.01303
C 7.40442 8.58545 -0.01378
C 7.37044 7.16781 0.02635
C 8.66586 6.46872 0.0127
C 8.57403 5.079 0.01396
C 7.34651 4.33071 0.01849
C 7.38812 2.88498 -0.01142
C 8.53302 2.11833 -0.00562
C 8.6218 0.73865 -0.00494
C 7.39498 34.0542 0.00054
C 9.85124 32.66117 0.03007
C 11.04678 32.00381 -0.00095
C 11.02202 30.58197 0.01572
C 9.84369 29.83156 -0.04848
C 9.73735 28.39381 -0.00892
C 11.01056 27.74358 -0.01362
C 11.07124 26.25635 -0.0008
C 9.86685 25.55923 0.0288
C 9.79632 24.18419 0.00393
C 8.58212 14.92956 -0.03337
C 17.28814 12.83904 0.03338
C 7.38695 15.56857 -0.00966
C 8.60247 17.7867 0.03368
C 4.85316 8.51108 0.03828
C 4.90395 7.12928 0.01226
C 6.14688 6.43337 -0.00279
C 6.0262 4.99254 0.01996
C 4.83994 4.26331 -0.03996
C 4.89424 2.78616 0.01465
C 6.17428 2.19536 -0.00074
C 6.12815 0.7277 -0.00518
C 4.92814 0.05354 0.0086
C 7.37366 32.62896 -0.00643
C 8.60451 31.94433 0.017
C 8.59962 30.57391 -0.03113
C 7.42485 29.83294 -0.02566
C 7.41245 28.44385 -0.00094
C 8.58071 27.659 0.02322
C 8.59808 26.2638 -0.00725
C 7.38329 25.56102 -0.05697
C 7.30323 24.19176 0.01087
C 8.64895 23.44561 -0.01343
C 8.62209 21.96621 0.00988
C 7.41609 21.27739 0.0276
C 7.36265 19.91951 0.01305
C 8.59459 19.22837 -0.00077
C 7.4006 17.05464 -0.02929
C 3.6511 31.93502 0.01218
C 17.20703 11.35597 -0.0258
C 18.40187 9.26081 -0.00316
C 30.85722 13.54779 -0.02155
C 30.77558 10.55021 -0.00944
C 30.77726 9.17771 -0.03735
C 29.51888 8.56344 -0.00971
C 29.49264 7.14934 0.01518
C 30.73675 6.34964 0.01908
C 30.67327 4.98634 0.07705
C 29.5556 4.20554 0.0103
C 29.45605 2.77345 0.02108
C 30.69218 2.14957 0.00716
C 30.65928 14.86742 -0.01461
C 30.70307 0.73948 0.00307
C 31.9513 32.63634 0.01713
C 33.2176 31.88178 -0.01694
C 33.24533 30.50225 0.01428
C 31.98642 29.84421 -0.02142
C 32.03432 28.37377 0.0544
C 33.20885 27.6063 0.00026
C 33.2221 26.26194 0.00682
C 32.01434 25.52635 -0.01779
C 31.95792 24.11143 0.03794
C 33.21173 23.39661 0.01927
C 29.50483 0.03182 0.00346
C 29.50629 15.66386 -0.01303
C 29.5249 17.08838 -0.0405
C 30.7676 17.76569 0.01705
C 27.17822 8.58983 0.01094
C 26.99287 7.1531 0.00235
C 28.28674 6.41055 0.01495
C 28.29078 4.95633 0.01259
C 27.11072 4.30094 0.01799
C 27.09278 2.83529 0.01699
C 28.23945 2.08201 -0.00416
C 28.27865 0.72347 0.01177
C 27.04262 0.008 0.04266
C 29.55562 32.71898 0.01324
C 30.68412 31.85362 0.0014
C 30.70759 30.47722 0.00924
C 29.49574 29.79099 0.02326
C 29.57258 28.37745 0.00261
C 30.68561 27.62207 0.03265
C 30.68766 26.26034 -0.02049
C 29.47766 25.5053 -0.01854
C 29.48942 24.12646 -0.01415
C 30.72807 23.38341 -0.03039
C 30.74996 22.07619 0.01836
C 29.53034 21.3383 0.03531
C 29.53277 19.88764 -0.00669
C 30.76204 19.1537 0.0101
C 33.17044 21.98387 0.01574
C 28.16257 9.21644 0.02198
C 31.96532 21.31984 -0.02383
C 33.2358 19.13231 -0.0136
C 1.21544 23.42436 0.00723
C 1.18682 22.06632 0.02712
C 34.43088 21.34126 -0.02213
C 34.4318 19.9507 0.01951
C 1.20654 19.2043 -0.01678
C 1.20295 17.75831 0.01223
C 34.41906 17.07243 0.00648
C 0.01918 15.61448 0.02114
C 1.24904 14.92201 -0.02957
C 1.20656 13.45189 0.00343
C 34.41429 24.13817 0.03076
C 34.41614 12.79877 -0.02656
C 1.17413 10.73474 -0.00027
C 1.21767 9.17917 -0.00583
C 34.41373 8.49214 -0.02302
C 34.37041 7.0902 -0.02849
C 1.22188 6.40323 0.02931
C 1.23379 4.96217 0.00628
C 34.35025 4.18164 -0.0345
C 34.39884 2.80175 -0.00931
C 1.25451 2.11944 -0.00939
C 1.22219 0.66994 -0.00468
C 34.36259 11.37874 -0.02442
C 0.02856 25.52611 -0.05239
C 1.261 26.24562 -0.00598
C 1.28189 27.71531 -0.00439
C 33.18169 17.72749 0.00594
C 31.98624 16.95844 -0.02474
C 31.96531 15.58094 0.00369
C 33.17241 14.87701 0.00455
C 33.21871 13.48024 -0.00644
C 32.01817 12.75291 -0.01839
C 31.91917 11.39322 0.00137
C 33.08772 10.63954 0.00199
C 33.11993 9.20082 0.04381
C 31.96419 8.4539 0.02806
C 31.93263 7.08469 0.01504
C 33.22439 6.36682 -0.00069
C 33.21881 4.9518 0.04926
C 31.85965 4.28416 -0.03838
C 31.89494 2.7783 0.00349
C 33.20134 2.10289 -0.00323
C 33.21342 0.68209 -0.00841
C 31.99999 34.0187 0.0001
C 0.04758 32.6117 -0.02927
C 1.27092 31.92899 -0.01404
C 1.21497 30.53534 0.01027
C 0.03407 29.74454 0.01831
C 34.40362 28.33606 -0.01037
C 31.95995 19.91547 -0.01429
C 28.3612 17.72474 0.02611
C 28.37457 19.09857 -0.00621
C 27.05308 19.84228 0.00194
C 20.87409 13.44051 0.00742
C 19.72191 12.76782 -0.01594
C 19.70049 11.31401 0.0106
C 20.94713 10.67163 -0.01154
C 20.89943 9.24688 -0.01721
C 19.65138 8.54209 -0.02422
C 19.72724 7.10113 0.01277
C 20.96194 6.40785 0.00096
C 20.93388 4.99931 -0.01527
C 19.68434 4.30468 0.01087
C 20.99577 14.78424 -0.00311
C 19.65486 2.84133 0.00199
C 20.91937 0.72896 -0.00478
C 19.65068 0.06619 -0.01662
C 22.08776 32.63223 -0.01185
C 23.35595 31.97953 0.01126
C 23.34186 30.55097 0.01852
C 22.12417 29.79624 -0.00381
C 22.17225 28.42019 0.03046
C 23.35355 27.74438 0.0296
C 23.37652 26.22239 0.03374
C 22.15373 25.6202 -0.02845
C 20.94101 2.12503 0.01511
C 19.72102 15.57088 0.00675
C 19.64095 16.98183 -0.00865
C 20.92288 17.80912 0.0058
C 17.19581 8.4961 0.02188
C 17.36099 7.16372 -0.01979
C 18.46518 6.40968 0.02691
C 18.45297 4.96173 -0.01581
C 17.22484 4.24305 0.01452
C 17.1161 2.85209 0.04892
C 18.35124 2.14212 -0.00111
C 18.38935 0.71872 -0.03557
C 17.17308 34.0424 0.03754
C 19.68956 32.64337 0.01739
C 20.82072 31.87859 0.00755
C 20.88687 30.50839 -0.0054
C 19.63422 29.83132 0.00667
C 19.60977 28.37307 0.00143
C 20.86896 27.73192 -0.017
C 20.90782 26.28862 0.00364
C 19.69282 25.55623 -0.00831
C 19.66755 24.15397 -0.02957
C 20.91509 23.3548 -0.04422
C 20.91058 21.98865 0.00654
C 19.64883 21.28321 -0.00703
C 19.68368 19.87189 -0.04076
C 20.98331 19.2339 -0.00652
C 22.13269 24.15617 -0.03213
C 23.32545 23.36716 0.02239
C 23.33686 21.99132 0.01153
C 22.13794 21.3321 0.02734
C 25.7538 19.16999 -0.01154
C 25.80595 17.75589 0.00684
C 24.65327 8.53204 -0.01052
C 24.60936 7.14038 -0.01679
C 25.84042 6.38433 0.00367
C 25.80296 4.92561 0.04306
C 24.5812 4.3063 0.00996
C 24.6001 2.87284 0.00195
C 25.79313 2.11298 -0.00802
C 25.7953 0.68846 -0.00218
C 24.58468 34.07611 -0.01654
C 27.04552 32.64823 -0.00037
C 28.30109 31.94533 -0.0032
C 28.32283 30.50243 0.00622
C 27.05099 29.8912 -0.02815
C 27.08764 28.43322 -0.00942
C 28.23973 27.67613 0.00487
C 28.28891 26.23826 0.00826
C 27.05512 25.57929 -0.00294
C 27.07443 24.19948 0.00152
C 28.29402 23.39508 0.01257
C 28.29104 21.96677 0.02316
C 27.11923 21.27029 0.04185
C 24.5423 19.96309 -0.0264
C 18.45599 10.66805 -0.0331
C 24.59171 21.34016 -0.00938
C 25.83596 23.41739 -0.01199
C 22.16962 19.84127 -0.0055
C 23.31933 19.10902 0.01515
C 23.43901 17.76833 -0.00225
C 22.15644 16.99339 0.00071
C 22.03765 15.6663 -0.01107
C 22.13272 8.48988 -0.01586
C 22.09112 7.1295 -0.01971
C 23.37514 6.36468 -0.02118
C 23.28463 4.89067 0.00733
C 22.06821 4.25273 -0.00178
C 22.12176 2.87084 0.00768
C 23.37068 2.19518 -0.0276
C 23.3343 0.62373 0.03005
C 22.15721 34.05475 -0.04078
C 24.59236 32.72405 0.02117
C 25.80082 31.98132 0.02737
C 25.81898 30.59812 -0.00498
C 24.61909 29.79656 0.00135
C 24.61759 28.37692 0.03102
C 25.84618 27.67307 0.02555
C 25.81483 26.26587 0.01423
C 24.60365 25.52297 -0.00285
C 24.64269 24.14994 -0.009
C 25.85517 22.00161 -0.00229
C 2.47786 32.70287 0.02426
