418
Graphene
C 0.0213 34.06864 0.01295
C 14.78588 29.89762 0.02841
C 14.78147 28.36604 -0.01111
C 15.95284 27.73183 -0.01275
C 15.95201 26.39633 0.00985
C 14.87876 25.60973 -0.02245
C 14.87785 24.29046 -0.00428
C 15.80734 23.37325 0.03101
C 15.85721 21.93613 -0.01536
C 14.784 21.16535 -0.02689
C 14.72223 19.78825 -0.01046
C 15.9865 30.60345 0.00943
C 15.98781 19.19078 -0.00891
C 14.72453 17.0807 0.00165
C 14.72817 15.64862 -0.02971
C 16.0312 14.8222 0.02894
C 16.01457 13.41446 -0.01789
C 14.78554 12.68302 0.00444
C 14.77012 11.21512 -0.00925
C 15.89679 10.56393 0.01877
C 15.9713 9.16343 0.01363
C 14.67056 8.48682 -0.02162
C 14.66295 7.17876 0.00415
C 16.00978 17.73179 0.02819
C 15.98924 6.39993 -0.0014
C 15.95635 32.00567 0.00406
C 12.24522 0.062 0.00572
C 13.57316 30.51921 -0.02896
C 12.30387 29.80093 -0.00131
C 12.43363 28.48213 -0.01118
C 13.5085 27.80776 -0.014
C 13.412 19.16118 0.02147
C 13.54257 17.74417 0.00373
C 12.34239 17.14007 -0.00191
C 12.33349 15.66426 0.00438
C 13.54154 14.91968 0.01291
C 13.5592 13.41464 0.00093
C 14.72613 32.70476 0.03592
C 12.21931 12.77329 0.00057
C 13.47816 10.58704 -0.00334
C 13.40806 9.13724 0.02339
C 12.19899 8.49472 0.01641
C 12.29145 7.07022 -0.00719
C 13.48236 6.37144 0.01364
C 13.5183 4.9555 -0.01062
C 12.30514 4.32371 -0.00033
C 12.21539 2.96125 0.03589
C 13.50677 2.20435 -0.02759
C 13.49975 0.83053 0.0402
C 12.26938 11.3927 -0.01634
C 13.54664 32.00222 -0.01004
C 16.0269 4.99654 0.02162
C 14.76766 2.93645 0.01241
C 17.22024 8.48732 0.01848
C 17.17985 7.11672 -0.00619
C 18.42906 6.50108 -0.02162
C 18.39255 5.01848 0.00889
C 17.25602 4.33346 -0.00481
C 17.23396 2.84615 0.00979
C 18.44141 2.07709 0.01443
C 18.453 0.67218 0.03505
C 17.2654 0.03501 -0.02815
C 19.61388 32.56836 -0.04147
C 18.48253 9.16194 0.02098
C 20.82411 31.92455 -0.05302
C 19.63194 29.83982 -0.00066
C 19.61778 28.48034 -0.00289
C 20.80811 27.72137 0.00028
C 20.83589 26.28913 -0.02213
C 19.61799 25.54332 0.03698
C 19.61914 24.13486 -0.00109
C 20.80965 23.44556 -0.00491
C 20.85953 22.0039 0.03338
C 19.6516 21.29409 -0.0258
C 19.72324 19.86303 -0.0331
C 20.8363 30.47057 0.00213
C 14.83314 4.27942 0.0076
C 18.42241 10.53984 -0.03113
C 17.27786 12.65417 0.00422
C 16.00258 2.18394 -0.01454
C 15.93522 0.74323 0.01945
C 14.74036 0.07807 0.01416
C 17.18123 32.72876 0.03542
C 18.36083 31.95277 0.02299
C 18.39659 30.58755 0.00244
C 17.24722 29.86623 -0.01717
C 17.1846 28.4097 0.05265
C 18.35242 27.70419 -0.01952
C 18.38033 26.25412 -0.02813
C 17.2101 11.24287 0.0351
C 17.16312 25.55568 0.00374
C 18.35852 23.43291 -0.03682
C 18.41628 22.0166 0.01965
C 17.1304 21.31433 0.02058
C 17.19494 19.89338 -0.01957
C 18.53719 19.14533 -0.0108
C 18.42896 17.82506 -0.00368
C 17.23295 17.08532 -0.02696
C 17.24301 15.65298 -0.00114
C 18.42845 14.84476 0.00228
C 18.48702 13.46547 0.00798
C 17.09087 24.04167 0.00052
C 12.34077 32.70226 0.00488
C 9.84251 0.01805 0.01745
C 11.05269 0.777 0.03693
C 2.46803 2.79556 0.01707
C 3.71629 2.22436 0.02769
C 3.67955 0.70121 -0.03291
C 2.43768 34.06639 -0.04999
C 4.86545 32.68932 0.04505
C 6.163 31.98175 0.03284
C 6.11709 30.55274 -0.04307
C 4.9334 29.84233 0.03189
C 4.84749 28.40728 0.00031
C 6.04277 27.83619 -0.003
C 2.39135 4.34141 0.00208
C 5.00538 21.32581 0.01402
C 6.13773 19.06227 0.00907
C 6.13799 17.70895 0.00643
C 4.8783 17.13415 -0.01509
C 4.9427 15.7274 0.03267
C 6.15415 14.96596 0.02374
C 6.11205 13.59835 0.00402
C 4.90066 12.78438 0.0073
C 4.95681 11.31027 0.0174
C 6.11319 10.63274 0.03828
C 6.05924 9.21782 0.01226
C 5.10334 19.98288 0.02379
C 4.85565 8.50318 -0.00279
C 3.65185 4.98205 -0.00561
C 2.4138 7.1004 0.02784
C 3.72039 30.50914 -0.0154
C 2.45732 29.73683 -0.01299
C 2.4934 28.40531 -0.00407
C 3.66336 27.62711 0.01138
C 3.67896 26.21136 0.03278
C 2.46015 25.57126 -0.00177
C 2.39889 24.18407 0.04421
C 3.47714 23.35307 0.00088
C 3.83677 22.01571 0.00828
C 2.42205 21.30918 -0.02375
C 3.5933 6.44452 -0.01977
C 2.48318 19.88468 0.00558
C 3.68223 17.80436 -0.01386
C 2.51367 17.07383 -0.02805
C 2.48829 15.65408 0.00081
C 3.65487 14.87733 0.00245
C 3.66961 13.38574 0.02728
C 2.47031 12.82764 -0.00039
C 2.41719 11.32285 0.0064
C 3.6906 10.60477 0.00211
C 3.61172 9.23648 -0.00449
C 2.3138 8.51306 -0.01979
C 3.75932 19.27721 -0.0059
C 4.883 7.02053 0.01996
C 6.07914 6.44685 -0.03996
C 6.12833 4.99889 0.01465
C 7.37136 0.04677 0.02635
C 9.76072 32.66522 0.0127
C 11.06696 31.99359 0.01396
C 11.0565 30.52559 0.01849
C 9.76932 29.97631 -0.01142
C 11.15958 19.29351 -0.00562
C 11.10175 17.85676 -0.00494
C 9.7694 17.20575 0.00054
C 9.78545 15.70447 0.03007
C 11.05947 15.03753 -0.00095
C 8.57813 0.71314 -0.01378
C 11.13171 13.55624 0.01572
C 9.85164 11.46269 -0.00892
C 10.9955 10.68335 -0.01362
C 11.06856 9.25386 -0.0008
C 9.75209 8.53926 0.0288
C 9.77643 7.16251 0.00393
C 10.98931 6.41892 0.00895
C 11.09235 4.99975 0.00685
C 9.8238 4.31548 0.02888
C 9.80907 2.93426 -0.00482
C 11.08434 2.21304 -0.01384
C 9.87962 12.89534 -0.04848
C 8.62886 2.18572 -0.01303
C 7.38233 2.90756 0.00848
C 7.37333 4.26491 -0.00049
C 4.89988 4.31338 -0.00074
C 4.92922 2.85711 -0.00518
C 6.1658 2.20523 0.0086
C 6.13096 0.70816 -0.00643
C 4.91256 0.04905 0.017
C 7.32786 32.75488 -0.03113
C 8.54851 31.94825 -0.02566
C 8.6022 30.51549 -0.00094
C 7.36164 29.73593 0.02322
C 7.29924 28.41392 -0.00725
C 8.60572 17.81815 -0.05697
C 7.49262 17.11955 0.01087
C 7.39572 15.6702 -0.01343
C 8.59208 15.00466 0.00988
C 8.5705 13.56391 0.0276
C 7.33671 12.8065 0.01305
C 7.36673 11.38155 -0.00077
C 8.61494 10.68327 0.03368
C 8.53951 9.2921 -0.02929
C 7.27469 8.5497 -0.00966
C 7.34587 7.14546 -0.03337
C 8.61284 6.41225 0.01227
C 8.50046 5.07896 0.00873
C 20.94056 19.1551 -0.00316
C 20.91285 17.72414 0.02188
C 19.69227 17.04791 -0.01979
C 19.66102 15.62284 0.02691
C 29.50761 11.36696 -0.02155
C 30.74586 10.63584 -0.00944
C 30.73956 9.23571 -0.03735
C 29.53953 8.46475 -0.00971
C 29.56768 7.03916 0.01518
C 30.78735 6.37333 0.01908
C 30.71895 4.92989 0.07705
C 29.48383 4.21771 0.0103
C 29.54737 2.81448 0.02108
C 30.70359 2.05288 0.00716
C 29.49108 12.75559 -0.01461
C 30.7988 0.67927 0.00307
C 31.95155 32.64818 0.01713
C 33.14475 31.87431 -0.01694
C 33.20707 30.4974 0.01428
C 31.98381 29.76303 -0.02142
C 31.96795 28.36786 0.0544
C 33.20123 27.67837 0.00026
C 33.18659 26.22168 0.00682
C 31.9892 25.48336 -0.01779
C 31.92795 24.10887 0.03794
C 33.17608 23.4201 0.01927
C 29.57366 0.05775 0.00346
C 33.16161 21.98472 0.01574
C 30.73878 13.41383 -0.01303
C 29.46094 15.57809 0.01705
C 28.31913 5.01724 0.00235
C 27.06513 4.35822 0.01495
C 27.04492 2.90613 0.01259
C 28.30052 2.21738 0.01799
C 28.28846 0.76271 0.01699
C 27.11416 0.06497 -0.00416
C 29.52368 32.73993 0.01177
C 30.75021 31.977 0.04266
C 30.70878 30.54378 0.01324
C 29.53241 29.8693 0.0014
C 30.71573 14.8595 -0.0405
C 29.51891 28.43414 0.00924
C 30.75503 26.24332 0.00261
C 29.46892 25.55044 0.03265
C 29.52919 24.22467 -0.02049
C 30.77111 23.44788 -0.01854
C 30.70904 21.99359 -0.01415
C 29.43154 21.23412 -0.03039
C 29.47585 19.85353 0.01836
C 30.72851 19.15966 0.03531
C 30.65705 17.75011 -0.00669
C 29.45292 16.99477 0.0101
C 30.72847 27.73099 0.02326
C 31.95417 21.26555 -0.02383
C 31.91826 19.87017 -0.01429
C 33.14776 19.1859 -0.0136
C 1.16988 23.37653 0.00723
C 1.25116 21.99499 0.02712
C 0.03948 21.22541 -0.02213
C 0.00958 19.79644 0.01951
C 1.22593 19.18687 -0.01678
C 1.22245 17.75465 0.01223
C 34.41726 17.08374 0.00648
C 0.02148 15.68495 0.02114
C 1.28058 14.94429 -0.02957
C 1.26673 13.54177 0.00343
C 34.4168 24.02227 0.03076
C 34.41891 12.78126 -0.02656
C 1.19589 10.5903 -0.00027
C 1.0981 9.18384 -0.00583
C 34.38279 8.50977 -0.02302
C 34.38325 7.10282 -0.02849
C 1.17781 6.40869 0.02931
C 1.17555 4.94976 0.00628
C 34.35396 4.29631 -0.0345
C 34.37201 2.86015 -0.00931
C 1.25627 2.12986 -0.00939
C 1.25428 0.68238 -0.00468
C 34.43033 11.35211 -0.02442
C 0.00182 25.48559 -0.05239
C 1.19715 26.20738 -0.00598
C 1.22348 27.59544 -0.00439
C 33.09999 17.79787 0.00594
C 31.90266 16.96038 -0.02474
C 31.9139 15.57634 0.00369
C 33.2179 14.9355 0.00455
C 33.14062 13.47651 -0.00644
C 31.96769 12.73338 -0.01839
C 31.97596 11.35243 0.00137
C 33.26091 10.62445 0.00199
C 33.20465 9.19666 0.04381
C 31.93869 8.4594 0.02806
C 31.93704 7.07192 0.01504
C 33.18709 6.28633 -0.00069
C 33.1649 4.89526 0.04926
C 31.95362 4.115 -0.03838
C 31.91792 2.76517 0.00349
C 33.19864 2.06356 -0.00323
C 33.21933 0.69275 -0.00841
C 32.0395 34.02603 0.0001
C 34.39116 32.64188 -0.02927
C 1.15488 31.96023 -0.01404
C 1.19071 30.45687 0.01027
C 34.40964 29.73743 0.01831
C 34.42945 28.35436 -0.01037
C 28.32207 6.48261 0.01094
C 3.61657 31.95492 0.00662
C 27.13028 7.1427 0.02198
C 28.27954 9.29749 -0.00621
C 22.17566 21.29912 0.0106
C 22.18897 19.767 -0.01154
C 23.33823 19.09723 -0.01721
C 23.3662 17.68384 -0.02422
C 22.24001 17.0171 0.01277
C 22.1554 15.58136 0.00096
C 23.37831 14.88034 -0.01527
C 23.40442 13.47202 0.01087
C 22.17723 12.7856 0.00199
C 22.16868 11.39131 0.01511
C 23.32017 22.06338 -0.01594
C 23.3092 10.60863 -0.00478
C 22.20801 8.52668 -0.01185
C 22.13246 7.08017 0.01126
C 23.35469 6.34452 0.01852
C 23.35916 5.0134 -0.00381
C 22.10366 4.25722 0.03046
C 22.04992 2.85026 0.0296
C 23.35272 2.18704 0.03374
C 23.34236 0.82021 -0.02845
C 22.07103 0.02624 -0.03213
C 24.5825 32.62257 0.02239
C 23.45339 9.21476 -0.01662
C 25.79555 31.92785 0.01153
C 23.31326 23.46322 0.00742
C 22.02345 25.62456 0.00675
C 20.89601 14.88404 -0.01581
C 20.93086 13.48671 0.01452
C 19.68979 12.73816 0.04892
C 19.70575 11.30642 -0.00111
C 20.90343 10.63473 -0.03557
C 21.06224 9.29802 0.03754
C 19.69156 8.48688 0.01739
C 19.75149 7.10208 0.00755
C 20.93261 6.40594 -0.0054
C 20.87442 5.00424 0.00667
C 22.08756 24.16068 -0.00311
C 19.70885 4.2878 0.00143
C 20.85475 2.16254 0.00364
C 20.86478 0.7013 -0.00831
C 19.65232 34.0032 -0.02957
C 22.11885 32.70191 -0.04422
C 23.30266 31.97067 0.00654
C 23.35686 30.51852 -0.00703
C 22.14099 29.82823 -0.04076
C 22.05505 28.36569 -0.00652
C 23.28668 27.63941 0.0058
C 23.3152 26.26642 -0.00865
C 19.61406 2.85271 -0.017
C 25.80989 30.55738 0.02734
C 24.55507 29.79321 -0.0055
C 24.56217 28.35189 0.01515
C 27.07563 32.73473 -0.01052
C 28.27034 31.94182 -0.01679
C 28.29678 30.52697 0.00367
C 27.104 29.78923 0.04306
C 27.02448 28.35128 0.00996
C 28.30969 27.70212 0.00195
C 28.30872 26.31376 -0.00802
C 27.12749 25.55906 -0.00218
C 27.06319 24.08898 -0.01654
C 28.27551 23.34301 -0.00037
C 24.54527 0.03505 0.00684
C 28.26707 21.95609 -0.0032
C 26.96922 19.84742 -0.02815
C 28.15826 19.14902 -0.00942
C 28.23222 17.72715 0.00487
C 27.05169 16.94999 0.00826
C 27.00642 15.56604 -0.00294
C 28.25702 14.87869 0.00152
C 28.25262 13.50686 0.01257
C 26.98746 12.82917 0.02316
C 27.06164 11.35896 0.04185
C 28.2341 10.6416 0.00194
C 27.01715 21.31262 0.00622
C 25.79356 0.79957 -0.01154
C 25.83544 2.16913 -0.0264
C 24.63542 2.848 -0.00938
C 25.81342 27.61317 -0.00225
C 25.88457 26.25087 0.00071
C 24.53903 25.5806 -0.01107
C 24.5935 24.16286 -0.01586
C 25.8072 23.49874 -0.01971
C 25.7983 22.02938 -0.02118
C 24.57099 21.31582 0.00733
C 24.58944 19.86435 -0.00178
C 25.84166 19.10984 0.00768
C 25.80892 17.66329 -0.0276
C 24.63846 16.98111 0.03005
C 24.61277 15.55714 -0.04078
C 25.76094 14.87182 0.02117
C 25.79115 13.44077 0.02737
C 24.55799 12.69182 -0.00498
C 24.56995 11.35134 0.00135
C 25.85182 10.70563 0.03102
C 25.83427 9.24278 0.02555
C 24.64842 8.4655 0.01423
C 24.65504 7.15947 -0.00285
C 25.85476 6.47748 -0.009
C 25.85239 5.01071 -0.01199
C 24.62654 4.29758 -0.00229
C 27.06578 8.53671 0.02611
C 2.38264 32.65166 0.00748
