377
Graphene
C 34.33197 0.01057 0.01295
C 13.38015 19.28968 0.03542
C 12.16372 8.59644 0.02299
C 12.34019 7.24447 0.00244
C 13.55156 6.41184 -0.01717
C 13.50667 5.0409 0.05265
C 12.30466 4.2735 -0.01952
C 12.27471 2.83201 -0.02813
C 13.54406 2.19954 0.00374
C 13.60665 0.76443 0.00052
C 12.3237 34.07265 -0.03682
C 14.68298 32.62721 0.01965
C 15.94986 31.9568 0.02058
C 15.92374 30.43557 -0.01957
C 14.69929 29.76962 -0.0108
C 14.7867 28.32528 -0.00368
C 16.03041 27.58245 -0.02696
C 16.0588 26.12071 -0.00114
C 14.78639 25.51303 0.00228
C 14.67432 24.15124 0.00798
C 12.23922 19.86191 0.01416
C 12.2085 21.30923 0.01945
C 13.48313 21.95382 -0.01454
C 13.51501 23.36428 0.01241
C 9.80052 21.41386 -0.00428
C 9.70433 19.94184 0.03101
C 10.00195 8.5447 -0.01536
C 9.98572 7.17459 -0.02689
C 11.10339 6.40745 -0.01046
C 11.03933 4.98615 -0.00891
C 9.80637 4.34364 0.02819
C 9.85926 2.8714 0.00165
C 10.99713 2.09295 -0.02971
C 15.94362 23.26346 0.00422
C 11.06336 0.73391 0.02894
C 12.27807 32.68639 0.00444
C 13.49486 31.93113 -0.00925
C 13.54592 30.46878 0.01877
C 12.29636 29.75406 0.01363
C 12.30978 28.36487 -0.02162
C 13.57556 27.67579 0.00415
C 13.4669 26.27608 -0.0014
C 12.2598 25.53763 0.02162
C 12.20479 24.13908 0.0076
C 9.79761 0.01316 -0.01789
C 10.96311 22.14012 -0.02245
C 15.88544 21.90907 0.0351
C 14.7728 19.80111 0.02098
C 17.14966 21.21977 -0.01979
C 17.27859 19.7614 0.02691
C 18.38338 19.07384 -0.01581
C 18.36848 17.65121 0.01452
C 17.08533 16.82056 0.04892
C 17.38508 15.41652 -0.00111
C 18.59806 14.89598 -0.03557
C 18.67089 13.44394 0.03754
C 17.37949 12.89164 0.01739
C 17.11008 11.51883 0.00755
C 18.43057 10.9218 -0.0054
C 17.23576 8.11717 0.00667
C 17.35249 6.86233 0.00143
C 18.30225 5.21662 -0.017
C 17.20724 4.34178 0.00364
C 17.16055 2.88824 -0.00831
C 18.38767 2.23547 -0.02957
C 18.40466 0.75881 -0.04422
C 17.18069 34.0676 0.00654
C 18.44331 21.8929 0.02188
C 18.44811 23.2923 -0.00316
C 17.14553 24.00219 -0.0331
C 17.1961 25.40938 -0.0258
C 16.05393 19.09433 0.01848
C 16.03001 17.66361 -0.00619
C 16.22501 10.45739 -0.02162
C 16.15887 9.12377 0.00889
C 14.88127 8.49317 -0.00481
C 14.80586 7.12833 0.00979
C 15.94893 6.24656 0.01443
C 15.89887 4.90419 0.03505
C 14.70307 4.31337 -0.02815
C 14.68525 21.19775 -0.03113
C 14.73479 2.90121 -0.04147
C 15.94209 0.67076 0.00213
C 14.72925 34.04999 -0.00066
C 17.21434 32.60315 -0.00289
C 18.38001 31.81282 0.00028
C 18.39441 30.4503 -0.02213
C 17.16122 29.77468 0.03698
C 17.2202 28.41071 -0.00109
C 18.38899 27.67088 -0.00491
C 18.3609 26.21109 0.03338
C 16.00758 2.08417 -0.05302
C 11.01476 23.50295 0.00985
C 9.81066 24.18018 -0.01275
C 9.81171 25.64714 -0.01111
C 3.65973 5.03564 0.00988
C 2.39068 4.33163 0.0276
C 2.38671 2.87854 0.01305
C 3.59151 2.19969 -0.00077
C 3.59442 0.72557 0.03368
C 2.32873 0.09637 -0.02929
C 4.88607 32.69821 -0.00966
C 6.20098 31.97166 -0.03337
C 6.15544 30.57977 0.01227
C 4.87925 29.91113 0.00873
C 4.90932 28.51364 -0.00049
C 6.14335 27.79226 0.00848
C 6.07496 26.34313 -0.01303
C 4.91811 25.56365 -0.01378
C 4.86165 24.21748 0.02635
C 6.06365 23.40954 0.0127
C 6.18159 22.0439 0.01396
C 4.87639 21.36103 0.01849
C 4.7734 19.9374 -0.01142
C 3.70403 6.48654 -0.01343
C 2.51484 7.2114 0.01087
C 2.5315 8.67879 -0.05697
C 3.76057 9.38536 -0.00725
C 3.62684 30.71773 0.03267
C 2.40086 29.87865 0.02374
C 2.42446 28.48323 0.00402
C 3.68874 27.747 0.0073
C 3.69877 26.25573 0.0174
C 2.35941 25.59976 0.03828
C 2.38089 24.22059 0.01226
C 3.68479 23.56688 -0.00279
C 3.58946 22.13861 0.01996
C 6.05134 19.18711 -0.00562
C 2.40138 21.30646 -0.03996
C 3.70895 19.11313 -0.00074
C 3.79187 17.73856 -0.00518
C 2.48782 17.10451 0.0086
C 2.40472 15.65274 -0.00643
C 3.67296 15.01203 0.017
C 3.64351 13.61853 -0.03113
C 2.45896 12.8566 -0.02566
C 2.55225 11.43713 -0.00094
C 3.7987 10.76787 0.02322
C 2.50278 19.87552 0.01465
C 6.2171 17.8584 -0.00494
C 5.0641 16.97471 0.00054
C 4.85787 15.56763 0.03007
C 7.3403 21.35725 0.00438
C 7.26512 19.97489 0.01291
C 8.57748 19.39774 0.00093
C 8.79837 9.12992 0.00057
C 7.53365 8.60979 -0.01634
C 7.40622 7.22589 -0.00334
C 8.6466 6.5021 0.02339
C 8.59221 5.09479 0.01641
C 7.38791 4.39835 -0.00719
C 8.57493 22.07237 -0.00191
C 7.34209 2.97502 0.01364
C 8.50039 0.79791 -0.00033
C 7.27961 0.08089 0.03589
C 9.85891 32.68835 -0.02759
C 11.03973 31.98363 0.0402
C 11.07441 30.61134 0.00572
C 9.83613 29.86854 0.03592
C 9.92321 28.47281 0.00406
C 11.07243 27.69466 0.00943
C 11.03444 26.31355 0.02841
C 8.54254 2.19995 -0.01062
C 19.66363 32.57655 -0.00703
C 8.55105 23.50295 0.00373
C 7.27752 25.62077 -0.014
C 4.85465 13.03969 -0.00095
C 5.11341 11.58381 0.01572
C 6.23214 10.74538 -0.04848
C 6.19491 9.37315 -0.00892
C 4.98195 8.60238 -0.01362
C 4.94294 7.17774 -0.0008
C 6.14197 6.52959 0.0288
C 6.15331 5.01744 0.00393
C 4.84262 4.30838 0.00895
C 7.28757 24.22024 0.02147
C 4.84734 2.8483 0.00685
C 6.0733 0.75252 -0.00482
C 4.89851 0.06421 -0.01384
C 7.37639 32.73567 0.03693
C 8.63114 32.04066 0.01745
C 8.62492 30.63185 0.00488
C 7.39117 29.95546 -0.01004
C 7.39485 28.507 -0.02896
C 8.59168 27.73566 -0.00131
C 8.53843 26.33985 -0.01118
C 6.12328 2.20246 0.02888
C 3.68016 32.09305 -0.01509
C 20.83287 31.93508 -0.04076
C 19.65671 29.78552 0.0058
C 30.62325 2.22036 0.00716
C 30.63058 0.78452 0.00307
C 29.41662 0.088 0.00346
C 31.87384 32.63143 0.01713
C 33.0859 32.0056 -0.01694
C 33.05566 30.58617 0.01428
C 31.86773 29.88587 -0.02142
C 31.93968 28.44671 0.0544
C 33.20313 27.69061 0.00026
C 33.15262 26.32812 0.00682
C 31.9397 25.59747 -0.01779
C 31.87186 24.13057 0.03794
C 33.13376 23.43331 0.01927
C 33.15282 22.00315 0.01574
C 31.89635 21.35583 -0.02383
C 31.87334 19.87987 -0.01429
C 33.15427 19.19296 -0.0136
C 33.17301 17.76991 0.00594
C 31.90649 17.05048 -0.02474
C 29.40711 2.8963 0.02108
C 29.36779 4.44929 0.0103
C 30.75428 5.0197 0.07705
C 30.76422 6.4105 0.01908
C 30.70274 27.74869 0.02326
C 30.70885 26.2957 0.00261
C 29.44587 25.52833 0.03265
C 29.44518 24.14547 -0.02049
C 30.70751 23.46825 -0.01854
C 30.75395 22.11445 -0.01415
C 29.49945 21.36179 -0.03039
C 29.48527 19.93067 0.01836
C 30.69469 19.21834 0.03531
C 32.03246 15.6766 0.00369
C 30.66739 17.80707 -0.00669
C 29.61202 15.70516 0.01705
C 30.77614 14.9207 -0.0405
C 30.73101 13.48277 -0.01303
C 29.5499 12.81985 -0.01461
C 29.39291 11.38298 -0.02155
C 30.64043 10.64149 -0.00944
C 30.69414 9.11663 -0.03735
C 29.48698 8.28711 -0.00971
C 29.3718 6.92636 0.01518
C 29.47911 17.07919 0.0101
C 29.4695 28.39556 0.00924
C 33.20483 14.89866 0.00455
C 31.96208 12.72615 -0.01839
C 34.37685 19.95711 0.01951
C 1.18233 19.19117 -0.01678
C 1.23387 17.81201 0.01223
C 34.41183 17.0762 0.00648
C 34.41068 15.63885 0.02114
C 1.15424 14.94618 -0.02957
C 1.18266 13.51249 0.00343
C 34.37173 12.8669 -0.02656
C 34.4201 11.41929 -0.02442
C 1.20195 10.66544 -0.00027
C 1.1565 9.26992 -0.00583
C 34.38524 8.54224 -0.02302
C 34.38488 7.08394 -0.02849
C 1.25148 6.46491 0.02931
C 1.11398 5.03237 0.00628
C 34.39882 4.30283 -0.0345
C 34.37282 2.9088 -0.00931
C 1.13813 2.18939 -0.00939
C 1.09298 0.79804 -0.00468
C 34.42528 21.38368 -0.02213
C 1.23592 22.01814 0.02712
C 1.19417 23.50269 0.00723
C 34.39918 24.16869 0.03076
C 31.88396 11.33548 0.00137
C 33.20752 10.66348 0.00199
C 33.21753 9.24379 0.04381
C 31.96168 8.6386 0.02806
C 31.97784 7.18401 0.01504
C 33.14947 6.37901 -0.00069
C 33.17176 4.93775 0.04926
C 31.94158 4.30265 -0.03838
C 31.86108 2.85556 0.00349
C 33.15626 13.48628 -0.00644
C 33.15349 2.11809 -0.00323
C 31.84904 33.98715 0.0001
C 34.33262 32.71154 -0.02927
C 1.10704 32.01091 -0.01404
C 1.09463 30.61265 0.01027
C 34.292 29.89209 0.01831
C 34.404 28.44061 -0.01037
C 1.2038 27.76185 -0.00439
C 1.17015 26.35422 -0.00598
C 34.39403 25.60188 -0.05239
C 33.08184 0.64962 -0.00841
C 29.45351 29.77032 0.0014
C 30.63962 30.56155 0.01324
C 30.62455 32.02259 0.04266
C 22.0141 28.36176 -0.02845
C 23.26514 27.6421 -0.03213
C 23.28691 26.18685 0.02239
C 22.05643 25.50436 0.01153
C 22.07284 24.09678 0.02734
C 23.26235 23.34268 -0.0055
C 23.26707 21.92597 0.01515
C 22.06164 21.20404 -0.00225
C 22.10831 19.7496 0.00071
C 23.40542 19.13737 -0.01107
C 23.33928 17.66339 -0.01586
C 22.11761 16.93452 -0.01971
C 22.24236 15.55104 -0.02118
C 23.51778 14.6997 0.00733
C 23.63605 13.39011 -0.00178
C 22.82912 2.15623 0.00768
C 23.16163 0.78371 -0.0276
C 21.98463 34.00757 0.03005
C 24.50514 32.65056 -0.04078
C 22.06079 29.73103 0.03374
C 23.20577 30.54116 0.0296
C 23.26694 31.95022 0.03046
C 22.05465 32.66088 -0.00381
C 19.67409 28.3491 -0.00865
C 20.8174 27.61484 0.00675
C 20.83284 26.20058 -0.00311
C 19.52987 25.45917 0.00742
C 19.6189 24.04918 -0.01594
C 20.8507 23.32262 0.0106
C 20.874 21.8906 -0.01154
C 19.70794 21.1373 -0.01721
C 19.69697 19.70772 -0.02422
C 25.67211 31.88523 0.02117
C 20.88508 19.04888 0.01277
C 19.64663 16.93132 -0.01527
C 19.83605 15.54195 0.01087
C 21.1191 14.76686 0.00199
C 20.9195 13.29593 0.01511
C 19.87461 12.64638 -0.00478
C 19.79094 2.75656 -0.01662
C 20.94628 2.24995 -0.01185
C 20.81908 0.72144 0.01126
C 19.6265 0.02901 0.01852
C 20.89862 17.63134 0.00096
C 25.68454 30.5214 0.02737
C 24.44195 29.79553 -0.00498
C 24.44139 28.36266 0.00135
C 27.00456 25.53896 -0.00942
C 27.04403 24.09558 0.00487
C 28.28162 23.43791 0.00826
C 28.27014 22.02148 -0.00294
C 27.01645 21.30691 0.00152
C 27.05984 19.88494 0.01257
C 28.2515 19.24059 0.02316
C 28.2391 17.79919 0.04185
C 27.0957 17.03657 0.00194
C 28.20449 26.31744 -0.02815
C 27.15262 15.62285 -0.00621
C 28.26534 13.51204 0.02198
C 27.06077 12.69624 0.01094
C 28.09758 10.88023 0.00235
C 28.49331 5.51259 0.01495
C 26.8803 2.86296 0.01259
C 28.13723 2.1793 0.01799
C 28.16183 0.71402 0.01699
C 26.90415 34.00027 -0.00416
C 29.4544 32.72838 0.01177
C 28.39749 14.92556 0.02611
C 20.87179 30.47883 -0.00652
C 28.24507 27.71488 0.00622
C 26.96863 29.78199 -0.00037
C 25.72296 27.63092 0.03102
C 25.82628 26.25122 0.02555
C 24.52956 25.53842 0.01423
C 24.5112 24.08163 -0.00285
C 25.79084 23.33151 -0.009
C 25.76844 21.93683 -0.01199
C 24.56077 21.24364 -0.00229
C 24.6235 19.8708 -0.00938
C 25.89199 19.12788 -0.0264
C 26.92577 28.36756 -0.0032
C 25.83272 17.71283 -0.01154
C 24.72565 15.59849 -0.01052
C 25.9151 14.85588 -0.01679
C 25.89264 13.31412 0.00367
C 25.71688 2.14987 0.04306
C 25.73905 0.69098 0.00996
C 24.47555 0.01184 0.00195
C 26.85669 32.56079 -0.00802
C 28.17351 31.94745 -0.00218
C 28.20111 30.51086 -0.01654
C 24.64823 16.95493 0.00684
C 2.34985 32.71397 0.00643
