302
Graphene
C 34.36849 0.08284 0.01295
C 14.45106 4.55196 0.04892
C 14.81994 3.08284 -0.00111
C 15.97312 2.32409 -0.03557
C 16.10889 0.88331 0.03754
C 14.75822 0.17099 0.01739
C 17.23321 32.72966 0.00755
C 15.39989 17.93401 0.01452
C 18.39873 31.96784 -0.0054
C 17.31906 17.99063 0.00143
C 17.8734 19.44215 -0.017
C 17.44092 4.32489 0.00364
C 17.24958 3.05524 -0.00831
C 18.51784 2.31048 -0.02957
C 18.4803 0.7514 -0.04422
C 18.38241 30.53609 0.00667
C 15.85961 32.18793 -0.01581
C 14.85876 32.76358 0.02691
C 12.34426 0.16957 -0.01979
C 11.33222 6.40105 -0.04147
C 11.08873 4.96292 -0.05302
C 9.86914 4.26017 0.00213
C 9.83413 2.93359 -0.00066
C 11.09437 2.19296 -0.00289
C 11.0196 0.63499 0.00028
C 9.7052 0.02861 -0.02213
C 12.65317 17.37249 0.03698
C 12.01099 16.11002 -0.00109
C 12.84505 6.44007 -0.00491
C 13.42514 5.30603 0.03338
C 12.26371 4.3429 -0.0258
C 12.28993 2.95223 -0.0331
C 13.5608 2.31429 -0.00316
C 13.55025 0.94497 0.02188
C 17.27446 0.07798 0.00654
C 19.6154 32.6488 -0.00703
C 20.94174 31.96112 -0.04076
C 20.86875 30.56514 -0.00652
C 23.06788 19.18319 0.01126
C 23.32323 17.74824 0.01852
C 22.12685 16.98601 -0.00381
C 23.19536 6.27583 0.03046
C 23.02912 4.99081 0.0296
C 21.78896 4.20398 0.03374
C 22.08745 2.71317 -0.02845
C 23.21083 2.06984 -0.03213
C 23.33463 0.69752 0.02239
C 22.19337 33.99175 0.01153
C 24.57902 32.60195 0.02734
C 25.82935 31.9959 -0.0055
C 25.7912 30.57967 0.01515
C 24.62788 29.73621 -0.00225
C 24.56135 28.40418 0.00071
C 21.79297 19.73146 -0.01185
C 9.97382 7.1257 -0.02815
C 23.2804 26.39862 -0.01662
C 22.09741 28.42036 0.01511
C 19.57984 29.84741 0.0058
C 19.93286 28.42424 -0.00865
C 20.86033 27.80833 0.00675
C 19.16537 19.47734 -0.00311
C 20.5253 19.02816 0.00742
C 21.06069 17.7948 -0.01594
C 20.50192 4.22473 0.0106
C 19.85139 2.85386 -0.01154
C 20.93018 2.00462 -0.01721
C 20.90985 0.56033 -0.02422
C 19.66653 0.03608 0.01277
C 22.19653 32.53159 0.00096
C 23.43312 31.85027 -0.01527
C 23.37698 30.41739 0.01087
C 22.08266 29.85043 0.00199
C 23.33532 27.80048 -0.00478
C 9.85247 8.49626 0.03505
C 11.01996 9.39231 0.01443
C 10.96536 10.57166 0.00979
C 2.43206 7.15084 -0.02245
C 3.6587 6.44981 -0.00428
C 3.65307 5.04426 0.03101
C 2.36262 4.29184 -0.01536
C 2.32661 2.91604 -0.02689
C 3.60228 2.25043 -0.01046
C 3.50489 0.82834 -0.00891
C 2.31133 0.09698 0.02819
C 4.70679 32.7629 0.00165
C 6.04037 32.10614 -0.02971
C 4.66199 20.10462 0.02894
C 6.25738 17.54954 -0.01789
C 4.90818 17.10622 0.00444
C 4.95145 15.61881 -0.00925
C 6.24855 14.92179 0.01877
C 2.41168 8.56671 0.00985
C 6.09068 13.47303 0.01363
C 3.66834 9.24467 -0.01275
C 2.41023 11.36182 0.02841
C 3.60083 30.60725 -0.01634
C 2.4973 29.80239 -0.00334
C 2.46808 28.46833 0.02339
C 2.3668 25.40448 0.01641
C 2.34511 24.25224 -0.00719
C 3.81559 21.56901 0.01364
C 2.45569 21.19606 -0.01062
C 2.3158 19.81838 -0.00033
C 3.63649 19.22165 0.03589
C 3.741 17.83466 -0.02759
C 2.41207 17.10417 0.0402
C 2.40622 15.63123 0.00572
C 3.6286 14.92796 0.03592
C 3.62952 13.49668 0.00406
C 2.40496 12.80888 0.00943
C 3.78247 10.60098 -0.01111
C 25.78412 27.68328 -0.01107
C 4.83979 12.80507 -0.02162
C 6.18884 10.66103 -0.0014
C 7.44568 8.54865 -0.0108
C 7.35732 7.14746 -0.00368
C 8.61916 6.39471 -0.02696
C 8.65781 4.97262 -0.00114
C 7.39482 4.30125 0.00228
C 7.37288 2.8613 0.00798
C 8.62198 2.24084 0.00422
C 8.53018 0.6977 0.0351
C 7.3179 0.01489 -0.03113
C 10.79532 16.5699 0.02098
C 9.93367 15.50205 0.01848
C 11.31548 14.86697 -0.00619
C 11.09006 13.60386 -0.02162
C 9.84906 12.8286 0.00889
C 9.96166 11.38813 -0.00481
C 8.63115 9.20894 -0.01957
C 4.97034 11.36146 0.00415
C 8.64699 10.63893 0.02058
C 7.37257 12.74405 -0.03682
C 6.1663 9.23866 0.02162
C 4.88247 8.54522 0.0076
C 4.8961 7.12533 0.01241
C 6.15206 6.41693 -0.01454
C 6.1546 5.03849 0.01945
C 4.87851 4.38544 0.01416
C 4.79002 2.96174 0.03542
C 6.07437 2.2381 0.02299
C 6.06518 0.83482 0.00244
C 4.73381 0.13604 -0.01717
C 7.06096 32.72761 0.05265
C 7.29394 17.05331 -0.01952
C 7.46001 15.69457 -0.02813
C 8.70465 15.02539 0.00374
C 8.59279 13.49278 0.00052
C 7.3917 11.38918 0.01965
C 25.79671 26.27717 -0.01586
C 24.45903 25.48303 -0.01971
C 24.56109 24.125 -0.02118
C 33.18089 22.00272 0.01574
C 31.97829 21.36938 -0.02383
C 31.87403 19.97445 -0.01429
C 33.02551 19.25301 -0.0136
C 33.06574 17.84593 0.00594
C 31.89633 17.12462 -0.02474
C 31.84601 15.64881 0.00369
C 33.09864 14.96897 0.00455
C 33.06929 13.51665 -0.00644
C 31.82692 12.85992 -0.01839
C 31.88569 11.38388 0.00137
C 33.14564 10.71602 0.00199
C 33.11377 9.26417 0.04381
C 31.90238 8.52874 0.02806
C 31.89062 7.12893 0.01504
C 33.17098 23.43657 0.01927
C 33.16781 6.39517 -0.00069
C 31.93579 24.20558 0.03794
C 33.18527 26.33478 0.00682
C 29.44835 8.52159 -0.00971
C 29.42984 7.09854 0.01518
C 30.62972 6.43297 0.01908
C 30.67363 5.00207 0.07705
C 29.40547 4.24999 0.0103
C 29.45943 2.87701 0.02108
C 30.66003 2.16058 0.00716
C 30.72609 0.72099 0.00307
C 29.48604 0.00471 0.00346
C 31.94204 32.69636 0.01713
C 33.1774 31.99402 -0.01694
C 33.22276 30.57578 0.01428
C 31.92058 29.83727 -0.02142
C 31.97526 28.43659 0.0544
C 33.23084 27.7629 0.00026
C 31.96832 25.58716 -0.01779
C 30.69218 9.26741 -0.03735
C 33.17858 5.04656 0.04926
C 31.8926 2.94355 0.00349
C 34.32263 15.62968 0.02114
C 1.15765 14.96757 -0.02957
C 1.18511 13.55539 0.00343
C 34.317 12.81694 -0.02656
C 34.34355 11.41486 -0.02442
C 1.12078 10.7439 -0.00027
C 1.17226 9.24263 -0.00583
C 34.37441 8.54482 -0.02302
C 34.40942 7.10569 -0.02849
C 1.15252 6.41051 0.02931
C 1.17088 5.02458 0.00628
C 34.41588 4.29273 -0.0345
C 34.38337 2.93062 -0.00931
C 1.16151 2.17787 -0.00939
C 1.15678 0.74459 -0.00468
C 34.28014 17.06247 0.00648
C 31.91797 4.33868 -0.03838
C 1.05505 17.76675 0.01223
C 34.29336 19.83778 0.01951
C 33.12044 2.19472 -0.00323
C 33.12218 0.77178 -0.00841
C 31.94188 0.10282 0.0001
C 34.34013 32.73435 -0.02927
C 1.16343 32.04557 -0.01404
C 1.17204 30.58964 0.01027
C 0.00761 29.88686 0.01831
C 0.06065 28.5127 -0.01037
C 1.28142 27.67945 -0.00439
C 1.2972 26.32798 -0.00598
C 0.03665 25.61088 -0.05239
C 0.05386 24.13017 0.03076
C 1.22251 23.41508 0.00723
C 1.30402 21.97695 0.02712
C 0.04006 21.23523 -0.02213
C 1.10852 19.14466 -0.01678
C 3.53843 31.97593 0.00057
C 30.70971 10.64179 -0.00944
C 29.35481 12.80978 -0.01461
C 25.86818 0.80668 -0.01154
C 24.61125 34.0758 0.00684
C 27.02756 32.72803 -0.01052
C 28.27239 31.98837 -0.01679
C 28.28856 30.58255 0.00367
C 27.04669 29.87011 0.04306
C 26.98763 28.42087 0.00996
C 28.21243 27.77343 0.00195
C 28.22002 26.30061 -0.00802
C 27.03421 25.54775 -0.00218
C 26.99733 24.13556 -0.01654
C 28.24648 23.47561 -0.00037
C 28.23222 22.0548 -0.0032
C 26.9968 21.28063 0.00622
C 26.97878 19.78187 -0.02815
C 25.73705 2.2051 -0.0264
C 28.13439 19.11466 -0.00942
C 24.50475 2.80499 -0.00938
C 25.65798 4.95317 -0.01199
C 25.79006 23.40256 0.00733
C 25.79168 21.97881 -0.00178
C 24.47233 21.31945 0.00768
C 24.50173 19.97957 -0.0276
C 25.75673 19.16215 0.03005
C 25.73145 17.72905 -0.04078
C 24.53973 17.04943 0.02117
C 24.524 15.67501 0.02737
C 25.57529 14.72418 -0.00498
C 25.65373 13.33979 0.00135
C 25.84295 10.76329 0.03102
C 25.59966 9.38716 0.02555
C 24.47666 8.49409 0.01423
C 24.28204 7.12785 -0.00285
C 25.69282 6.40567 -0.009
C 24.39407 4.23931 -0.00229
C 29.48846 11.29379 -0.02155
C 28.11981 17.6941 0.00487
C 26.82467 15.59064 -0.00294
C 29.44426 28.48912 0.00924
C 30.70358 27.71363 0.02326
C 30.71177 26.30702 0.00261
C 29.46729 25.56746 0.03265
C 29.50413 24.15492 -0.02049
C 30.74518 23.48023 -0.01854
C 30.71154 22.0814 -0.01415
C 29.47137 21.37335 -0.03039
C 29.38989 19.93412 0.01836
C 30.62434 19.2619 0.03531
C 30.59964 17.83281 -0.00669
C 29.33655 17.08155 0.0101
C 29.37234 15.66685 0.01705
C 30.64445 14.93393 -0.0405
C 30.61603 13.56096 -0.01303
C 29.49357 29.87199 0.0014
C 26.92796 17.01561 0.00826
C 30.72935 30.61679 0.01324
C 29.51351 32.66998 0.01177
C 28.17446 14.97204 0.00152
C 28.14352 13.51863 0.01257
C 26.89699 12.73044 0.02316
C 27.07607 11.34027 0.04185
C 28.25401 10.64932 0.00194
C 28.20512 9.23523 -0.00621
C 26.9199 8.60367 0.02611
C 26.91096 7.13707 0.02198
C 28.17756 6.47153 0.01094
C 28.17635 5.07079 0.00235
C 26.9139 4.29977 0.01495
C 27.01283 2.86045 0.01259
C 28.22924 2.15488 0.01799
C 28.24821 0.72947 0.01699
C 27.01653 0.06115 -0.00416
C 30.78997 31.94545 0.04266
C 2.35618 32.76756 0.00093
