321
Graphene
C 34.38649 34.04812 0.01295
C 13.4427 30.33372 -0.02213
C 12.19322 30.04995 0.03698
C 12.28634 11.41625 -0.00109
C 13.51527 10.83814 -0.00491
C 13.50347 9.22563 0.03338
C 12.33947 8.52682 -0.0258
C 12.36405 7.10695 -0.0331
C 13.5784 31.82996 0.00028
C 13.51605 6.35585 -0.00316
C 12.21242 4.20594 -0.01979
C 12.26619 2.74891 0.02691
C 13.54045 2.11611 -0.01581
C 13.51769 0.67958 0.01452
C 12.30712 34.00831 0.04892
C 14.77572 32.55449 -0.00111
C 15.94847 31.93176 -0.03557
C 13.42852 4.86594 0.02188
C 15.9491 30.3105 0.03754
C 12.28307 32.63543 -0.00289
C 11.198 0.66589 0.00213
C 9.81528 32.68058 0.00798
C 11.0124 32.06105 0.00422
C 11.00016 30.5945 0.0351
C 9.83644 29.91287 -0.03113
C 9.76224 28.62232 0.02098
C 9.87199 12.82762 0.01848
C 9.84139 11.4396 -0.00619
C 9.84552 0.04076 -0.00066
C 11.11846 10.68989 -0.02162
C 9.87844 8.65836 -0.00481
C 9.83551 7.19584 0.00979
C 11.07931 6.41147 0.01443
C 11.05227 5.00732 0.03505
C 9.88425 4.21438 -0.02815
C 9.89907 2.85571 -0.04147
C 11.12687 2.04994 -0.05302
C 11.11317 9.25153 0.00889
C 7.24554 34.07592 0.00228
C 14.71437 29.65281 0.01739
C 16.08832 10.87237 -0.0054
C 18.30479 5.01386 -0.02422
C 17.17374 4.26452 0.01277
C 17.22606 2.84921 0.00096
C 18.44003 2.21039 -0.01527
C 18.4219 0.74779 0.01087
C 17.21713 34.07164 0.00199
C 19.68283 32.68567 0.01511
C 18.4307 6.37908 -0.01721
C 20.826 31.96671 -0.00478
C 19.61547 29.77342 -0.01185
C 19.8367 28.42121 0.01126
C 20.94672 27.71546 0.01852
C 20.79015 15.0163 -0.00381
C 20.85903 13.6174 0.03046
C 19.7563 12.79668 0.0296
C 19.75926 11.33037 0.03374
C 20.79293 30.52899 -0.01662
C 14.77028 11.28924 0.00755
C 17.18853 7.13316 -0.01154
C 18.39299 9.26667 -0.01594
C 15.93607 9.2879 0.00667
C 14.74134 8.46112 0.00143
C 14.70785 6.99382 -0.017
C 15.95499 6.37694 0.00364
C 15.90792 4.88035 -0.00831
C 14.71883 4.18532 -0.02957
C 14.81422 2.77404 -0.04422
C 17.17782 8.55828 0.0106
C 16.04918 2.10752 0.00654
C 14.81004 34.06647 -0.04076
C 17.19234 32.65435 -0.00652
C 18.47357 31.99047 0.0058
C 18.43599 30.52736 -0.00865
C 17.22065 29.98144 0.00675
C 17.34117 11.36647 -0.00311
C 18.55464 10.64685 0.00742
C 16.01788 0.72683 -0.00703
C 8.60546 0.70934 -0.00114
C 8.65234 2.11724 -0.02696
C 7.39833 2.85608 -0.00368
C 3.59632 9.18775 -0.00334
C 2.37639 8.51158 0.02339
C 2.39374 7.13654 0.01641
C 3.59654 6.42675 -0.00719
C 3.6622 4.98178 0.01364
C 2.42822 4.22785 -0.01062
C 2.46803 2.80579 -0.00033
C 3.60833 10.63123 -0.01634
C 3.73994 2.13039 0.03589
C 2.4271 34.03316 0.0402
C 4.84852 32.57518 0.00572
C 6.10508 31.87152 0.03592
C 6.18368 30.45753 0.00406
C 4.89753 29.81403 0.00943
C 4.97128 28.42706 0.02841
C 6.14384 27.70957 -0.01111
C 3.67359 0.6247 -0.02759
C 6.1843 26.31293 -0.01275
C 2.44444 11.37992 0.00057
C 3.7697 13.51567 0.01291
C 3.71381 30.50273 0.00685
C 2.49305 29.7964 0.02888
C 2.45869 28.43131 -0.00482
C 3.69842 27.74152 -0.01384
C 3.78009 26.29879 0.03693
C 2.52239 25.60925 0.01745
C 2.50004 24.10725 0.00488
C 2.50862 12.83141 0.00093
C 3.67419 23.36736 -0.01004
C 2.47091 21.32426 -0.00131
C 2.38185 19.93657 -0.01118
C 3.64882 19.24813 -0.014
C 3.61757 17.77259 0.02147
C 2.4017 17.01633 0.00373
C 2.48075 15.62849 -0.00191
C 3.78275 14.88334 0.00438
C 3.70061 21.9987 -0.02896
C 4.93701 25.54184 0.00985
C 4.93389 24.09336 -0.02245
C 5.96624 23.12388 -0.00428
C 8.52925 31.9632 0.01945
C 8.55534 30.61671 0.01416
C 7.39963 29.77007 0.03542
C 7.47476 28.32256 0.02299
C 8.67282 27.81706 0.00244
C 7.51386 15.62909 -0.01717
C 8.62447 13.43358 0.05265
C 7.30867 32.65051 -0.01454
C 7.41645 12.83992 -0.01952
C 8.58893 10.75286 0.00374
C 8.61502 9.30462 0.00052
C 7.34429 8.46356 -0.03682
C 7.36509 7.13999 0.01965
C 8.63559 6.48271 0.02058
C 8.64797 5.01606 -0.01957
C 7.4288 4.2902 -0.0108
C 7.30397 11.46992 -0.02813
C 4.9149 34.06779 0.01241
C 6.13084 0.71616 0.0076
C 6.15779 2.137 0.02162
C 4.85868 21.33478 0.03101
C 4.87874 19.86502 -0.01536
C 5.99953 17.96628 -0.02689
C 4.96495 17.14176 -0.01046
C 4.97631 15.70569 -0.00891
C 6.1782 14.92603 0.02819
C 6.13674 13.42919 0.00165
C 5.0086 12.73 -0.02971
C 4.86096 11.22382 0.02894
C 6.14062 10.59963 -0.01789
C 6.14747 9.21508 0.00444
C 4.8331 8.52026 -0.00925
C 4.85058 7.07266 0.01877
C 6.12592 6.35322 0.01363
C 6.10802 5.01085 -0.02162
C 4.89057 4.25171 0.00415
C 4.96421 2.805 -0.0014
C 21.0112 10.69961 -0.02845
C 3.63953 31.91408 0.00895
C 20.9473 9.26659 -0.03213
C 19.69203 7.01699 0.01153
C 33.18926 27.72902 -0.01779
C 33.23272 26.30118 0.03794
C 31.92794 25.65915 0.01927
C 31.94108 24.22854 0.01574
C 33.19197 23.49526 -0.02383
C 33.19348 22.06201 -0.01429
C 31.89967 21.38148 -0.0136
C 31.9677 28.42884 0.00682
C 32.05247 20.10464 0.00594
C 33.08753 17.71355 0.00369
C 33.25648 14.93136 0.00455
C 33.12799 13.59326 -0.00644
C 32.05752 12.79874 -0.01839
C 31.94163 11.41161 0.00137
C 33.21078 10.69425 0.00199
C 33.14753 9.31868 0.04381
C 32.9628 19.08433 -0.02474
C 31.96168 8.59084 0.02806
C 31.97296 29.87141 0.00026
C 33.20388 31.99609 -0.02142
C 29.4038 24.20731 -0.01461
C 30.68132 23.65775 -0.02155
C 30.81007 22.28757 -0.00944
C 29.48405 11.15521 -0.03735
C 30.72666 10.72326 -0.00971
C 30.68485 9.30267 0.01518
C 29.36773 8.55333 0.01908
C 33.22441 30.52991 0.0544
C 29.45955 7.09335 0.07705
C 30.68914 5.01981 0.02108
C 29.45629 4.30595 0.00716
C 29.49358 2.84035 0.00307
C 30.71911 2.0987 0.00346
C 30.70354 0.66727 0.01713
C 29.53744 34.00266 -0.01694
C 31.95451 32.65528 0.01428
C 30.6821 6.42301 0.0103
C 29.43735 25.6104 -0.01303
C 31.91947 7.12581 0.01504
C 33.13814 4.91388 0.04926
C 34.3183 17.15283 0.00648
C 34.42353 15.7069 0.02114
C 1.31169 14.89995 -0.02957
C 1.21769 13.5498 0.00343
C 0.03406 12.81932 -0.02656
C 34.42325 11.40735 -0.02442
C 1.26524 10.66911 -0.00027
C 1.14161 17.79442 0.01223
C 1.18891 9.24525 -0.00583
C 34.37601 7.1457 -0.02849
C 1.16646 6.4504 0.02931
C 1.19971 4.98046 0.00628
C 34.37909 4.18692 -0.0345
C 0.00254 2.86207 -0.00931
C 1.24324 2.1215 -0.00939
C 1.18479 0.65873 -0.00468
C 34.39041 8.54839 -0.02302
C 33.15126 6.3954 -0.00069
C 1.18941 19.22767 -0.01678
C 34.3665 21.36412 -0.02213
C 31.88655 4.26077 -0.03838
C 31.91684 2.82533 0.00349
C 33.17074 2.14471 -0.00323
C 33.17687 0.68057 -0.00841
C 31.9513 34.06807 0.0001
C 0.02928 32.70597 -0.02927
C 1.21753 31.94741 -0.01404
C 34.31247 19.86484 0.01951
C 1.21453 30.53233 0.01027
C 0.01278 28.47245 -0.01037
C 1.19898 27.63037 -0.00439
C 1.24147 26.27018 -0.00598
C 0.02457 25.59413 -0.05239
C 34.4017 24.20395 0.03076
C 1.23003 23.47114 0.00723
C 1.20957 22.07442 0.02712
C 34.4234 29.77738 0.01831
C 30.71007 26.36947 -0.0405
C 30.69695 27.70791 0.01705
C 29.49109 28.38594 0.0101
C 23.39727 9.35652 0.02555
C 22.20225 8.59367 0.01423
C 22.12197 7.07322 -0.00285
C 23.30216 6.35151 -0.009
C 23.36295 4.92407 -0.01199
C 22.05549 4.18449 -0.00229
C 22.1794 2.76575 -0.00938
C 23.36242 10.77026 0.03102
C 23.39169 2.04061 -0.0264
C 22.04152 34.02306 0.00684
C 24.61207 32.61786 -0.01052
C 25.7683 31.85009 -0.01679
C 25.79628 30.46555 0.00367
C 24.51254 29.7954 0.04306
C 24.50652 28.44228 0.00996
C 25.79462 27.77267 0.00195
C 23.31996 0.62785 -0.01154
C 25.73832 26.29404 -0.00802
C 22.19075 11.52903 0.00135
C 23.28726 22.11038 0.02737
C 20.91575 6.40272 0.02734
C 20.89143 5.0024 -0.0055
C 19.63561 4.24946 0.01515
C 19.74707 2.81596 -0.00225
C 20.9125 2.16602 0.00071
C 20.8757 0.73521 -0.01107
C 19.67421 0.07543 -0.01586
C 22.0768 12.91143 -0.00498
C 22.04512 32.56308 -0.01971
C 23.26645 30.57628 0.00733
C 22.08676 29.79903 -0.00178
C 22.11882 28.32795 0.00768
C 23.30429 27.64268 -0.0276
C 23.26763 26.19488 0.03005
C 22.16723 25.45591 -0.04078
C 23.30337 23.49304 0.02117
C 23.33375 31.97217 -0.02118
C 24.57248 25.5052 -0.00218
C 24.50953 24.14866 -0.01654
C 25.7255 23.54082 -0.00037
C 28.26407 23.54907 -0.00416
C 28.24477 10.57732 0.01177
C 28.13364 9.23691 0.04266
C 27.07542 8.48506 0.01324
C 26.95493 6.98012 0.0014
C 28.12425 6.29602 0.00924
C 28.24011 4.95546 0.02326
C 26.96561 24.04714 0.01699
C 27.02972 4.16445 0.00261
C 28.31889 2.04357 -0.02049
C 28.3213 0.62242 -0.01854
C 27.12764 33.97567 -0.01415
C 29.50654 32.60228 -0.03039
C 30.75294 31.898 0.01836
C 30.72391 30.51238 0.03531
C 29.45827 29.80216 -0.00669
C 27.10384 2.77722 0.03265
C 26.94824 25.54117 0.01799
C 28.27775 26.24631 0.01259
C 28.31679 27.65422 0.01495
C 24.67692 11.17352 -0.0032
C 25.81282 10.52547 0.00622
C 25.86196 9.17434 -0.02815
C 24.58202 8.58408 -0.00942
C 24.59086 7.07206 0.00487
C 25.74226 6.30911 0.00826
C 25.78508 4.80657 -0.00294
C 24.56873 4.10262 0.00152
C 24.60691 2.68676 0.01257
C 25.8806 2.03188 0.02316
C 25.84732 0.60631 0.04185
C 24.60054 34.02499 0.00194
C 27.0454 32.59212 -0.00621
C 28.3095 31.87814 0.02611
C 28.24173 30.44916 0.02198
C 26.98347 29.81357 0.01094
C 26.99612 28.40523 0.00235
C 19.67198 8.55165 0.02239
C 2.44863 32.62634 0.00393
