298
Graphene
C 34.38096 0.08003 0.01295
C 10.88197 13.66929 0.03754
C 9.77547 12.83132 0.01739
C 9.81374 11.40071 0.00755
C 11.06198 10.79404 -0.0054
C 11.12181 9.28785 0.00667
C 9.86374 8.57081 0.00143
C 9.87691 15.39406 -0.03557
C 9.84047 7.19872 -0.017
C 11.11905 4.94662 -0.00831
C 9.87054 4.25722 -0.02957
C 9.90297 2.81654 -0.04422
C 11.11564 2.14926 0.00654
C 11.14061 0.72723 -0.00703
C 9.87643 34.02443 -0.04076
C 11.09291 6.38585 0.00364
C 9.74947 16.88976 -0.00111
C 9.91792 19.56828 0.04892
C 10.00869 32.67044 0.01452
C 8.56045 14.98222 -0.00066
C 8.50318 13.54358 -0.00289
C 7.27711 12.77964 0.00028
C 7.3314 11.41653 -0.02213
C 8.61683 10.61901 0.03698
C 8.63117 9.22751 -0.00109
C 7.33068 8.58477 -0.00491
C 7.45533 7.16511 0.03338
C 8.62288 6.43153 -0.0258
C 8.64337 5.05806 -0.0331
C 7.4679 4.3032 -0.00316
C 7.42453 2.86881 0.02188
C 8.65019 2.21711 -0.01979
C 8.57114 0.63715 0.02691
C 7.38725 34.02922 -0.01581
C 12.15263 13.02434 -0.00652
C 7.25251 15.61647 0.00213
C 12.35886 11.55085 0.0058
C 13.51229 9.37106 0.00675
C 16.0925 0.55782 0.03046
C 14.86453 33.9914 0.0296
C 18.23374 10.65478 0.03374
C 18.36729 9.21199 -0.02845
C 17.15184 8.47712 -0.03213
C 17.15033 6.99353 0.02239
C 16.08901 2.07528 -0.00381
C 18.38475 6.36698 0.01153
C 17.1559 4.1129 -0.0055
C 17.34762 2.6894 0.01515
C 18.50262 2.03731 -0.00225
C 18.53983 0.53736 0.00071
C 17.32405 34.02029 -0.01107
C 19.52027 11.17849 -0.01586
C 18.38609 4.94198 0.02734
C 14.83495 2.69083 0.01852
C 14.72131 4.16928 0.01126
C 15.95597 4.85943 -0.01185
C 12.36347 8.66113 -0.00311
C 12.32239 7.25971 0.00742
C 13.48482 6.39621 -0.01594
C 13.54702 4.94986 0.0106
C 12.35472 4.19624 -0.01154
C 12.37972 2.8001 -0.01721
C 13.54736 2.00519 -0.02422
C 13.5045 0.43443 0.01277
C 12.21728 33.96006 0.00096
C 14.89735 11.34097 -0.01527
C 16.07434 10.62335 0.01087
C 15.91179 9.27398 0.00199
C 14.7044 8.58138 0.01511
C 14.71926 7.14371 -0.00478
C 15.98473 6.31974 -0.01662
C 13.60825 10.77315 -0.00865
C 7.29238 16.98386 -0.05302
C 8.65748 17.55233 -0.04147
C 8.67507 19.0917 -0.02815
C 3.51863 10.69644 -0.02689
C 3.66403 9.24889 -0.01046
C 2.36086 8.65188 -0.00891
C 2.45274 7.184 0.02819
C 3.67239 6.42452 0.00165
C 3.69306 4.98243 -0.02971
C 2.29119 11.41072 -0.01536
C 2.48248 4.29107 0.02894
C 3.71535 2.20982 0.00444
C 3.74477 0.79271 -0.00925
C 2.48897 0.11009 0.01877
C 4.94832 32.66545 0.01363
C 6.1923 31.94505 -0.02162
C 6.14234 30.55073 0.00415
C 2.47192 2.90807 -0.01789
C 2.39965 12.80248 0.03101
C 3.61993 13.53359 -0.00428
C 3.68058 14.97538 -0.02245
C 3.65219 30.576 -0.00719
C 2.38173 29.87401 0.01364
C 2.44186 28.40218 -0.01062
C 3.66898 27.69606 -0.00033
C 3.68999 26.29451 0.03589
C 2.44903 25.61115 -0.02759
C 2.45294 24.17497 0.0402
C 3.72903 23.48275 0.00572
C 3.76741 21.96991 0.03592
C 2.50369 21.24982 0.00406
C 2.41435 19.83696 0.00943
C 3.64165 19.10466 0.02841
C 3.64761 17.63605 -0.01111
C 2.36643 17.05309 -0.01275
C 2.40197 15.60976 0.00985
C 4.85904 29.88317 -0.0014
C 4.80752 28.51311 0.02162
C 6.10318 27.76063 0.0076
C 6.07064 26.31114 0.01241
C 6.21742 5.01819 -0.00114
C 4.96221 4.30886 0.00228
C 4.92731 2.90345 0.00798
C 6.19391 2.15801 0.00422
C 6.17799 0.72501 0.0351
C 4.9943 0.0882 -0.03113
C 7.43496 32.62544 0.02098
C 8.70528 31.99107 0.01848
C 8.63525 30.63946 -0.00619
C 7.42791 29.80845 -0.02162
C 7.36778 28.3593 0.00889
C 7.36081 25.61342 -0.00481
C 7.37235 24.25365 0.00979
C 7.38515 21.22471 0.01443
C 7.51846 19.91461 0.03505
C 6.14789 6.48506 -0.02696
C 20.75767 10.73996 -0.01971
C 4.89505 7.12306 -0.00368
C 6.15238 9.21549 -0.01957
C 4.85775 25.55622 -0.01454
C 4.94821 24.11385 0.01945
C 6.25215 23.5056 0.01416
C 6.24818 21.98067 0.03542
C 4.92777 21.23286 0.02299
C 4.9518 19.79171 0.00244
C 6.19912 19.14198 -0.01717
C 6.08617 17.7945 0.05265
C 4.92343 17.08875 -0.01952
C 4.81552 15.65147 -0.02813
C 6.01543 14.90043 0.00374
C 6.0515 13.47065 0.00052
C 4.83198 12.75308 -0.03682
C 4.82969 11.38381 0.01965
C 6.07182 10.66756 0.02058
C 4.85643 8.55528 -0.0108
C 20.7593 9.33616 -0.02118
C 19.67869 8.58471 0.00733
C 19.59996 7.1471 -0.00178
C 33.1495 27.73338 -0.02383
C 33.17733 26.37259 -0.01429
C 31.90367 25.64331 -0.0136
C 31.98528 24.21582 0.00594
C 33.19034 23.5083 -0.02474
C 33.18616 22.15031 0.00369
C 31.89581 28.45957 0.01574
C 31.97932 21.42459 0.00455
C 32.99109 19.18752 -0.01839
C 33.14188 17.82755 0.00137
C 33.12606 10.66424 0.00199
C 33.12244 9.28221 0.04381
C 31.94822 8.5753 0.02806
C 31.91048 7.06825 0.01504
C 31.80698 20.03602 -0.00644
C 31.90479 29.83393 0.01927
C 33.10537 30.52806 0.03794
C 33.12199 31.97349 -0.01779
C 29.51698 24.21542 0.01518
C 30.70553 23.49024 0.01908
C 30.66919 22.04787 0.07705
C 29.55046 21.23999 0.0103
C 30.86117 9.41577 0.02108
C 29.50409 8.65785 0.00716
C 29.50519 7.22084 0.00307
C 30.67124 6.46743 0.00346
C 30.62169 5.08526 0.01713
C 29.36764 4.36468 -0.01694
C 29.48107 2.94023 0.01428
C 30.67122 2.20473 -0.02142
C 30.69937 0.78259 0.0544
C 29.45495 0.05035 0.00026
C 31.95439 32.69992 0.00682
C 33.17244 6.40407 -0.00069
C 33.14156 4.98803 0.04926
C 31.86407 4.45841 -0.03838
C 31.87886 2.91546 0.00349
C 34.42535 15.47333 0.02114
C 1.20758 14.93099 -0.02957
C 1.13636 13.46102 0.00343
C 34.3666 12.93867 -0.02656
C 34.16592 11.50125 -0.02442
C 1.02617 10.78031 -0.00027
C 1.07933 9.34676 -0.00583
C 34.3989 8.60866 -0.02302
C 34.42412 7.1159 -0.02849
C 1.24351 6.44705 0.02931
C 1.22457 5.04213 0.00628
C 34.42138 4.32983 -0.0345
C 34.4203 2.90914 -0.00931
C 1.21142 2.12787 -0.00939
C 1.17955 0.81087 -0.00468
C 34.29191 17.02711 0.00648
C 29.45389 25.58981 -0.00971
C 1.15827 17.71329 0.01223
C 34.33039 19.91173 0.01951
C 33.17865 2.22987 -0.00323
C 33.13149 0.80156 -0.00841
C 31.96056 0.0561 0.0001
C 34.42643 32.73083 -0.02927
C 1.20728 32.01962 -0.01404
C 1.19472 30.6157 0.01027
C 34.36298 29.89368 0.01831
C 34.38832 28.45532 -0.01037
C 1.11818 27.69979 -0.00439
C 1.22243 26.27117 -0.00598
C 34.38181 25.58772 -0.05239
C 34.38271 24.21313 0.03076
C 1.22055 23.48006 0.00723
C 1.23899 22.05561 0.02712
C 0.04575 21.29719 -0.02213
C 1.0776 19.19892 -0.01678
C 3.69488 31.99674 0.01641
C 30.63858 26.23582 -0.03735
C 29.51472 28.5144 -0.02155
C 23.38015 5.02091 -0.01052
C 22.12871 4.30697 -0.01679
C 22.20855 2.86191 0.00367
C 23.35761 2.05321 0.04306
C 23.37666 0.64936 0.00996
C 22.11279 0.0114 0.00195
C 23.29527 6.46716 0.00684
C 24.45904 32.57347 -0.00802
C 25.77239 30.5396 -0.01654
C 24.63446 29.72635 -0.00037
C 25.78854 27.76261 -0.0032
C 25.7302 26.34544 0.00622
C 25.83565 23.3488 -0.02815
C 25.54481 21.85544 -0.00942
C 25.73935 31.91903 -0.00218
C 21.98898 7.0781 -0.01154
C 21.96063 8.58828 -0.0264
C 23.13713 9.28244 -0.00938
C 20.82421 6.44577 0.00768
C 20.78876 4.93621 -0.0276
C 19.58641 4.20596 0.03005
C 19.68412 2.81863 -0.04078
C 20.97576 2.17179 0.02117
C 20.8823 0.74756 0.02737
C 19.73497 33.97005 -0.00498
C 21.93408 32.60886 0.00135
C 23.13567 31.85037 0.03102
C 23.4648 30.53486 0.02555
C 23.87858 18.53287 0.01423
C 22.81672 17.78437 -0.00285
C 21.54336 12.63584 -0.009
C 22.14444 11.51871 -0.01199
C 23.29355 10.64713 -0.00229
C 24.41921 20.828 0.00487
C 23.79436 19.82134 0.00826
C 25.62424 9.31928 -0.00294
C 24.4597 8.6556 0.00152
C 26.85963 21.85751 0.02326
C 28.22948 9.21957 0.00261
C 26.89955 8.67883 0.03265
C 26.91776 7.21734 -0.02049
C 28.24801 6.55572 -0.01854
C 28.20803 5.10555 -0.01415
C 27.02887 4.30127 -0.03039
C 27.03815 2.87759 0.01836
C 28.29184 2.11702 0.03531
C 28.23481 0.70553 -0.00669
C 26.99111 34.07319 0.0101
C 29.45031 32.68005 0.01705
C 30.65948 32.04476 -0.0405
C 30.70405 30.61644 -0.01303
C 29.50848 29.90433 -0.01461
C 28.30283 22.07362 0.00924
C 30.68903 27.71063 -0.00944
C 28.34264 23.53157 0.0014
C 26.89903 25.65465 0.04266
C 24.47868 7.1529 0.01257
C 25.75328 6.45113 0.02316
C 25.78664 4.9961 0.04185
C 24.55311 4.29567 0.00194
C 24.58908 2.84724 -0.00621
C 25.78634 2.04607 0.02611
C 25.70082 0.58874 0.02198
C 24.50738 33.98886 0.01094
C 26.97736 32.63858 0.00235
C 28.19861 32.03344 0.01495
C 28.28687 30.60442 0.01259
C 27.0167 29.86878 0.01799
C 27.03572 28.45932 0.01699
C 28.26772 27.77719 -0.00416
C 28.28219 26.32598 0.01177
C 27.05255 24.14732 0.01324
C 2.45646 32.72967 0.02339
