234
Graphene
C 34.42582 0.04376 0.01295
C 13.49439 6.37112 0.00733
C 12.3127 7.04684 -0.02118
C 12.26877 8.52467 -0.01971
C 13.48645 9.26846 -0.01586
C 13.50578 10.61836 -0.01107
C 12.33093 11.45671 0.00071
C 12.39015 12.88962 -0.00225
C 13.62596 13.35327 0.01515
C 13.68411 14.92061 -0.0055
C 12.40402 15.67759 0.02734
C 12.3484 17.04002 0.01153
C 13.57473 17.68699 0.02239
C 13.60695 32.03206 -0.03213
C 12.51546 32.67253 -0.02845
C 9.75665 34.01669 0.03374
C 10.96229 0.70706 0.0296
C 10.99012 2.19458 0.03046
C 9.82344 2.84173 -0.00381
C 9.71468 4.30354 0.01852
C 11.02871 5.0254 0.01126
C 11.02917 6.41262 -0.01185
C 9.81576 7.13107 -0.01662
C 9.87743 8.46498 -0.00478
C 11.09872 9.2737 0.01511
C 11.08744 10.71503 0.00199
C 13.55289 4.91501 -0.00178
C 9.81791 11.34752 0.01087
C 12.25738 4.28197 0.00768
C 13.52315 2.10293 0.03005
C 14.73179 33.9928 -0.01654
C 15.90207 0.65218 -0.00218
C 15.90854 2.0624 -0.00802
C 14.7541 2.82409 0.00195
C 14.75506 4.19547 0.00996
C 15.90423 5.03632 0.04306
C 15.92675 6.45298 0.00367
C 14.71209 7.06955 -0.01679
C 14.64102 8.4972 -0.01052
C 15.98515 9.21736 0.00684
C 16.27671 10.51834 -0.01154
C 14.87035 11.2409 -0.0264
C 14.8442 12.61649 -0.00938
C 16.03248 13.44 -0.00229
C 16.11592 14.70455 -0.01199
C 15.00272 15.70331 -0.009
C 14.88905 17.15233 -0.00285
C 15.55616 18.30641 0.01423
C 15.9425 19.65602 0.02555
C 14.43386 19.21946 0.03102
C 16.35157 30.55829 0.00135
C 16.24778 31.8088 -0.00498
C 14.88588 32.52396 0.02737
C 12.22625 33.99252 0.02117
C 13.53617 0.66239 -0.04078
C 12.2743 2.82498 -0.0276
C 9.84469 12.69323 -0.01527
C 11.11437 13.52625 0.00096
C 11.10686 14.95409 0.01277
C 4.83272 11.34335 0.02691
C 4.81621 12.82913 -0.01979
C 6.11739 13.52275 0.02188
C 6.1844 14.97928 -0.00316
C 4.93602 15.6415 -0.0331
C 4.84674 16.95864 -0.0258
C 4.80993 32.79262 0.03338
C 2.37874 0.06603 -0.00491
C 3.56396 0.81599 -0.00109
C 3.63305 2.23382 0.03698
C 2.35497 2.90567 -0.02213
C 2.45732 4.30082 0.00028
C 3.6483 5.04197 -0.00289
C 3.6444 6.40516 -0.00066
C 2.40038 7.13549 0.00213
C 2.39021 8.5725 -0.05302
C 3.63068 9.25099 -0.04147
C 3.63824 10.66503 -0.02815
C 2.38727 11.45686 0.03505
C 2.38546 12.84337 0.01443
C 3.63263 13.51353 0.00979
C 3.6077 14.93385 -0.00481
C 2.39988 15.62836 0.00889
C 2.51645 17.06967 -0.02162
C 3.71935 17.73382 -0.00619
C 6.06668 10.64641 -0.01581
C 6.13822 9.25677 0.01452
C 4.86722 8.51382 0.04892
C 4.84367 7.12545 -0.00111
C 9.89705 15.69261 -0.02422
C 9.34289 17.03108 -0.01721
C 7.26509 34.01581 -0.01154
C 8.50208 0.55759 0.0106
C 8.57981 2.07382 -0.01594
C 7.37115 2.8845 0.00742
C 7.28169 4.27621 -0.00311
C 8.57577 4.99832 0.00675
C 8.5821 6.45994 -0.00865
C 7.39212 7.14001 0.0058
C 7.36286 8.5697 -0.00652
C 8.62362 9.21919 -0.04076
C 17.42083 32.7558 -0.00037
C 8.57754 10.69364 -0.00703
C 7.31538 12.79321 -0.04422
C 8.63123 13.51322 -0.02957
C 8.60791 14.94034 -0.00831
C 7.39959 15.63947 0.00364
C 7.84647 17.09633 -0.017
C 4.81439 0.09736 0.00143
C 6.03183 0.76716 0.00667
C 6.11758 2.24634 -0.0054
C 4.89966 2.90332 0.00755
C 4.83138 4.31114 0.01739
C 6.07439 5.0039 0.03754
C 6.13252 6.39721 -0.03557
C 7.29741 11.3623 0.00654
C 17.71269 10.6684 -0.0032
C 18.31779 9.60874 0.00622
C 17.17219 8.4861 -0.02815
C 31.79734 2.88392 -0.02927
C 31.89436 4.26226 0.0001
C 33.16067 5.08654 -0.00841
C 33.12482 6.42299 -0.00323
C 31.90034 7.12881 0.00349
C 31.86852 8.51189 -0.03838
C 33.10158 9.24039 0.04926
C 33.12349 10.70288 -0.00069
C 31.87787 11.52155 0.01504
C 31.96805 12.84151 0.02806
C 33.15401 13.62452 0.04381
C 33.22141 15.14259 0.00199
C 33.17065 17.57204 0.00137
C 32.30266 18.68481 -0.01839
C 32.05904 19.93197 -0.00644
C 31.95778 21.44356 0.00455
C 33.30752 21.94197 0.00369
C 33.28462 23.44344 -0.02474
C 31.8651 23.84375 0.00594
C 31.82206 25.29812 -0.0136
C 33.01473 26.12401 -0.01429
C 32.9345 27.53081 -0.02383
C 32.38295 28.74059 0.01574
C 31.94171 30.04802 0.01927
C 33.19342 30.74969 0.03794
C 33.11927 2.17732 -0.01404
C 33.22112 0.81093 0.01027
C 31.91584 0.05743 0.01831
C 0.0006 32.7317 -0.01037
C 1.16122 0.77574 -0.00468
C 1.20921 2.27045 -0.00939
C 34.40554 2.86597 -0.00931
C 34.38493 4.28575 -0.0345
C 1.23042 5.01324 0.00628
C 1.13378 6.41862 0.02931
C 34.34791 7.16401 -0.02849
C 34.34842 8.58792 -0.02302
C 1.08955 9.34263 -0.00583
C 1.16423 10.66856 -0.00027
C 34.38903 11.40095 -0.02442
C 34.37734 12.8724 -0.02656
C 33.18583 32.13454 -0.01779
C 1.17568 13.53742 0.00343
C 0.0741 15.66505 0.02114
C 0.00243 17.11881 0.00648
C 1.30331 17.85858 0.01223
C 1.30601 19.17189 -0.01678
C 1.12311 20.50649 0.01951
C 0.22451 21.47219 -0.02213
C 0.05425 24.1735 0.02712
C 34.32515 25.59513 0.00723
C 33.83763 28.51817 0.03076
C 34.39756 29.88862 -0.05239
C 1.21896 30.46925 -0.00598
C 1.25879 31.80999 -0.00439
C 1.19927 14.88701 -0.02957
C 3.70636 32.15878 0.01848
C 31.90094 32.70986 0.00682
C 30.76679 0.74566 0.0544
C 22.0545 34.05365 0.02326
C 23.39093 0.62188 0.00924
C 23.36435 2.13304 0.0014
C 22.07181 2.76559 0.01324
C 22.06194 4.24516 0.04266
C 23.29657 5.04465 0.01177
C 23.26102 6.52183 -0.00416
C 21.996 7.25646 0.01699
C 19.5056 34.06205 0.01799
C 20.79889 0.61009 0.01259
C 20.88502 2.06877 0.01495
C 19.63385 2.83693 0.00235
C 19.6634 4.22334 0.01094
C 20.90379 4.97687 0.02198
C 20.8475 6.51384 0.02611
C 19.54436 7.26607 -0.00621
C 19.43096 8.73261 0.00194
C 17.23679 34.07659 0.04185
C 18.38781 0.72632 0.02316
C 18.41716 2.20858 0.01257
C 17.1522 2.87323 0.00152
C 17.14814 4.25607 -0.00294
C 18.40358 4.93727 0.00826
C 18.38417 6.31321 0.00487
C 17.21009 7.1133 -0.00942
C 24.5202 7.079 0.00261
C 25.77812 6.52506 0.03265
C 25.79627 5.11839 -0.02049
C 24.51232 4.33057 -0.01854
C 30.63363 2.21694 -0.02142
C 29.34675 2.81234 0.01428
C 29.4592 4.23797 -0.01694
C 30.74322 4.99934 0.01713
C 30.71992 6.43451 0.00346
C 29.4855 7.10363 0.00307
C 29.31553 8.48054 0.00716
C 30.54428 9.34492 0.02108
C 30.72063 10.70004 0.0103
C 30.91843 22.3296 0.07705
C 30.72738 30.62198 0.01908
C 30.64145 31.92483 0.01518
C 29.54088 0.05477 0.00026
C 29.41318 32.72825 -0.00971
C 28.31218 0.68695 -0.00944
C 28.10947 2.0799 -0.02155
C 26.998 2.84666 -0.01461
C 26.96281 4.27609 -0.01303
C 28.18794 4.99969 -0.0405
C 28.20718 6.39756 0.01705
C 27.09073 7.19343 0.0101
C 28.01215 32.36284 -0.00669
C 24.65695 34.04596 0.03531
C 25.97138 0.51704 0.01836
C 25.74647 2.05119 -0.03039
C 24.57009 2.83381 -0.01415
C 27.27724 33.82746 -0.03735
C 2.42609 32.66261 0.02098
