392
Graphene
C 0.01591 0.02824 0.01295
C 16.04226 13.46651 0.01877
C 15.9617 10.66807 0.01363
C 15.99323 9.27243 -0.02162
C 14.73003 7.06158 0.00415
C 16.03136 6.44426 -0.0014
C 16.00705 4.99977 0.02162
C 14.71915 4.21596 0.0076
C 14.71689 2.81935 0.01241
C 15.96349 2.02116 -0.01454
C 15.95707 14.88237 -0.00925
C 16.02274 0.73181 0.01945
C 17.24055 32.62184 0.03542
C 18.51506 31.93379 0.02299
C 18.4962 30.50139 0.00244
C 17.19922 29.89617 -0.01717
C 17.23575 28.3682 0.05265
C 18.4362 27.60818 -0.01952
C 18.38979 26.22459 -0.02813
C 17.26422 25.48464 0.00374
C 17.16673 24.11325 0.00052
C 14.72582 0.06624 0.01416
C 14.761 15.58135 0.00444
C 14.69919 17.08973 -0.01789
C 15.91906 17.79711 0.02894
C 13.57009 6.43665 0.03589
C 13.54438 4.97932 -0.02759
C 12.30934 4.293 0.0402
C 12.29479 2.85331 0.00572
C 13.49314 2.16161 0.03592
C 13.5233 0.71972 0.00406
C 12.31799 0.00432 0.00943
C 14.75525 32.75648 0.02841
C 15.95466 31.96787 -0.01111
C 15.97356 30.61243 -0.01275
C 14.7797 29.77985 0.00985
C 14.77058 28.40033 -0.02245
C 16.00243 27.72292 -0.00428
C 16.05425 26.26108 0.03101
C 14.72632 25.5012 -0.01536
C 14.74879 24.16385 -0.02689
C 16.01309 23.40747 -0.01046
C 15.96448 21.99293 -0.00891
C 14.793 21.29185 0.02819
C 14.83417 19.90148 0.00165
C 15.98743 19.19774 -0.02971
C 18.47754 23.446 -0.03682
C 13.48651 17.85539 -0.00033
C 18.44153 22.03532 0.01965
C 17.19517 19.8292 -0.01957
C 20.9266 26.23993 -0.02213
C 19.68164 25.60782 0.03698
C 19.68077 24.08992 -0.00109
C 20.87303 23.42001 -0.00491
C 20.883 22.02417 0.03338
C 19.69581 21.28152 -0.0258
C 19.71317 19.92831 -0.0331
C 20.88716 19.15792 -0.00316
C 20.92446 17.75737 0.02188
C 20.95399 27.68683 0.00028
C 19.73077 17.00354 -0.01979
C 20.85707 14.9117 -0.01581
C 20.89339 13.47062 0.01452
C 19.69799 12.72728 0.04892
C 19.7068 11.33157 -0.00111
C 20.88624 10.66449 -0.03557
C 20.88203 9.22212 0.03754
C 19.65124 8.5185 0.01739
C 19.61308 7.13558 0.00755
C 20.90151 6.41182 -0.0054
C 19.66449 15.65253 0.02691
C 19.70827 28.36098 -0.00289
C 19.68588 29.80181 -0.00066
C 20.90902 30.54311 0.00213
C 18.44742 19.20312 -0.0108
C 18.49692 17.76576 -0.00368
C 17.2201 17.02858 -0.02696
C 17.22579 15.5768 -0.00114
C 18.42531 14.89881 0.00228
C 18.43935 13.48202 0.00798
C 17.22668 12.82236 0.00422
C 17.19279 11.34971 0.0351
C 18.41047 10.63592 -0.03113
C 18.40623 9.23623 0.02098
C 17.20627 8.49455 0.01848
C 17.18091 7.10601 -0.00619
C 18.43299 6.42229 -0.02162
C 18.47372 4.96356 0.00889
C 17.18064 4.25615 -0.00481
C 17.1929 2.78018 0.00979
C 18.42028 2.12529 0.01443
C 18.4438 0.67705 0.03505
C 17.17255 34.05092 -0.02815
C 19.71823 32.66494 -0.04147
C 20.95199 31.9801 -0.05302
C 17.19782 21.32604 0.02058
C 20.92158 4.93894 0.00667
C 13.51997 19.21345 -0.01062
C 12.30712 21.32599 -0.00719
C 6.16977 31.98835 0.01465
C 6.1585 30.48333 -0.00074
C 4.91851 29.83703 -0.00518
C 4.91657 28.42705 0.0086
C 6.12464 27.69566 -0.00643
C 6.1457 26.29476 0.017
C 4.93329 25.59803 -0.03113
C 4.93726 24.09568 -0.02566
C 6.15263 23.46189 -0.00094
C 4.93725 32.68362 -0.03996
C 6.14319 22.00119 0.02322
C 4.86474 19.9413 -0.05697
C 6.15512 19.2273 0.01087
C 6.17258 4.91087 -0.01343
C 4.8882 4.26574 0.00988
C 4.86872 2.88598 0.0276
C 6.16964 2.10159 0.01305
C 6.19168 0.73778 -0.00077
C 4.89523 0.01411 0.03368
C 7.45861 32.62587 -0.02929
C 4.93995 21.27794 -0.00725
C 2.41447 34.06499 0.01996
C 3.62945 0.81018 -0.00279
C 3.69268 2.14007 0.01226
C 3.73008 30.5247 0.01707
C 2.46015 29.86723 0.02769
C 2.53228 28.37561 -0.03291
C 3.68824 27.64588 -0.04999
C 3.74082 26.23857 0.04505
C 2.382 25.50017 0.03284
C 2.4276 24.18424 -0.04307
C 3.63965 23.44755 0.03189
C 3.67449 22.01768 0.00031
C 2.47574 21.35632 -0.003
C 2.44367 19.82806 0.01402
C 3.71727 19.19424 0.02379
C 3.71546 17.82946 0.00907
C 2.47396 17.06987 0.00643
C 2.41584 15.63439 -0.01509
C 2.41747 8.44856 0.03267
C 2.47779 7.09536 0.02374
C 3.76438 6.38536 0.00402
C 3.69837 4.95393 0.0073
C 2.4563 4.28651 0.0174
C 2.45633 2.88974 0.03828
C 8.58654 31.95255 -0.00966
C 12.33173 19.88716 0.01364
C 8.64175 30.53356 -0.03337
C 7.42766 28.46282 0.00873
C 9.78943 21.19988 -0.01384
C 9.83489 19.83565 0.03693
C 11.03588 19.17212 0.01745
C 10.96956 4.90258 0.00488
C 9.82794 4.28004 -0.01004
C 9.80974 2.89297 -0.02896
C 11.0526 2.1729 -0.00131
C 11.10234 0.64398 -0.01118
C 9.81572 0.02717 -0.014
C 11.05318 22.02768 -0.00482
C 12.30588 32.67938 0.02147
C 13.52779 30.54367 -0.00191
C 12.33374 29.82409 0.00438
C 12.3158 28.43639 0.01291
C 13.53519 27.69718 0.00093
C 13.50326 26.30502 0.00057
C 12.33482 25.56855 -0.01634
C 12.32379 24.19351 -0.00334
C 13.53091 23.47221 0.02339
C 13.57346 22.06683 0.01641
C 13.4941 32.03461 0.00373
C 11.05479 23.45333 0.02888
C 9.85339 24.16698 0.00685
C 9.78914 25.56978 0.00895
C 8.62169 27.71805 -0.00049
C 8.61993 26.25997 0.00848
C 7.41066 25.55743 -0.01303
C 7.3591 24.19761 -0.01378
C 8.59621 23.47294 0.02635
C 8.62584 22.02517 0.0127
C 7.32457 21.30369 0.01396
C 7.35097 19.91523 0.01849
C 8.62664 19.16375 -0.01142
C 7.35705 4.238 -0.00562
C 7.34436 2.8588 -0.00494
C 8.59169 2.13953 0.00054
C 8.64684 0.75252 0.03007
C 7.40284 34.02368 -0.00095
C 9.80476 32.68918 0.01572
C 10.99529 31.93807 -0.04848
C 11.08521 30.52087 -0.00892
C 9.80142 29.85762 -0.01362
C 9.75688 28.42374 -0.0008
C 11.02935 27.70222 0.0288
C 11.05044 26.24123 0.00393
C 7.39113 29.86907 0.01227
C 19.63808 4.25 0.00143
C 19.68824 2.87132 -0.017
C 20.91307 2.12842 0.00364
C 30.7398 4.97691 0.07705
C 29.49366 4.27458 0.0103
C 29.55426 2.84591 0.02108
C 30.7661 2.16035 0.00716
C 30.73201 0.68532 0.00307
C 29.50303 34.06539 0.00346
C 31.94427 32.65496 0.01713
C 33.15632 31.99948 -0.01694
C 33.24661 30.52948 0.01428
C 30.7561 6.36772 0.01908
C 32.03113 29.78373 -0.02142
C 33.20233 27.72198 0.00026
C 33.18601 26.29781 0.00682
C 31.98074 25.55711 -0.01779
C 31.97034 24.14342 0.03794
C 33.2101 23.40898 0.01927
C 33.20004 22.02396 0.01574
C 32.03451 21.3427 -0.02383
C 31.98419 19.82193 -0.01429
C 33.23611 19.14566 -0.0136
C 32.00658 28.4088 0.0544
C 29.51623 7.12686 0.01518
C 29.50818 8.48357 -0.00971
C 30.69832 9.26159 -0.03735
C 30.79644 31.88887 0.04266
C 30.71016 30.48258 0.01324
C 29.4821 29.83069 0.0014
C 29.49252 28.36398 0.00924
C 30.72763 27.69867 0.02326
C 30.71155 26.26531 0.00261
C 29.51611 25.48719 0.03265
C 29.53986 24.08729 -0.02049
C 30.75433 23.46827 -0.01854
C 30.80232 22.01824 -0.01415
C 29.54358 21.24936 -0.03039
C 29.53204 19.86941 0.01836
C 30.77598 19.13432 0.03531
C 30.72293 17.72316 -0.00669
C 29.51351 17.01524 0.0101
C 29.51363 15.61925 0.01705
C 30.76065 14.93038 -0.0405
C 30.76231 13.55432 -0.01303
C 29.49597 12.79561 -0.01461
C 29.55965 11.41036 -0.02155
C 30.71513 10.66006 -0.00944
C 33.19694 17.7595 0.00594
C 29.49808 32.64651 0.01177
C 32.0154 17.08184 -0.02474
C 33.24422 14.88434 0.00455
C 34.39906 21.26158 -0.02213
C 34.42655 19.91034 0.01951
C 1.23829 19.19327 -0.01678
C 1.24481 17.79779 0.01223
C 34.39603 16.95014 0.00648
C 34.38919 15.58962 0.02114
C 1.22833 14.89621 -0.02957
C 1.27845 13.49348 0.00343
C 34.38934 12.72942 -0.02656
C 1.16586 22.03777 0.02712
C 34.40969 11.32567 -0.02442
C 1.22369 9.23117 -0.00583
C 34.40896 8.47838 -0.02302
C 34.42654 7.15043 -0.02849
C 1.21845 6.40606 0.02931
C 1.22082 4.955 0.00628
C 34.43309 4.22066 -0.0345
C 34.39805 2.80004 -0.00931
C 1.20005 2.15306 -0.00939
C 1.25049 0.73003 -0.00468
C 1.24189 10.63565 -0.00027
C 1.22255 23.43832 0.00723
C 34.39133 24.18981 0.03076
C 34.43202 25.60605 -0.05239
C 33.21272 13.52334 -0.00644
C 31.93807 12.7973 -0.01839
C 31.93707 11.34005 0.00137
C 33.18399 10.6747 0.00199
C 33.20049 9.23734 0.04381
C 31.98958 8.52109 0.02806
C 31.9417 7.08917 0.01504
C 33.18032 6.38948 -0.00069
C 33.19246 4.9848 0.04926
C 31.96156 4.32962 -0.03838
C 31.9852 2.81769 0.00349
C 33.19576 2.09206 -0.00323
C 33.15493 0.68173 -0.00841
C 31.9675 0.01669 0.0001
C 0.0277 32.66435 -0.02927
C 1.17335 31.90846 -0.01404
C 1.20481 30.52366 0.01027
C 0.01029 29.81808 0.01831
C 34.42947 28.37333 -0.01037
C 1.21419 27.68715 -0.00439
C 1.26163 26.23718 -0.00598
C 32.01227 15.59811 0.00369
C 27.08327 34.07939 -0.00416
C 28.26308 0.685 0.01699
C 28.30819 2.07347 0.01799
C 22.11684 8.49284 -0.01185
C 22.12657 7.06965 0.01126
C 23.36764 6.36359 0.01852
C 23.39757 4.93457 -0.00381
C 22.12826 4.28183 0.03046
C 22.08126 2.8412 0.0296
C 23.30304 2.09641 0.03374
C 23.36224 0.64478 -0.02845
C 22.09997 0.00161 -0.03213
C 23.38601 9.21869 -0.01662
C 24.62659 32.69303 0.02239
C 25.71075 30.52084 0.02734
C 24.52375 29.76028 -0.0055
C 24.60434 28.3931 0.01515
C 25.81838 27.68773 -0.00225
C 25.84206 26.25713 0.00071
C 24.63007 25.50961 -0.01107
C 24.62857 24.12011 -0.01586
C 25.81213 23.44075 -0.01971
C 25.83368 21.94833 -0.02118
C 25.80378 31.91772 0.01153
C 23.35334 10.67576 -0.00478
C 22.16167 11.30321 0.01511
C 22.20976 12.73328 0.00199
C 20.89543 0.68964 -0.00831
C 19.67363 0.00442 -0.02957
C 22.14728 32.67779 -0.04422
C 23.36907 31.95509 0.00654
C 23.3863 30.52623 -0.00703
C 22.1199 29.81045 -0.04076
C 22.17413 28.42452 -0.00652
C 23.41353 27.6763 0.0058
C 23.41776 26.27467 -0.00865
C 22.17889 25.59281 0.00675
C 22.13511 24.16963 -0.00311
C 23.40133 23.35726 0.00742
C 23.36703 21.9847 -0.01594
C 22.16425 21.30626 0.0106
C 22.10357 19.94436 -0.01154
C 23.32443 19.17167 -0.01721
C 23.34551 17.76972 -0.02422
C 22.10411 17.04956 0.01277
C 22.10537 15.58781 0.00096
C 23.3709 14.92561 -0.01527
C 23.36308 13.52857 0.01087
C 24.58331 21.25878 0.00733
C 24.60683 19.90051 -0.00178
C 25.83848 19.17458 0.00768
C 25.85765 17.75029 -0.0276
C 26.99268 24.11978 -0.01654
C 28.30442 23.43637 -0.00037
C 28.29391 21.99413 -0.0032
C 27.1654 21.3298 0.00622
C 27.03214 19.89071 -0.02815
C 28.28948 19.14761 -0.00942
C 28.28248 17.71983 0.00487
C 26.96958 17.04721 0.00826
C 26.9763 15.64436 -0.00294
C 28.24242 14.90071 0.00152
C 28.25918 13.49076 0.01257
C 27.06957 12.73382 0.02316
C 26.99085 11.31144 0.04185
C 28.29107 10.65695 0.00194
C 28.25146 9.2548 -0.00621
C 27.03166 8.50506 0.02611
C 27.02568 7.12239 0.02198
C 28.29451 6.38788 0.01094
C 28.28407 4.95479 0.00235
C 27.03652 4.25805 0.01495
C 27.07113 2.77224 0.01259
C 27.07854 25.58172 -0.00218
C 3.69254 31.93613 0.00208
C 28.29273 26.27022 -0.00802
C 27.11803 28.46978 0.00996
C 24.59185 17.05923 0.03005
C 24.5347 15.56359 -0.04078
C 25.79664 14.89945 0.02117
C 25.83868 13.53162 0.02737
C 24.58659 12.82627 -0.00498
C 24.60274 11.36308 0.00135
C 25.8633 10.66375 0.03102
C 25.83715 9.22355 0.02555
C 24.5794 8.53032 0.01423
C 24.57716 7.03846 -0.00285
C 25.82247 6.41743 -0.009
C 25.83882 4.95814 -0.01199
C 24.5578 4.25582 -0.00229
C 24.57878 2.83676 -0.00938
C 25.81987 2.11874 -0.0264
C 25.82495 0.7131 -0.01154
C 24.60348 0.01075 0.00684
C 27.07158 32.60763 -0.01052
C 28.29638 31.98574 -0.01679
C 28.31831 30.57017 0.00367
C 27.02608 29.8374 0.04306
C 28.29714 27.66629 0.00195
C 2.46321 32.66513 -0.00561
