352
Graphene
C 34.30843 34.01961 0.01295
C 18.46332 17.71118 -0.00114
C 17.15589 17.167 0.00228
C 17.03397 15.77978 0.00798
C 18.24139 14.96258 0.00422
C 18.32657 13.58539 0.0351
C 17.16421 12.8666 -0.03113
C 17.16189 11.39643 0.02098
C 18.44174 10.76057 0.01848
C 18.44595 19.03302 -0.02696
C 18.40786 9.27097 -0.00619
C 17.21443 7.18415 0.00889
C 18.43889 6.43689 -0.00481
C 18.45998 4.94814 0.00979
C 17.21947 4.18484 0.01443
C 17.17738 2.85615 0.03505
C 18.44522 2.08286 -0.02815
C 18.41 0.66108 -0.04147
C 17.18813 34.06858 -0.05302
C 17.15013 8.59485 -0.02162
C 19.65395 32.62374 0.00213
C 18.44688 26.32566 -0.00368
C 17.18954 28.2645 -0.01957
C 15.88726 13.58209 0.02162
C 14.69946 12.79375 0.0076
C 14.71818 11.34018 0.01241
C 15.96396 10.69507 -0.01454
C 15.93077 9.33201 0.01945
C 14.75505 8.58548 0.01416
C 14.78812 7.1122 0.03542
C 15.98365 6.34358 0.02299
C 18.42701 27.66403 -0.0108
C 15.98455 4.95226 0.00244
C 14.80516 2.90436 0.05265
C 16.0174 2.15795 -0.01952
C 16.02986 0.64006 -0.02813
C 14.75753 0.0512 0.00374
C 17.28031 32.74897 0.00052
C 18.43979 31.88483 -0.03682
C 18.34346 30.43565 0.01965
C 17.08233 29.78902 0.02058
C 14.704 4.31338 -0.01717
C 15.81843 14.92599 -0.0014
C 20.86128 31.902 -0.00066
C 19.59189 29.71945 0.00028
C 20.8658 4.91535 -0.017
C 19.6265 4.1835 0.00364
C 19.63978 2.81028 -0.00831
C 20.88895 2.10368 -0.02957
C 20.83205 0.61094 -0.04422
C 19.59918 34.01492 0.00654
C 22.15249 32.66322 -0.00703
C 23.35582 31.94873 -0.04076
C 20.92075 6.41914 0.00143
C 23.38459 30.53885 -0.00652
C 22.18208 28.36551 -0.00865
C 23.41511 27.72958 0.00675
C 23.35134 26.28273 -0.00311
C 22.08136 25.52335 0.00742
C 22.14927 24.15467 -0.01594
C 23.41426 23.46017 0.0106
C 23.39123 22.05003 -0.01154
C 22.14402 21.30967 -0.01721
C 22.12142 29.76503 0.0058
C 20.85888 30.42062 -0.00289
C 19.72794 7.11213 0.00667
C 20.8839 9.26971 0.00755
C 19.70085 28.35849 -0.02213
C 20.86382 27.55446 0.03698
C 20.80959 26.18548 -0.00109
C 19.58057 25.51409 -0.00491
C 19.76004 24.09531 0.03338
C 20.89191 23.4282 -0.0258
C 20.8859 22.00993 -0.0331
C 19.62254 21.38217 -0.00316
C 19.64281 8.55385 -0.0054
C 19.44464 19.9858 0.02188
C 20.90824 17.74539 0.02691
C 19.71223 16.99204 -0.01581
C 19.54965 15.60631 0.01452
C 20.89211 14.86718 0.04892
C 20.86247 13.40443 -0.00111
C 19.61409 12.84285 -0.03557
C 19.70353 11.41714 0.03754
C 20.90622 10.67875 0.01739
C 20.71651 19.21945 -0.01979
C 22.03317 19.89891 -0.02422
C 15.94225 30.53084 0.00415
C 14.7727 32.69813 0.01363
C 5.98641 13.53987 -0.00095
C 4.90523 12.74252 0.01572
C 4.92121 11.2716 -0.04848
C 6.12103 10.69484 -0.00892
C 6.13097 9.28076 -0.01362
C 4.96116 8.45902 -0.0008
C 4.89482 7.1511 0.0288
C 6.18902 6.39841 0.00393
C 5.92858 32.00605 0.03007
C 6.09435 5.04371 0.00895
C 4.91562 2.89538 0.02888
C 6.17162 2.13727 -0.00482
C 6.13829 0.75775 -0.01384
C 4.87142 0.08674 0.03693
C 7.18187 32.61466 0.01745
C 8.49329 32.03211 0.00488
C 8.52127 13.61431 -0.01004
C 7.33359 12.87662 -0.02896
C 4.91956 4.28454 0.00685
C 7.39612 11.49549 -0.00131
C 4.79992 32.71924 0.00054
C 3.61941 0.76851 -0.00562
C 3.71507 30.71667 0.0276
C 2.49399 29.82763 0.01305
C 2.38069 28.44068 -0.00077
C 2.23227 16.99109 0.03368
C 2.61679 15.59743 -0.02929
C 3.75138 14.85134 -0.00966
C 3.6605 13.47247 -0.03337
C 2.48075 12.76877 0.01227
C 2.4135 0.04345 -0.00494
C 2.45058 11.3052 0.00873
C 3.73673 9.18383 0.00848
C 2.48916 8.4921 -0.01303
C 2.49226 7.03573 -0.01378
C 3.68997 6.42315 0.02635
C 3.71988 4.99567 0.0127
C 2.47764 4.30416 0.01396
C 2.45333 2.85627 0.01849
C 3.56846 2.12799 -0.01142
C 3.6363 10.54275 -0.00049
C 16.00049 31.96044 -0.02162
C 8.60167 10.83861 -0.01118
C 7.34527 8.66658 0.02147
C 11.02446 0.62226 -0.01111
C 9.7965 34.06893 -0.01275
C 12.36269 32.53261 0.00985
C 13.69767 31.85106 -0.02245
C 13.66272 13.63632 -0.00428
C 12.32162 12.93089 0.03101
C 12.23538 11.47053 -0.01536
C 13.46657 10.74182 -0.02689
C 11.03246 2.11374 0.02841
C 13.53837 9.3137 -0.01046
C 12.34159 7.20878 0.02819
C 13.50773 6.4811 0.00165
C 13.47448 5.00892 -0.02971
C 12.31257 4.30521 0.02894
C 12.30623 2.90098 -0.01789
C 13.55231 2.21025 0.00444
C 13.51516 0.79802 -0.00925
C 12.26956 0.01258 0.01877
C 12.32285 8.5578 -0.00891
C 8.5796 9.33885 -0.014
C 9.80544 2.82977 0.00943
C 11.0856 4.98779 0.03592
C 7.4268 7.16924 0.00373
C 8.62952 6.43189 -0.00191
C 8.66374 5.01546 0.00438
C 7.4353 4.32064 0.01291
C 7.39735 2.82845 0.00093
C 8.59523 2.07096 0.00057
C 8.57855 0.66203 -0.01634
C 7.27608 34.0704 -0.00334
C 9.87098 4.26333 0.00406
C 9.78215 32.55338 0.02339
C 11.05567 13.56405 -0.00719
C 9.74611 13.05676 0.01364
C 9.86441 11.58635 -0.01062
C 11.00081 10.87471 -0.00033
C 11.09193 9.33283 0.03589
C 9.849 8.63091 -0.02759
C 9.8215 7.15227 0.0402
C 11.12911 6.46927 0.00572
C 11.06352 31.84323 0.01641
C 23.31003 19.13043 0.01277
C 23.39333 17.77969 0.00096
C 22.1225 17.10372 -0.01527
C 29.46613 0.04776 -0.01694
C 31.94364 32.66659 0.01428
C 33.15814 31.95375 -0.02142
C 33.14465 30.54327 0.0544
C 31.92499 29.81141 0.00026
C 31.95483 28.43923 0.00682
C 33.2385 27.65907 -0.01779
C 33.22889 26.22225 0.03794
C 30.71818 0.73021 0.01713
C 31.89744 25.58964 0.01927
C 33.10261 23.49626 -0.02383
C 33.15864 22.07266 -0.01429
C 31.87787 21.34828 -0.0136
C 32.00336 19.92399 0.00594
C 33.26281 19.29395 -0.02474
C 33.1398 17.78439 0.00369
C 31.92328 17.07602 0.00455
C 31.9537 15.64612 -0.00644
C 31.89985 24.19765 0.01574
C 33.26529 14.89517 -0.01839
C 30.79405 2.10397 0.00346
C 29.56474 4.2656 0.00716
C 30.66722 23.44497 -0.03039
C 30.67756 22.06982 0.01836
C 29.42841 21.34726 0.03531
C 29.49722 19.92318 -0.00669
C 30.77208 19.1674 0.0101
C 30.70139 17.79724 0.01705
C 29.39943 17.05718 -0.0405
C 29.44889 15.5525 -0.01303
C 29.57791 2.79934 0.00307
C 30.74354 14.84951 -0.01461
C 29.49966 12.72576 -0.00944
C 29.52408 11.25792 -0.03735
C 30.78898 10.61929 -0.00971
C 30.73491 9.1772 0.01518
C 29.51102 8.45232 0.01908
C 29.56956 7.05375 0.07705
C 30.84069 6.36861 0.0103
C 30.75577 4.95437 0.02108
C 30.71933 13.43372 -0.02155
C 29.50682 24.27472 -0.01415
C 33.16286 13.53178 0.00137
C 32.04788 11.24988 0.04381
C 1.10912 19.05195 -0.01678
C 1.0781 17.7322 0.01223
C 34.28828 17.04203 0.00648
C 0.0423 15.65989 0.02114
C 1.28755 15.00432 -0.02957
C 1.22225 13.54949 0.00343
C 34.34467 12.84832 -0.02656
C 34.42839 11.38081 -0.02442
C 0.03621 20.00529 0.01951
C 1.25175 10.71446 -0.00027
C 34.41724 8.46889 -0.02302
C 34.42494 7.07797 -0.02849
C 1.26665 6.46237 0.02931
C 1.21879 5.02755 0.00628
C 0.03731 4.28819 -0.0345
C 0.01654 2.88484 -0.00931
C 1.18739 2.14291 -0.00939
C 1.12838 0.71619 -0.00468
C 1.24998 9.24735 -0.00583
C 32.01146 12.74098 0.00199
C 34.25924 21.36809 -0.02213
C 34.4114 25.49489 0.00723
C 33.23403 10.57006 0.02806
C 33.24574 9.16913 0.01504
C 31.99535 8.48981 -0.00069
C 32.03087 7.0299 0.04926
C 33.21626 6.36124 -0.03838
C 33.21563 4.89809 0.00349
C 31.97605 4.29064 -0.00323
C 31.99271 2.77007 -0.00841
C 34.33656 24.04695 0.02712
C 33.20559 2.12082 0.0001
C 31.86502 34.05878 -0.01404
C 34.40524 32.56492 0.01027
C 1.23036 31.98155 0.01831
C 1.24424 30.57084 -0.01037
C 34.39447 29.91093 -0.00439
C 34.39261 28.42574 -0.00598
C 1.17318 27.73476 -0.05239
C 1.15151 26.32453 0.03076
C 33.13316 0.7026 -0.02927
C 29.49294 25.6842 -0.01854
C 30.70607 26.37405 -0.02049
C 30.6672 27.79961 0.03265
C 25.78569 26.2784 -0.01586
C 24.5391 25.56407 -0.01971
C 24.62134 24.20033 -0.02118
C 25.8146 23.4618 0.00733
C 25.80954 22.01067 -0.00178
C 24.59831 21.3475 0.00768
C 24.51208 19.85242 -0.0276
C 25.73611 19.13536 0.03005
C 25.80013 27.7161 -0.01107
C 25.80528 17.7543 -0.04078
C 24.6537 15.62011 0.02737
C 25.81296 14.8894 -0.00498
C 25.82699 13.43697 0.00135
C 24.61876 12.69262 0.03102
C 24.53201 11.30723 0.02555
C 25.83194 10.60094 0.01423
C 25.8296 9.21127 -0.00285
C 24.6342 8.42467 -0.009
C 24.62559 17.0371 0.02117
C 24.61863 7.05305 -0.01199
C 24.62257 28.3581 0.00071
C 25.81241 30.58529 0.01515
C 22.08698 15.63492 0.01087
C 23.35682 14.89931 0.00199
C 23.4248 13.48819 0.01511
C 22.17696 12.79535 -0.00478
C 22.14376 11.38145 -0.01662
C 23.30843 10.65031 -0.01185
C 23.38544 9.21516 0.01126
C 22.14304 8.60295 0.01852
C 24.62472 29.82947 -0.00225
C 22.17075 7.2023 -0.00381
C 23.26609 4.9287 0.0296
C 22.093 4.16094 0.03374
C 22.09496 2.80072 -0.02845
C 23.29068 2.17041 -0.03213
C 23.31219 0.68126 0.02239
C 22.07611 34.04936 0.01153
C 24.56137 32.70008 0.02734
C 25.7792 32.02164 -0.0055
C 23.39281 6.36602 0.03046
C 25.8296 6.36642 -0.00229
C 25.77633 4.93731 -0.00938
C 24.6221 4.26199 -0.0264
C 27.07081 12.77949 0.00194
C 27.06845 11.34206 -0.00621
C 28.30023 10.55158 0.02611
C 28.28612 9.14921 0.02198
C 27.06149 8.48089 0.01094
C 27.06742 7.02121 0.00235
C 28.28012 6.29194 0.01495
C 28.29255 4.87033 0.01259
C 28.29319 13.39175 0.04185
C 27.12603 4.17743 0.01799
C 28.20524 2.09041 -0.00416
C 28.25883 0.70755 0.01177
C 27.0537 0.00199 0.04266
C 29.48818 32.69449 0.01324
C 30.70868 31.94623 0.0014
C 30.64924 30.55405 0.00924
C 29.39098 29.90744 0.02326
C 29.50099 28.47891 0.00261
C 27.01826 2.79378 0.01699
C 28.25195 14.89766 0.02316
C 27.03128 15.66106 0.01257
C 27.02192 17.02401 0.00152
C 24.5336 2.82462 -0.01154
C 25.75631 2.05928 0.00684
C 25.842 0.67822 -0.01052
C 24.52635 0.01859 -0.01679
C 27.01452 32.70025 0.00367
C 28.15177 31.98572 0.04306
C 28.19695 30.5642 0.00996
C 27.01985 29.84833 0.00195
C 27.0163 28.42209 -0.00802
C 28.25984 27.68299 -0.00218
C 28.25142 26.3553 -0.01654
C 27.07925 25.61328 -0.00037
C 27.01817 24.16814 -0.0032
C 28.26401 23.53529 0.00622
C 28.20632 22.12942 -0.02815
C 27.06142 21.25737 -0.00942
C 27.06164 19.93905 0.00487
C 28.22231 19.27539 0.00826
C 28.18803 17.79529 -0.00294
C 3.58599 32.0383 0.00988
C 2.3049 32.73838 -0.01343
