403
Graphene
C 0.01621 0.01992 0.01295
C 14.83595 25.53807 -0.00891
C 14.74825 24.1795 0.02819
C 15.9897 23.46578 0.00165
C 16.00803 22.01086 -0.02971
C 14.78468 21.32347 0.02894
C 14.76743 19.9237 -0.01789
C 15.93272 19.1362 0.00444
C 15.95605 17.74149 -0.00925
C 15.96786 14.81362 0.01877
C 16.00344 13.48958 0.01363
C 14.78199 11.34721 -0.02162
C 15.98351 10.63447 0.00415
C 16.02106 9.2257 -0.0014
C 14.80151 8.51222 0.02162
C 14.73645 7.13181 0.0076
C 15.98775 6.36524 0.01241
C 15.99339 4.8994 -0.01454
C 14.70717 4.24866 0.01945
C 14.7838 2.82449 0.01416
C 15.9393 2.11571 0.03542
C 16.00358 0.72983 0.02299
C 16.01799 26.26374 -0.01046
C 14.74367 0.02544 0.00244
C 15.92478 27.72467 -0.02689
C 14.77722 29.85331 0.03101
C 12.31818 29.85152 -0.01634
C 12.33241 28.42603 -0.00334
C 13.54592 27.71319 0.02339
C 13.53463 26.29943 0.01641
C 12.3352 25.56602 -0.00719
C 12.31131 24.17311 0.01364
C 13.55007 23.52621 -0.01062
C 13.50132 22.02104 -0.00033
C 12.25599 21.35917 0.03589
C 13.55769 10.60164 -0.02759
C 13.54143 9.2311 0.0402
C 12.30139 8.53963 0.00572
C 12.32675 7.11884 0.03592
C 13.49971 6.36166 0.00406
C 13.50899 4.98203 0.00943
C 12.29822 4.24836 0.02841
C 12.24402 2.82288 -0.01111
C 13.54385 2.16268 -0.01275
C 13.59347 0.71584 0.00985
C 12.29466 0.03138 -0.02245
C 15.99193 30.55464 -0.00428
C 14.71921 28.44752 -0.01536
C 17.22106 32.67549 -0.01717
C 18.44393 31.8909 0.05265
C 18.43717 30.47958 -0.01952
C 18.46592 2.18453 -0.04147
C 18.44501 0.72535 -0.05302
C 17.18451 34.07082 0.00213
C 19.65869 32.66862 -0.00066
C 20.9164 31.93923 -0.00289
C 20.98522 30.57683 0.00028
C 19.69928 29.7919 -0.02213
C 19.68481 28.40811 0.03698
C 20.90907 27.64087 -0.00109
C 20.92576 26.21032 -0.00491
C 19.62394 25.55452 0.03338
C 19.67043 24.12794 -0.0258
C 20.90875 23.38634 -0.0331
C 20.89484 22.00773 -0.00316
C 19.66132 21.32766 0.02188
C 19.67131 19.8713 -0.01979
C 20.88958 19.20739 0.02691
C 20.87158 17.7854 -0.01581
C 19.6668 17.06546 0.01452
C 19.66874 15.61219 0.04892
C 20.94616 14.89199 -0.00111
C 17.22229 2.8262 -0.02815
C 17.21981 4.2548 0.03505
C 18.46387 5.01935 0.01443
C 18.45783 6.39182 0.00979
C 17.1977 29.81745 -0.02813
C 17.22277 28.358 0.00374
C 18.40999 27.66397 0.00052
C 18.46347 26.28169 -0.03682
C 17.25838 25.58196 0.01965
C 17.20261 24.11797 0.02058
C 18.41437 23.43872 -0.01957
C 18.41738 22.02871 -0.0108
C 17.22361 21.29074 -0.00368
C 17.1853 19.8533 -0.02696
C 13.53686 30.54904 0.00057
C 18.47681 19.15228 -0.00114
C 17.1911 17.02876 0.00798
C 17.17285 15.60415 0.00422
C 18.42561 14.87263 0.0351
C 18.44272 13.45037 -0.03113
C 17.17964 12.75046 0.02098
C 17.23926 11.32538 0.01848
C 18.48849 10.67042 -0.00619
C 18.41904 9.28487 -0.02162
C 17.22863 8.5064 0.00889
C 17.17534 7.11704 -0.00481
C 18.43333 17.77199 0.00228
C 20.90425 13.50229 -0.03557
C 13.55035 31.91723 0.00093
C 9.85558 0.01055 0.00438
C 2.41989 4.27963 -0.01509
C 2.44794 2.82418 0.03267
C 3.7015 2.15131 0.02374
C 3.72526 0.74869 0.00402
C 2.48624 34.04808 0.0073
C 4.92293 32.68577 0.0174
C 6.14583 31.94938 0.03828
C 6.16556 30.5211 0.01226
C 4.83874 29.89401 -0.00279
C 4.93987 28.42531 0.01996
C 6.14527 27.67708 -0.03996
C 6.14241 26.26669 0.01465
C 4.89241 25.57891 -0.00074
C 4.96206 24.10659 -0.00518
C 6.22013 23.45238 0.0086
C 6.13271 21.99596 -0.00643
C 4.95931 21.30402 0.017
C 4.94304 19.87265 -0.03113
C 4.89804 11.33687 -0.02566
C 6.10163 10.72567 -0.00094
C 6.13654 9.21553 0.02322
C 3.70834 4.96402 0.00643
C 4.91825 8.51204 -0.00725
C 3.72848 6.4084 0.00907
C 2.41815 8.50548 0.01402
C 3.71376 30.51889 0.00245
C 2.40599 29.79252 0.02728
C 2.41925 28.45465 -0.00039
C 3.64013 27.71029 0.0064
C 3.68295 26.26301 0.00211
C 2.4984 25.56683 -0.00449
C 2.47224 24.06339 -0.01979
C 3.70313 23.43781 0.02784
C 3.67947 22.03803 -0.01977
C 2.4527 21.31282 -0.00561
C 2.45993 19.88481 0.00208
C 3.68099 19.14284 0.01707
C 3.69038 17.77671 0.02769
C 2.52953 17.02324 -0.03291
C 2.48698 15.58954 -0.04999
C 3.70687 14.8936 0.04505
C 3.67948 13.52368 0.03284
C 2.4212 12.76358 -0.04307
C 2.47325 11.32853 0.03189
C 3.7297 10.6488 0.00031
C 3.70169 9.27955 -0.003
C 2.42576 7.04341 0.02379
C 4.90409 7.09858 -0.05697
C 6.11645 6.41734 0.01087
C 6.11541 4.92286 -0.01343
C 7.39082 34.06332 -0.00892
C 9.80656 32.68315 -0.01362
C 11.0391 31.99589 -0.0008
C 11.10091 30.49488 0.0288
C 9.83482 29.86302 0.00393
C 9.83844 28.42914 0.00895
C 11.08971 27.72346 0.00685
C 11.06693 26.24439 0.02888
C 9.84315 25.56035 -0.00482
C 9.84575 24.14094 -0.01384
C 11.07109 23.42607 0.03693
C 11.04578 22.01141 0.01745
C 11.08184 9.22799 0.00488
C 9.80743 8.57446 -0.01004
C 9.82323 7.14669 -0.02896
C 11.09402 6.4484 -0.00131
C 11.05531 5.00373 -0.01118
C 9.80895 4.28628 -0.014
C 9.83797 2.85431 0.02147
C 11.02414 2.14247 0.00373
C 11.08147 0.76045 -0.00191
C 8.59149 0.69501 -0.04848
C 8.59342 2.1267 0.01572
C 7.36345 2.85251 -0.00095
C 7.35763 4.27301 0.03007
C 4.91741 4.27482 0.00988
C 4.85427 2.86442 0.0276
C 6.11199 2.17322 0.01305
C 6.14101 0.71112 -0.00077
C 4.9403 0.00625 0.03368
C 7.36769 32.67455 -0.02929
C 8.59102 31.97188 -0.00966
C 8.62655 30.57008 -0.03337
C 7.39355 29.79138 0.01227
C 7.41018 28.43646 0.00873
C 12.24596 32.66953 0.01291
C 8.62611 27.68302 -0.00049
C 7.38996 25.59254 -0.01303
C 7.33055 24.1739 -0.01378
C 8.59314 23.4231 0.02635
C 8.57928 21.9789 0.0127
C 7.40147 21.33654 0.01396
C 8.57539 9.25196 0.01849
C 7.41666 8.56106 -0.01142
C 7.37033 7.06143 -0.00562
C 8.60598 6.35851 -0.00494
C 8.61341 4.98176 0.00054
C 8.62899 26.26567 0.00848
C 3.71189 31.98478 0.00081
C 19.68445 12.77167 0.03754
C 20.88034 10.64444 0.00755
C 29.49056 8.51866 -0.00971
C 29.48617 7.13437 0.01518
C 30.77988 6.40688 0.01908
C 30.75702 4.9511 0.07705
C 29.52966 4.2297 0.0103
C 29.51625 2.86774 0.02108
C 30.74159 2.13106 0.00716
C 30.75977 0.69774 0.00307
C 29.50595 34.05306 0.00346
C 31.94628 32.64103 0.01713
C 33.19374 31.96832 -0.01694
C 33.23995 30.55679 0.01428
C 31.98785 29.75721 -0.02142
C 32.0204 28.36991 0.0544
C 33.22287 27.71426 0.00026
C 33.1836 26.29663 0.00682
C 31.97144 25.51807 -0.01779
C 31.94993 24.16166 0.03794
C 33.25435 23.38561 0.01927
C 33.18786 21.96529 0.01574
C 31.97781 21.32604 -0.02383
C 30.72269 9.24211 -0.03735
C 31.94955 19.9081 -0.01429
C 30.74362 10.63428 -0.00944
C 29.51254 12.7553 -0.01461
C 28.30034 0.68997 0.01699
C 27.05768 0.01113 -0.00416
C 29.52861 32.64438 0.01177
C 30.76159 31.88173 0.04266
C 30.74776 30.53012 0.01324
C 29.54303 29.79289 0.0014
C 29.49463 28.37598 0.00924
C 30.77586 27.65202 0.02326
C 30.71848 26.26631 0.00261
C 29.49682 25.54228 0.03265
C 29.52557 24.13358 -0.02049
C 30.74087 23.44536 -0.01854
C 30.7687 22.06844 -0.01415
C 29.5224 21.33434 -0.03039
C 29.52337 19.86432 0.01836
C 30.73433 19.15135 0.03531
C 30.7854 17.76026 -0.00669
C 29.52415 17.03233 0.0101
C 29.49841 15.58015 0.01705
C 30.7753 14.93976 -0.0405
C 30.74942 13.50301 -0.01303
C 29.55194 11.40155 -0.02155
C 33.17496 19.12407 -0.0136
C 33.15891 17.74153 0.00594
C 31.97025 17.04751 -0.02474
C 1.25149 22.02447 0.02712
C 34.38512 21.27266 -0.02213
C 34.39299 19.89327 0.01951
C 1.23631 19.15747 -0.01678
C 1.20596 17.73733 0.01223
C 34.42792 16.97644 0.00648
C 34.4216 15.65054 0.02114
C 1.23318 14.93406 -0.02957
C 1.23299 13.50044 0.00343
C 0.00599 12.74122 -0.02656
C 34.38161 11.35106 -0.02442
C 1.17836 10.68953 -0.00027
C 1.23272 9.23874 -0.00583
C 0.01623 8.49246 -0.02302
C 34.43175 7.09453 -0.02849
C 1.18852 6.39474 0.02931
C 1.22064 4.96995 0.00628
C 34.42659 4.26929 -0.0345
C 34.42498 2.84027 -0.00931
C 1.23575 2.13789 -0.00939
C 1.25781 0.73342 -0.00468
C 1.23848 23.44701 0.00723
C 0.00198 24.15236 0.03076
C 34.41449 25.56654 -0.05239
C 1.23223 26.26237 -0.00598
C 31.98817 15.60659 0.00369
C 33.20715 14.93653 0.00455
C 33.23091 13.43876 -0.00644
C 31.9575 12.76552 -0.01839
C 31.92667 11.329 0.00137
C 33.18104 10.6576 0.00199
C 33.20819 9.2389 0.04381
C 31.93701 8.47302 0.02806
C 31.93576 7.11557 0.01504
C 33.20907 6.3999 -0.00069
C 28.28197 2.08662 0.01799
C 33.18138 4.98726 0.04926
C 31.99943 2.84101 0.00349
C 33.20747 2.11271 -0.00323
C 33.22339 0.69903 -0.00841
C 31.96146 34.0713 0.0001
C 0.00809 32.61932 -0.02927
C 1.22018 31.94839 -0.01404
C 1.21021 30.51569 0.01027
C 34.42822 29.81501 0.01831
C 0.03655 28.40234 -0.01037
C 1.2223 27.68714 -0.00439
C 31.92677 4.26207 -0.03838
C 19.64648 11.33685 0.01739
C 27.0616 2.80766 0.01259
C 28.2657 4.97692 0.00235
C 23.40559 13.45624 0.01087
C 22.16248 12.7574 0.00199
C 22.0568 11.35839 0.01511
C 23.32501 10.61401 -0.00478
C 23.3599 9.22509 -0.01662
C 22.12852 8.49716 -0.01185
C 22.19229 7.04793 0.01126
C 23.38321 6.33466 0.01852
C 23.3952 4.94538 -0.00381
C 22.11473 4.24589 0.03046
C 22.16989 2.788 0.0296
C 23.32592 2.09626 0.03374
C 23.3559 0.71413 -0.02845
C 22.16045 34.03709 -0.03213
C 24.65402 32.68424 0.02239
C 25.8284 31.91649 0.01153
C 25.7854 30.49866 0.02734
C 24.59118 29.81399 -0.0055
C 24.59183 28.39461 0.01515
C 25.84058 27.7096 -0.00225
C 25.78249 26.29467 0.00071
C 23.35231 14.92613 -0.01527
C 24.61947 25.53888 -0.01107
C 22.14711 15.60627 0.00096
C 23.35747 17.77362 -0.02422
C 20.92272 9.24546 -0.0054
C 19.69053 8.47479 0.00667
C 19.6774 7.09659 0.00143
C 20.92912 6.39233 -0.017
C 20.89869 5.05625 0.00364
C 20.91204 0.71276 -0.00831
C 19.68551 0.03605 -0.02957
C 22.10984 32.68994 -0.04422
C 23.36284 31.96844 0.00654
C 23.37565 30.51953 -0.00703
C 22.14533 29.85606 -0.04076
C 22.16529 28.38122 -0.00652
C 23.39068 27.72128 0.0058
C 23.38845 26.2636 -0.00865
C 22.18693 25.54335 0.00675
C 22.08156 24.11441 -0.00311
C 23.38976 23.44141 0.00742
C 23.37307 21.95517 -0.01594
C 22.23902 21.31258 0.0106
C 22.11013 19.91966 -0.01154
C 23.35352 19.16349 -0.01721
C 22.14334 17.01274 0.01277
C 24.54437 24.13911 -0.01586
C 25.77625 23.45415 -0.01971
C 25.77883 22.00196 -0.02118
C 28.26598 27.68916 0.00195
C 28.31037 26.25691 -0.00802
C 27.00137 25.56014 -0.00218
C 27.04499 24.15112 -0.01654
C 28.25713 23.42625 -0.00037
C 28.28304 22.00228 -0.0032
C 27.01822 21.31273 0.00622
C 27.05092 19.86162 -0.02815
C 28.28546 19.1481 -0.00942
C 28.26455 17.74256 0.00487
C 27.0476 16.9817 0.00826
C 27.05721 15.6318 -0.00294
C 28.27694 14.8824 0.00152
C 28.29389 13.49434 0.01257
C 27.09742 12.81229 0.02316
C 27.06827 11.3524 0.04185
C 28.26539 10.61185 0.00194
C 28.27702 9.22328 -0.00621
C 27.06051 8.55542 0.02611
C 27.02468 7.11395 0.02198
C 28.30439 6.36665 0.01094
C 27.07811 28.42644 0.00996
C 27.09232 29.84454 0.04306
C 28.26842 30.54983 0.00367
C 28.30048 31.90072 -0.01679
C 24.57397 21.32862 0.00733
C 24.59262 19.85303 -0.00178
C 25.77662 19.15686 0.00768
C 25.80077 17.7585 -0.0276
C 24.58815 17.03679 0.03005
C 24.54692 15.59743 -0.04078
C 25.81508 14.92147 0.02117
C 25.85944 13.4888 0.02737
C 24.62419 12.84593 -0.00498
C 24.63049 11.40233 0.00135
C 27.01483 4.24775 0.01495
C 25.83671 10.61696 0.03102
C 24.59492 8.53607 0.01423
C 24.60966 7.11889 -0.00285
C 25.83668 6.36915 -0.009
C 25.83057 4.91849 -0.01199
C 24.62531 4.28165 -0.00229
C 24.59568 2.89399 -0.00938
C 25.82318 2.1502 -0.0264
C 25.85882 0.75061 -0.01154
C 24.58603 34.07965 0.00684
C 27.05795 32.58033 -0.01052
C 25.77491 9.18319 0.02555
C 2.48634 32.64526 -0.02805
