392
Graphene
C 34.39686 0.02457 0.01295
C 11.06868 2.17274 0.01877
C 11.06481 0.6856 0.01363
C 9.7923 0.06523 -0.02162
C 12.3299 32.69022 0.00415
C 13.51874 31.90768 -0.0014
C 13.47084 30.49447 0.02162
C 12.27019 29.84166 0.0076
C 12.2883 28.40308 0.01241
C 13.48015 27.69951 -0.01454
C 9.90554 2.84807 -0.00925
C 13.48536 26.15908 0.01945
C 12.36367 24.14706 0.03542
C 13.57809 23.40271 0.02299
C 13.58642 21.97891 0.00244
C 12.35875 21.29784 -0.01717
C 12.2891 19.93652 0.05265
C 13.52479 19.12856 -0.01952
C 13.55986 17.66796 -0.02813
C 12.2439 16.96365 0.00374
C 12.34573 15.51595 0.00052
C 12.33348 25.47955 0.01416
C 9.83256 4.28553 0.00444
C 11.03595 5.00216 -0.01789
C 11.04119 6.43562 0.02894
C 9.7464 28.49589 0.03589
C 10.96775 27.7568 -0.02759
C 11.0315 26.31356 0.0402
C 9.78745 25.63655 0.00572
C 9.86921 24.18347 0.03592
C 11.10943 23.51515 0.00406
C 11.0726 22.08715 0.00943
C 9.80105 21.3706 0.02841
C 9.79431 19.96294 -0.01111
C 11.05603 19.13698 -0.01275
C 11.07941 17.75428 0.00985
C 9.85125 17.04595 -0.02245
C 9.88417 15.5824 -0.00428
C 11.02405 14.8442 0.03101
C 11.04085 13.50548 -0.01536
C 9.8034 12.76136 -0.02689
C 9.80242 11.41192 -0.01046
C 11.07079 10.6149 -0.00891
C 11.13328 9.22499 0.02819
C 9.79499 8.61772 0.00165
C 9.79376 7.21892 -0.02971
C 13.52674 14.87666 -0.03682
C 9.76722 29.86459 -0.00033
C 13.49662 13.46784 0.01965
C 12.28144 11.37209 -0.01957
C 16.06704 17.73387 -0.02213
C 14.78015 16.9984 0.03698
C 14.7714 15.67999 -0.00109
C 16.04864 14.95059 -0.00491
C 16.04432 13.49558 0.03338
C 14.75471 12.87285 -0.0258
C 14.79558 11.36394 -0.0331
C 16.0323 10.65132 -0.00316
C 15.96788 9.20394 0.02188
C 16.02317 19.08718 0.00028
C 14.74406 8.52915 -0.01979
C 15.93828 6.36363 -0.01581
C 15.96944 4.95568 0.01452
C 14.73134 4.21835 0.04892
C 14.70315 2.80696 -0.00111
C 16.01639 2.14417 -0.03557
C 15.91361 0.78123 0.03754
C 14.6487 0.06161 0.01739
C 17.18788 32.70476 0.00755
C 18.38204 31.93569 -0.0054
C 14.67508 7.03902 0.02691
C 14.78245 19.78759 -0.00289
C 14.83151 21.22184 -0.00066
C 16.05579 22.00601 0.00213
C 13.58878 10.67274 -0.0108
C 13.58726 9.2531 -0.00368
C 12.40646 8.51806 -0.02696
C 12.25358 7.11911 -0.00114
C 13.48644 6.33293 0.00228
C 13.56985 4.92627 0.00798
C 12.25706 4.29685 0.00422
C 12.30793 2.93612 0.0351
C 13.47967 2.15908 -0.03113
C 13.42449 0.75264 0.02098
C 12.22901 0.0165 0.01848
C 14.76265 32.71552 -0.00619
C 15.92265 31.95218 -0.02162
C 15.89372 30.54244 0.00889
C 14.75362 29.74948 -0.00481
C 14.69199 28.35013 0.00979
C 15.98539 27.61981 0.01443
C 15.97179 26.2322 0.03505
C 14.82192 25.49476 -0.02815
C 14.8083 24.09109 -0.04147
C 16.06445 23.40998 -0.05302
C 12.28798 12.72693 0.02058
C 18.40674 30.53662 0.00667
C 11.02053 30.53771 -0.01062
C 9.85779 32.70811 -0.00719
C 2.45543 4.25484 0.01465
C 2.39357 2.90226 -0.00074
C 3.65958 2.13233 -0.00518
C 3.65196 0.71668 0.0086
C 2.4312 0.01561 -0.00643
C 4.92004 32.72017 0.017
C 6.14508 31.9657 -0.03113
C 6.11896 30.60024 -0.02566
C 4.94034 29.79978 -0.00094
C 3.65286 4.9976 -0.03996
C 4.87958 28.41792 0.02322
C 6.12751 26.26846 -0.05697
C 4.88539 25.52229 0.01087
C 4.84641 24.18868 -0.01343
C 6.05216 23.41922 0.00988
C 6.14967 21.97464 0.0276
C 4.89112 21.34334 0.01305
C 4.95607 19.85702 -0.00077
C 6.16025 19.08337 0.03368
C 6.05525 17.68394 -0.02929
C 6.09705 27.77757 -0.00725
C 3.65194 6.45784 0.01996
C 2.44621 7.14877 -0.00279
C 2.43949 8.6489 0.01226
C 3.6812 30.52826 0.01707
C 2.48897 29.78135 0.02769
C 2.42374 28.41157 -0.03291
C 3.70276 27.66225 -0.04999
C 3.61948 26.22378 0.04505
C 2.4576 25.61244 0.03284
C 2.36782 24.10451 -0.04307
C 3.62933 23.48144 0.03189
C 3.67039 22.05489 0.00031
C 2.40465 21.27728 -0.003
C 2.51384 19.93725 0.01402
C 3.74939 19.20989 0.02379
C 3.70157 17.77152 0.00907
C 2.48877 17.1079 0.00643
C 2.4565 15.66144 -0.01509
C 3.67905 14.93246 0.03267
C 3.73068 13.46404 0.02374
C 2.45353 12.70179 0.00402
C 2.45933 11.34001 0.0073
C 3.74843 10.74053 0.0174
C 3.65791 9.33857 0.03828
C 4.9186 17.02222 -0.00966
C 11.07357 31.96369 0.01364
C 4.8614 15.6329 -0.03337
C 6.1749 13.52456 0.00873
C 7.35168 19.89978 -0.01384
C 8.5518 19.16765 0.03693
C 8.61347 17.68984 0.01745
C 7.40591 17.04682 0.00488
C 7.42544 15.60257 -0.01004
C 8.67801 14.90787 -0.02896
C 8.61885 13.52183 -0.00131
C 7.36379 12.87858 -0.01118
C 7.41583 11.39657 -0.014
C 7.33198 21.2717 -0.00482
C 8.58135 10.69643 0.02147
C 7.36032 8.56654 -0.00191
C 7.3268 7.13697 0.00438
C 8.58747 6.41834 0.01291
C 8.59446 5.01659 0.00093
C 7.33449 4.33865 0.00057
C 7.34711 2.95694 -0.01634
C 8.60976 2.17039 -0.00334
C 8.60475 0.79433 0.02339
C 7.36716 0.03591 0.01641
C 8.6316 9.26004 0.00373
C 8.54223 22.08301 0.02888
C 8.52504 23.50658 0.00685
C 7.28059 24.12268 0.00895
C 4.99667 12.81395 -0.00049
C 4.97367 11.46331 0.00848
C 6.15307 10.69437 -0.01303
C 6.12745 9.22152 -0.01378
C 4.87699 8.57986 0.02635
C 4.78371 7.19601 0.0127
C 6.09357 6.47752 0.01396
C 6.08219 4.98729 0.01849
C 4.85804 4.29161 -0.01142
C 4.87069 2.8825 -0.00562
C 6.21353 2.20905 -0.00494
C 6.20099 0.8192 0.00054
C 4.87993 0.06421 0.03007
C 7.37069 32.77308 -0.00095
C 8.62075 31.98576 0.01572
C 8.57356 30.61405 -0.04848
C 7.33309 29.86667 -0.00892
C 7.33118 28.42348 -0.01362
C 8.58501 27.70701 -0.0008
C 8.50723 26.27588 0.0288
C 7.25698 25.57951 0.00393
C 6.16477 14.91239 0.01227
C 17.23955 29.82239 0.00143
C 17.17331 28.35162 -0.017
C 18.59223 27.57265 0.00364
C 30.69911 4.96151 0.07705
C 29.4897 4.22243 0.0103
C 29.46402 2.8566 0.02108
C 30.72975 2.12179 0.00716
C 30.69083 0.76621 0.00307
C 29.48195 0.03399 0.00346
C 31.93449 32.70059 0.01713
C 33.23218 31.98881 -0.01694
C 33.25551 30.58998 0.01428
C 30.70703 6.38433 0.01908
C 32.05719 29.82344 -0.02142
C 33.19019 27.68238 0.00026
C 33.15077 26.32337 0.00682
C 32.10189 25.5199 -0.01779
C 31.98655 24.26507 0.03794
C 33.07674 23.50577 0.01927
C 33.10684 22.04954 0.01574
C 32.08036 21.10466 -0.02383
C 32.09408 19.87648 -0.01429
C 33.20585 19.1297 -0.0136
C 31.98474 28.36326 0.0544
C 29.51329 7.0076 0.01518
C 29.50296 8.48144 -0.00971
C 30.7234 9.21562 -0.03735
C 28.25089 6.34152 0.04266
C 28.24748 4.91667 0.01324
C 26.96793 4.19079 0.0014
C 26.92352 2.83682 0.00924
C 28.23732 2.1329 0.02326
C 28.24488 0.70775 0.00261
C 27.01442 0.01227 0.03265
C 29.46511 32.68865 -0.02049
C 30.75185 31.87945 -0.01854
C 30.79489 30.45362 -0.01415
C 29.47288 29.72505 -0.03039
C 29.74371 28.38312 0.01836
C 30.81388 27.72681 0.03531
C 30.75448 17.67557 -0.00669
C 29.6242 16.98549 0.0101
C 29.4374 15.65808 0.01705
C 30.72573 15.02736 -0.0405
C 30.71015 13.5464 -0.01303
C 29.52348 12.87156 -0.01461
C 29.45482 11.39709 -0.02155
C 30.70525 10.69028 -0.00944
C 33.24896 17.71917 0.00594
C 27.1012 7.04317 0.01177
C 31.95189 17.08392 -0.02474
C 33.14577 14.92493 0.00455
C 34.37227 21.36372 -0.02213
C 34.40141 19.85774 0.01951
C 1.22275 19.18392 -0.01678
C 1.19192 17.74341 0.01223
C 0.05062 17.03829 0.00648
C 0.02994 15.56946 0.02114
C 1.26144 14.86553 -0.02957
C 1.20885 13.43989 0.00343
C 0.02567 12.78036 -0.02656
C 1.19109 22.008 0.02712
C 0.02192 11.32927 -0.02442
C 1.19575 9.21133 -0.00583
C 34.39421 8.56701 -0.02302
C 34.37553 7.08372 -0.02849
C 1.19363 6.45928 0.02931
C 1.21879 5.03493 0.00628
C 34.39425 4.28078 -0.0345
C 34.36484 2.84914 -0.00931
C 1.1788 2.14444 -0.00939
C 1.17345 0.73928 -0.00468
C 1.21727 10.6172 -0.00027
C 1.10601 23.46126 0.00723
C 34.36054 24.17544 0.03076
C 34.35426 25.60551 -0.05239
C 33.16073 13.45038 -0.00644
C 31.94205 12.82928 -0.01839
C 31.93304 11.43827 0.00137
C 33.16151 10.63927 0.00199
C 33.16609 9.24848 0.04381
C 31.908 8.53374 0.02806
C 31.95737 7.10164 0.01504
C 33.19264 6.40862 -0.00069
C 33.19393 4.9901 0.04926
C 31.96161 4.23882 -0.03838
C 31.9779 2.88155 0.00349
C 33.14649 2.09469 -0.00323
C 33.18642 0.6915 -0.00841
C 31.88288 0.01636 0.0001
C 34.3749 32.70977 -0.02927
C 1.21095 31.95728 -0.01404
C 1.25422 30.47838 0.01027
C 0.00752 29.7701 0.01831
C 0.01743 28.38858 -0.01037
C 1.26503 27.68857 -0.00439
C 1.16231 26.33634 -0.00598
C 31.96193 15.73055 0.00369
C 27.08365 8.45932 -0.00416
C 28.34759 9.18169 0.01699
C 28.33106 10.62589 0.01799
C 20.9719 31.9379 -0.01185
C 20.92422 30.52774 0.01126
C 19.67375 29.73659 0.01852
C 19.75645 28.38486 -0.00381
C 19.73164 17.02195 0.03046
C 19.62561 15.68268 0.0296
C 20.77426 14.85698 0.03374
C 20.81285 13.46986 -0.02845
C 19.64827 12.75845 -0.03213
C 19.66968 32.55748 -0.01662
C 19.63749 11.36716 0.02239
C 20.83178 9.18776 0.02734
C 19.56893 8.50595 -0.0055
C 19.59998 7.02996 0.01515
C 20.86687 6.30115 -0.00225
C 20.90806 4.89221 0.00071
C 19.68007 4.23676 -0.01107
C 19.7049 2.77366 -0.01586
C 20.91085 1.9937 -0.01971
C 20.92772 0.65821 -0.02118
C 20.8851 10.62704 0.01153
C 17.15632 0.05498 -0.00478
C 18.47565 0.67543 0.01511
C 18.47135 2.09729 0.00199
C 18.33088 26.28984 -0.00831
C 17.27962 25.46825 -0.02957
C 17.26129 24.09298 -0.04422
C 17.14857 21.33109 0.00654
C 17.40804 20.0416 -0.00703
C 18.35155 19.11223 -0.04076
C 18.55668 17.8043 -0.00652
C 17.27914 17.05221 0.0058
C 17.19968 15.64573 -0.00865
C 18.37244 14.88715 0.00675
C 18.4179 13.48421 -0.00311
C 17.20056 12.82602 0.00742
C 17.23994 11.34915 -0.01594
C 18.42367 10.68114 0.0106
C 18.3834 9.23084 -0.01154
C 17.20993 8.54153 -0.01721
C 17.14748 7.11102 -0.02422
C 18.40714 6.36334 0.01277
C 18.50916 4.99568 0.00096
C 17.23433 4.28799 -0.01527
C 17.27955 2.8301 0.01087
C 19.7617 33.97468 0.00733
C 22.17823 32.60693 -0.00178
C 23.38253 31.938 0.00768
C 23.33373 30.37147 -0.0276
C 24.66677 11.40079 -0.01654
C 25.82701 10.63408 -0.00037
C 25.94998 9.27684 -0.0032
C 24.59047 8.53277 0.00622
C 24.63405 7.13115 -0.02815
C 25.80175 6.38724 -0.00942
C 25.6964 4.96354 0.00487
C 24.51945 4.27619 0.00826
C 24.50635 2.82046 -0.00294
C 25.70277 2.10843 0.00152
C 25.79301 0.66462 0.01257
C 24.55288 34.07117 0.02316
C 27.05823 32.65071 0.04185
C 28.25376 31.92407 0.00194
C 28.27076 30.4291 -0.00621
C 27.07688 29.79085 0.02611
C 27.06167 15.64962 0.02198
C 28.20571 14.9586 0.01094
C 28.24567 13.51584 0.00235
C 27.07602 12.68661 0.01495
C 27.10908 11.31504 0.01259
C 24.56038 12.77577 -0.00218
C 3.67773 31.97683 0.00208
C 25.83258 13.42919 -0.00802
C 24.6974 15.74982 0.00996
C 22.07071 29.8974 0.03005
C 22.02634 15.3601 -0.04078
C 23.36648 15.1384 0.02117
C 23.33433 13.51844 0.02737
C 22.12374 12.71349 -0.00498
C 22.09662 11.31515 0.00135
C 23.33005 10.62543 0.03102
C 23.41515 9.24231 0.02555
C 22.06666 8.51694 0.01423
C 22.07602 7.15013 -0.00285
C 23.32476 6.44769 -0.009
C 23.26151 5.03881 -0.01199
C 22.14817 4.19278 -0.00229
C 22.1085 2.76503 -0.00938
C 23.26359 2.06119 -0.0264
C 23.38279 0.6566 -0.01154
C 22.14581 34.05951 0.00684
C 24.57408 32.67858 -0.01052
C 25.78552 31.89166 -0.01679
C 25.81645 30.43875 0.00367
C 24.68036 29.89451 0.04306
C 25.84457 14.94438 0.00195
C 2.40122 32.62844 -0.00561
