372
Graphene
C 34.28848 0.01538 0.01295
C 10.99479 9.17559 0.00244
C 9.83261 8.4934 -0.01717
C 9.80021 7.06296 0.05265
C 11.0543 6.32481 -0.01952
C 11.01882 4.94559 -0.02813
C 9.77612 4.29931 0.00374
C 9.85057 2.85169 0.00052
C 11.04994 2.12442 -0.03682
C 11.04792 0.71836 0.01965
C 9.80465 0.0959 0.02058
C 12.26435 32.70116 -0.01957
C 13.52276 31.98002 -0.0108
C 13.57109 30.5129 -0.00368
C 12.32811 29.85791 -0.02696
C 12.2731 28.41105 -0.00114
C 13.57848 27.75062 0.00228
C 13.5391 26.3342 0.00798
C 12.30776 25.64457 0.00422
C 12.25839 24.30445 0.0351
C 11.20156 10.57303 0.02299
C 13.49997 23.46957 -0.03113
C 9.93563 11.28782 0.03542
C 10.93154 13.48647 0.01945
C 7.30558 0.03955 -0.02689
C 9.71964 32.67275 -0.01046
C 10.93842 31.96666 -0.00891
C 11.03103 30.50824 0.02819
C 9.78263 29.86967 0.00165
C 9.82119 28.46521 -0.02971
C 11.02824 27.75425 0.02894
C 11.00668 26.31994 -0.01789
C 9.80095 25.59239 0.00444
C 9.8194 24.16488 -0.00925
C 11.08683 23.48812 0.01877
C 11.02412 21.95126 0.01363
C 9.79311 21.28812 -0.02162
C 9.80542 19.86428 0.00415
C 11.08766 19.13419 -0.0014
C 11.12112 17.69411 0.02162
C 9.86938 17.11582 0.0076
C 9.87586 15.62965 0.01241
C 10.89723 14.81298 -0.01454
C 9.85516 12.71852 0.01416
C 13.45455 22.06407 0.02098
C 12.29804 21.2661 0.01848
C 12.3428 19.84257 -0.00619
C 14.92917 19.89258 -0.01581
C 15.94752 9.25017 0.01452
C 14.59456 8.72943 0.04892
C 14.67009 7.1594 -0.00111
C 15.97478 6.57155 -0.03557
C 15.93169 5.02422 0.03754
C 14.74849 4.19359 0.01739
C 14.71613 2.75184 0.00755
C 15.92365 2.04925 -0.0054
C 16.01909 0.59967 0.00667
C 14.74755 34.03559 0.00143
C 17.25143 32.50482 -0.017
C 18.4828 31.75203 0.00364
C 18.64737 30.33291 -0.00831
C 17.40363 29.59112 -0.02957
C 17.34397 28.13162 -0.04422
C 18.60959 27.32998 0.00654
C 18.58351 25.89084 -0.00703
C 17.22518 25.49559 -0.04076
C 14.78617 21.36536 0.02691
C 15.92557 22.12215 -0.01979
C 15.95359 23.48419 0.02188
C 14.67254 24.14725 -0.00316
C 13.82511 19.33264 -0.02162
C 12.78492 10.71916 0.00889
C 13.2409 9.52838 -0.00481
C 12.21894 8.50416 0.00979
C 12.22111 7.06146 0.01443
C 13.52797 6.38607 0.03505
C 13.53806 4.884 -0.02815
C 12.21292 4.26978 -0.04147
C 12.27679 2.89655 -0.05302
C 8.53832 0.78026 -0.01536
C 13.48045 2.11183 0.00213
C 12.20865 0.00398 -0.00289
C 14.76596 32.57893 0.00028
C 16.03672 31.77128 -0.02213
C 16.12457 30.30678 0.03698
C 14.82144 29.79795 -0.00109
C 14.849 28.41384 -0.00491
C 16.10129 27.60488 0.03338
C 16.02095 26.2176 -0.0258
C 14.78521 25.58358 -0.0331
C 13.49549 0.65584 -0.00066
C 17.16106 24.11767 -0.00652
C 8.55279 2.15528 0.03101
C 7.30229 4.32469 -0.02245
C 3.65422 6.44029 0.03368
C 3.65494 5.03866 -0.02929
C 2.39071 4.3384 -0.00966
C 2.3972 2.87628 -0.03337
C 3.58191 2.23084 0.01227
C 3.53061 0.73001 0.00873
C 2.27658 0.07816 -0.00049
C 4.8475 32.69781 0.00848
C 6.07513 31.99248 -0.01303
C 6.10338 30.5846 -0.01378
C 4.86299 29.91956 0.02635
C 4.88477 28.46143 0.0127
C 6.16385 27.8033 0.01396
C 6.10834 26.31164 0.01849
C 4.92252 25.56569 -0.01142
C 4.96021 24.15637 -0.00562
C 6.17948 23.44893 -0.00494
C 6.16962 22.00456 0.00054
C 4.93544 21.34631 0.03007
C 2.49678 7.17172 -0.00077
C 4.95192 19.97167 -0.00095
C 2.4412 8.58332 0.01305
C 3.66546 10.70952 0.00988
C 3.61762 30.64279 0.03828
C 2.38187 29.87365 0.01226
C 2.42619 28.40273 -0.00279
C 3.5813 27.76512 0.01996
C 3.65332 26.31732 -0.03996
C 2.43502 25.62881 0.01465
C 2.45133 24.21358 -0.00074
C 3.68916 23.48806 -0.00518
C 3.60864 22.09665 0.0086
C 2.45339 21.37611 -0.00643
C 2.47649 19.90304 0.017
C 3.74956 19.24542 -0.03113
C 3.73179 17.78989 -0.02566
C 2.49953 17.11764 -0.00094
C 2.41835 15.6937 0.02322
C 3.6787 15.03608 -0.00725
C 3.69016 13.5383 -0.05697
C 2.40615 12.82797 0.01087
C 2.46803 11.46359 -0.01343
C 3.69644 9.27934 0.0276
C 6.21534 19.25711 0.01572
C 6.18774 17.81966 -0.04848
C 4.92103 17.11703 -0.00892
C 7.37393 24.23443 -0.01634
C 8.55055 23.41692 -0.00334
C 8.61549 22.03503 0.02339
C 7.42411 21.35321 0.01641
C 7.41053 19.9161 -0.00719
C 8.61912 19.16242 0.01364
C 8.61607 17.79052 -0.01062
C 7.37008 17.12447 -0.00033
C 7.35828 15.6389 0.03589
C 8.56908 14.94752 -0.02759
C 8.55925 13.54641 0.0402
C 7.37296 12.85006 0.00572
C 7.42116 11.37408 0.03592
C 8.63039 10.62557 0.00406
C 8.62565 9.25389 0.00943
C 7.43063 8.5468 0.02841
C 7.42788 7.17997 -0.01111
C 8.58453 6.40281 -0.01275
C 8.5328 4.99821 0.00985
C 7.35881 25.71073 0.00057
C 8.61637 26.33807 0.00093
C 8.66694 27.76035 0.01291
C 7.35023 28.49848 0.00438
C 4.97646 15.72309 -0.01362
C 6.1255 14.93039 -0.0008
C 6.11766 13.55024 0.0288
C 4.88199 12.80277 0.00393
C 4.84988 11.3987 0.00895
C 6.12693 10.72458 0.00685
C 6.13464 9.29806 0.02888
C 4.85395 8.55577 -0.00482
C 4.94755 7.13252 -0.01384
C 7.32737 2.91272 -0.00428
C 6.16304 6.50214 0.03693
C 4.8756 4.30313 0.00488
C 4.8642 2.85478 -0.01004
C 6.09047 2.16423 -0.02896
C 6.05073 0.7312 -0.00131
C 4.82601 0.04498 -0.01118
C 7.28045 32.70153 -0.014
C 8.54024 32.00586 0.02147
C 8.56637 30.60392 0.00373
C 7.31376 29.88581 -0.00191
C 6.11373 5.05957 0.01745
C 18.44858 23.47835 0.0058
C 18.41995 22.0628 -0.00865
C 17.21488 21.24318 0.00675
C 30.72336 2.26231 0.00716
C 30.71722 0.83355 0.00307
C 29.4123 0.03755 0.00346
C 31.95319 32.75738 0.01713
C 33.07497 31.91206 -0.01694
C 33.00147 30.45216 0.01428
C 31.75155 29.77851 -0.02142
C 31.86775 28.28557 0.0544
C 33.24481 27.75774 0.00026
C 33.19658 26.36052 0.00682
C 31.79931 25.96159 -0.01779
C 31.80079 24.43361 0.03794
C 33.16505 23.58791 0.01927
C 33.11268 22.19223 0.01574
C 31.9 21.35766 -0.02383
C 31.9148 19.89281 -0.01429
C 33.12201 19.166 -0.0136
C 33.19798 17.72312 0.00594
C 31.91203 17.03057 -0.02474
C 29.49149 2.85913 0.02108
C 31.9622 15.63119 0.00369
C 29.5461 4.3109 0.0103
C 30.74043 6.40209 0.01908
C 30.56435 30.57276 0.00261
C 29.06102 30.28656 0.03265
C 31.03502 27.04506 -0.02049
C 30.73265 23.61641 -0.01854
C 30.68485 22.15956 -0.01415
C 29.57458 21.1934 -0.03039
C 29.4975 19.81455 0.01836
C 30.74463 19.12782 0.03531
C 30.65044 17.75802 -0.00669
C 29.35596 17.00191 0.0101
C 29.40779 15.62587 0.01705
C 30.65912 14.90961 -0.0405
C 30.70234 13.52893 -0.01303
C 29.45228 12.77117 -0.01461
C 29.51339 11.37987 -0.02155
C 30.78238 10.68295 -0.00944
C 30.77807 9.20809 -0.03735
C 29.55357 8.5634 -0.00971
C 29.54452 7.17823 0.01518
C 30.74621 5.01056 0.07705
C 33.15209 14.90799 0.00455
C 33.18588 13.53184 -0.00644
C 32.00726 12.78776 -0.01839
C 34.33897 19.97023 0.01951
C 1.23202 19.26532 -0.01678
C 1.18651 17.82965 0.01223
C 34.41473 17.0327 0.00648
C 34.39813 15.6001 0.02114
C 1.13251 14.85843 -0.02957
C 1.18269 13.4919 0.00343
C 0.00129 12.82738 -0.02656
C 0.01709 11.3961 -0.02442
C 1.23163 10.65283 -0.00027
C 1.20318 9.27184 -0.00583
C 34.42153 8.56116 -0.02302
C 0.00221 7.15299 -0.02849
C 1.22299 6.46147 0.02931
C 1.15433 4.97538 0.00628
C 34.39471 4.30202 -0.0345
C 34.36122 2.83886 -0.00931
C 1.09168 2.18225 -0.00939
C 1.02061 0.77306 -0.00468
C 34.30972 21.44799 -0.02213
C 1.13389 22.08509 0.02712
C 1.20213 23.50203 0.00723
C 34.40003 24.20664 0.03076
C 32.02224 11.43519 0.00137
C 33.21949 10.67524 0.00199
C 33.24488 9.26201 0.04381
C 31.99393 8.5659 0.02806
C 31.97478 7.11663 0.01504
C 33.22047 6.40556 -0.00069
C 33.25237 4.98112 0.04926
C 32.01709 4.36896 -0.03838
C 31.92406 2.91681 0.00349
C 30.70771 32.03653 0.02326
C 33.13258 2.12754 -0.00323
C 31.88265 0.04656 0.0001
C 34.36572 32.66105 -0.02927
C 1.13366 31.93495 -0.01404
C 1.05831 30.5402 0.01027
C 34.26713 29.84642 0.01831
C 0.0206 28.46352 -0.01037
C 1.20233 27.78948 -0.00439
C 1.19108 26.3301 -0.00598
C 34.37321 25.58211 -0.05239
C 33.1292 0.69444 -0.00841
C 29.49209 32.61288 0.00924
C 26.94555 33.98162 0.0014
C 28.1709 0.71391 0.01324
C 19.64559 8.38983 0.02239
C 19.69856 7.03102 0.01153
C 20.97298 6.28502 0.02734
C 20.8599 4.85915 -0.0055
C 19.59046 4.20913 0.01515
C 19.67284 2.77121 -0.00225
C 20.93197 2.04464 0.00071
C 20.89444 0.69453 -0.01107
C 19.57528 34.00613 -0.01586
C 22.09145 32.62839 -0.01971
C 23.27995 31.85661 -0.02118
C 21.35751 16.59859 0.00733
C 22.31719 15.59831 -0.00178
C 23.55146 14.91907 0.00768
C 23.3356 13.42203 -0.0276
C 22.06946 12.70884 0.03005
C 21.90149 11.30434 -0.04078
C 23.17088 10.59966 0.02117
C 23.26891 9.19687 0.02737
C 20.81714 9.09177 -0.03213
C 20.74243 10.40411 -0.02845
C 21.16058 17.88553 0.03374
C 19.86548 18.71611 0.0296
C 16.86508 19.90788 -0.00311
C 18.55197 9.23362 0.00742
C 17.2466 8.59528 -0.01594
C 17.2082 7.15448 0.0106
C 18.48372 6.37636 -0.01154
C 18.4005 5.00349 -0.01721
C 17.15994 4.2216 -0.02422
C 17.14525 2.78365 0.01277
C 18.38846 2.10901 0.00096
C 22.08335 8.38299 -0.00498
C 18.35084 0.62926 -0.01527
C 19.58922 32.56954 0.00199
C 20.86748 31.83585 0.01511
C 21.02468 30.47788 -0.00478
C 19.85425 29.60536 -0.01662
C 19.83339 28.14746 -0.01185
C 19.41315 24.35034 0.01126
C 20.90095 22.2176 0.01852
C 19.66678 21.53216 -0.00381
C 19.80131 20.03782 0.03046
C 17.17101 33.9901 0.01087
C 3.58027 32.0415 0.0174
C 22.1415 6.97082 0.00135
C 23.2855 4.95521 0.02555
C 27.10487 32.50984 0.00826
C 28.39004 31.75006 -0.00294
C 28.26705 19.10571 0.00152
C 28.03189 17.69436 0.01257
C 26.65149 16.95487 0.02316
C 27.06736 15.5764 0.04185
C 28.24386 14.90085 0.00194
C 28.23819 13.47517 -0.00621
C 26.99079 12.7509 0.02611
C 26.9346 11.40209 0.02198
C 28.21414 10.73213 0.01094
C 28.22453 9.29521 0.00235
C 27.01469 8.501 0.01495
C 27.07041 7.03785 0.01259
C 28.34331 6.45867 0.01799
C 28.28772 5.04137 0.01699
C 26.97307 4.28159 -0.00416
C 27.02908 2.83206 0.01177
C 28.24068 2.17215 0.04266
C 24.50982 33.90977 0.00487
C 25.78102 0.64741 -0.00942
C 25.83003 2.11138 -0.02815
C 24.62754 2.82622 0.00622
C 22.08429 4.17389 0.01423
C 22.19289 2.81751 -0.00285
C 23.46506 2.0725 -0.009
C 23.34673 0.66169 -0.01199
C 22.14832 34.0564 -0.00229
C 24.56711 32.50645 -0.00938
C 25.82823 31.95613 -0.0264
C 25.22408 17.09861 -0.01154
C 24.74177 15.72445 0.00684
C 23.4203 6.41715 0.03102
C 25.89541 14.81458 -0.01052
C 24.54325 12.6996 0.00367
C 24.38864 11.33673 0.04306
C 25.69341 10.61675 0.00996
C 25.74832 9.21019 0.00195
C 24.54373 8.54656 -0.00802
C 24.6211 7.15493 -0.00218
C 25.83138 6.38052 -0.01654
C 25.74695 4.99863 -0.00037
C 24.47801 4.2541 -0.0032
C 25.72076 13.43221 -0.01679
C 2.3354 32.7001 0.0073
