327
Graphene
C 0.0383 0.03369 0.01295
C 13.56094 0.67402 0.00213
C 12.25769 0.0935 -0.00066
C 14.82892 32.66804 -0.00289
C 15.98211 31.94044 0.00028
C 14.76063 19.87925 -0.02213
C 16.00912 19.19319 0.03698
C 15.9136 17.6745 -0.00109
C 13.48723 2.11629 -0.05302
C 14.71063 16.89339 -0.00491
C 15.9869 14.87908 -0.0258
C 16.04211 13.51641 -0.0331
C 14.79695 12.73951 -0.00316
C 14.80659 11.34424 0.02188
C 16.05071 10.6595 -0.01979
C 15.94399 9.31626 0.02691
C 14.76594 8.51627 -0.01581
C 14.74507 15.49921 0.03338
C 12.23195 2.78605 -0.04147
C 12.33923 4.18259 -0.02815
C 13.47909 4.94188 0.03505
C 9.81354 2.85786 -0.0108
C 11.06841 2.09439 -0.00368
C 11.01136 0.71599 -0.02696
C 9.74079 0.08694 -0.00114
C 13.65738 19.25813 0.00228
C 13.53897 17.78419 0.00798
C 12.28393 17.09433 0.00422
C 12.30879 15.6262 0.0351
C 13.50252 14.90183 -0.03113
C 13.53951 13.47031 0.02098
C 12.33529 12.8116 0.01848
C 12.29764 11.44369 -0.00619
C 13.50484 10.68344 -0.02162
C 13.49784 9.30223 0.00889
C 12.3118 8.45568 -0.00481
C 12.3245 7.08772 0.00979
C 13.56208 6.41579 0.01443
C 14.84956 7.09978 0.01452
C 9.80679 4.21189 -0.01957
C 15.99376 6.41992 0.04892
C 14.77639 4.21034 -0.03557
C 18.37434 13.44917 0.0106
C 17.22778 12.75786 -0.01154
C 17.30051 11.37603 -0.01721
C 18.45028 10.67557 -0.02422
C 18.44176 9.25185 0.01277
C 17.16182 8.62506 0.00096
C 17.19272 7.12959 -0.01527
C 18.43792 14.8238 -0.01594
C 18.45027 6.35836 0.01087
C 17.22558 4.30818 0.01511
C 17.20599 2.81314 -0.00478
C 18.41094 2.14702 -0.01662
C 18.42806 0.73662 -0.01185
C 17.23378 34.04723 0.01126
C 19.71803 32.72411 0.01852
C 20.94763 31.87608 -0.00381
C 18.4574 4.96413 0.00199
C 17.2436 15.58906 0.00742
C 17.24971 16.97614 -0.00311
C 18.38324 17.75084 0.00675
C 14.74417 2.80059 0.03754
C 16.01423 2.06241 0.01739
C 16.0301 0.65147 0.00755
C 14.7424 0.02377 -0.0054
C 17.18211 32.63292 0.00667
C 18.42239 31.9745 0.00143
C 18.3482 30.60263 -0.017
C 17.19819 29.85587 0.00364
C 17.22978 28.51215 -0.00831
C 18.47473 27.64414 -0.02957
C 18.55711 26.24197 -0.04422
C 17.26774 24.20004 0.00654
C 18.40485 23.47476 -0.00703
C 18.47494 22.02995 -0.04076
C 17.26456 21.29599 -0.00652
C 17.22989 19.85302 0.0058
C 18.41299 19.13208 -0.00865
C 15.97419 4.96231 -0.00111
C 20.93818 30.53568 0.03046
C 11.03238 4.95945 0.02058
C 9.78856 7.11621 -0.03682
C 3.64574 4.99689 0.00438
C 2.45929 4.24635 0.01291
C 2.40055 2.85113 0.00093
C 3.67274 2.15022 0.00057
C 3.72641 0.69065 -0.01634
C 2.46229 34.06821 -0.00334
C 4.89697 32.59753 0.02339
C 3.64596 6.37096 -0.00191
C 4.84884 21.34301 0.01641
C 6.10838 19.13826 0.01364
C 6.18603 17.76663 -0.01062
C 4.97608 17.06589 -0.00033
C 4.88394 15.68 0.03589
C 6.16488 14.87268 -0.02759
C 6.11098 13.49311 0.0402
C 4.87835 12.79687 0.00572
C 4.98083 19.95985 -0.00719
C 2.45662 7.03488 0.00373
C 2.4316 8.53359 0.02147
C 3.64837 9.24341 -0.014
C 3.62659 30.53532 -0.00892
C 2.46892 29.82229 -0.01362
C 2.40446 28.48343 -0.0008
C 2.48104 25.44121 0.0288
C 2.46306 24.24414 0.00393
C 3.78013 21.99162 0.00895
C 2.46344 21.35398 0.00685
C 2.40534 19.96161 0.02888
C 3.70014 19.19987 -0.00482
C 3.68458 17.72432 -0.01384
C 2.41134 17.02368 0.03693
C 2.40779 15.64785 0.01745
C 3.71297 14.86946 0.00488
C 3.73265 13.52032 -0.01004
C 2.43342 12.78594 -0.02896
C 2.54064 11.35186 -0.00131
C 3.69152 10.63735 -0.01118
C 4.84719 11.34491 0.03592
C 11.03368 6.47825 0.01965
C 6.12913 10.6685 0.00406
C 4.9409 8.50014 0.02841
C 8.58861 5.00211 -0.0014
C 7.44708 4.23938 0.02162
C 7.35249 2.78245 0.0076
C 8.65245 2.10363 0.01241
C 8.50419 0.59883 -0.01454
C 7.29589 0.12666 0.01945
C 11.01237 17.82279 0.01416
C 8.59675 6.39967 0.00415
C 9.90865 17.10019 0.03542
C 11.09182 14.82496 0.00244
C 11.12459 13.47723 -0.01717
C 9.87732 12.82547 0.05265
C 9.83104 11.39627 -0.01952
C 11.04792 10.63988 -0.02813
C 11.0132 9.15811 0.00374
C 9.8073 8.50263 0.00052
C 9.90689 15.62321 0.02299
C 7.38893 7.08252 -0.02162
C 7.38916 8.55267 0.01363
C 8.61254 9.29717 0.01877
C 4.87695 7.11637 -0.01111
C 6.19776 6.38203 -0.01275
C 6.23414 4.97801 0.00985
C 4.955 4.31293 -0.02245
C 4.87657 2.7441 -0.00428
C 6.11387 2.1017 0.03101
C 6.08033 0.70813 -0.01536
C 4.852 33.99177 -0.02689
C 8.62356 19.16762 -0.01046
C 8.59776 17.8066 -0.00891
C 7.3738 17.06824 0.02819
C 7.40608 15.56795 0.00165
C 8.62105 14.95333 -0.02971
C 8.608 13.53075 0.02894
C 7.40409 12.80999 -0.01789
C 7.35286 11.35875 0.00444
C 8.60263 10.66388 -0.00925
C 6.18847 9.26963 0.00943
C 3.69702 31.92454 -0.04848
C 19.66291 29.85335 0.0296
C 19.64374 25.54171 -0.02845
C 33.22623 30.60916 0.00682
C 33.21976 27.64653 -0.01779
C 33.27418 26.43117 0.03794
C 33.18586 23.53264 0.01927
C 33.14833 22.08819 0.01574
C 32.02089 21.29259 -0.02383
C 31.91505 19.90158 -0.01429
C 33.21483 31.98895 0.00026
C 33.2148 19.15613 -0.0136
C 31.99045 17.01774 -0.02474
C 31.95403 15.65223 0.00369
C 33.182 14.94335 0.00455
C 33.21669 13.48852 -0.00644
C 31.89275 12.78767 -0.01839
C 31.92243 11.41429 0.00137
C 33.17837 10.62346 0.00199
C 33.23074 17.72108 0.00594
C 31.91968 32.69099 0.0544
C 29.47448 34.07192 -0.02142
C 30.80734 0.76422 0.01428
C 30.7623 19.12327 -0.0405
C 30.72872 17.76148 -0.01303
C 29.4538 17.03544 -0.01461
C 29.52125 15.61854 -0.02155
C 30.72744 14.96245 -0.00944
C 30.62695 13.49142 -0.03735
C 29.44573 12.7708 -0.00971
C 29.48057 11.29911 0.01518
C 30.74211 10.70179 0.01908
C 30.68027 9.24497 0.07705
C 29.51473 8.53911 0.0103
C 29.53368 7.07407 0.02108
C 30.72095 6.38431 0.00716
C 30.72686 4.97936 0.00307
C 29.58466 4.24451 0.00346
C 29.53414 2.9025 0.01713
C 30.73959 2.13104 -0.01694
C 33.17612 9.22933 0.04381
C 29.51417 19.84254 0.01705
C 31.88524 8.58397 0.02806
C 33.23608 6.38656 -0.00069
C 0.00953 16.98161 0.00648
C 0.04931 15.5748 0.02114
C 1.21642 14.93228 -0.02957
C 1.21442 13.51879 0.00343
C 0.02168 12.78325 -0.02656
C 34.39904 11.33991 -0.02442
C 1.22773 10.65517 -0.00027
C 1.19995 17.78031 0.01223
C 1.25768 9.28727 -0.00583
C 0.01002 7.01235 -0.02849
C 1.26593 6.3368 0.02931
C 1.23375 4.96774 0.00628
C 34.41656 4.28384 -0.0345
C 0.00401 2.78023 -0.00931
C 1.19511 2.13513 -0.00939
C 1.29486 0.67285 -0.00468
C 34.38199 8.46939 -0.02302
C 1.18107 19.20452 -0.01678
C 34.39366 19.86546 0.01951
C 34.39601 21.33331 -0.02213
C 33.19244 4.97644 0.04926
C 31.99056 4.20672 -0.03838
C 32.01111 2.82449 0.00349
C 33.20888 2.14911 -0.00323
C 33.27183 0.68952 -0.00841
C 31.97309 34.01119 0.0001
C 0.02848 32.67893 -0.02927
C 1.26887 31.92348 -0.01404
C 1.16707 30.53855 0.01027
C 34.41747 29.81983 0.01831
C 34.40648 28.41792 -0.01037
C 1.22818 27.71839 -0.00439
C 1.28214 26.34445 -0.00598
C 34.41039 25.58517 -0.05239
C 0.02268 24.22129 0.03076
C 1.20257 23.47194 0.00723
C 1.21117 22.03178 0.02712
C 31.96098 7.09956 0.01504
C 19.70202 28.47691 0.03374
C 30.707 32.00438 0.0101
C 27.01561 34.03527 0.03531
C 20.90625 2.17046 0.00135
C 20.91321 0.72075 0.03102
C 19.71157 0.06867 0.02555
C 22.07501 32.58119 0.01423
C 22.07201 21.23947 -0.00285
C 22.13821 19.87393 -0.009
C 23.43736 19.18407 -0.01199
C 19.6041 2.82143 -0.00498
C 23.30183 17.7622 -0.00229
C 22.12412 15.58305 -0.0264
C 23.33835 14.89945 -0.01154
C 23.34796 13.42887 0.00684
C 22.12143 12.83923 -0.01052
C 22.13867 11.39321 -0.01679
C 23.38432 10.65705 0.00367
C 23.36632 9.22225 0.04306
C 22.06462 17.01042 -0.00938
C 19.62214 4.27674 0.02737
C 20.90011 4.98572 0.02117
C 20.93352 6.35393 -0.04078
C 19.70245 24.12879 -0.03213
C 20.84933 23.50765 0.02239
C 20.96824 22.07619 0.01153
C 19.66878 21.34272 0.02734
C 19.62719 19.89642 -0.0055
C 20.8553 19.18112 0.01515
C 20.89842 17.80205 -0.00225
C 19.68522 17.04783 0.00071
C 19.68904 15.61544 -0.01107
C 20.87864 14.87515 -0.01586
C 20.87286 13.47236 -0.01971
C 19.64975 12.80335 -0.02118
C 19.64948 11.43111 0.00733
C 20.90571 10.59244 -0.00178
C 20.89606 9.18732 0.00768
C 19.60321 8.50853 -0.0276
C 19.66173 7.12153 0.03005
C 22.17649 8.52036 0.00996
C 29.5235 32.53862 -0.00669
C 22.08629 7.10119 0.00195
C 23.36631 4.96289 -0.00218
C 24.57844 34.02487 0.01799
C 27.00777 19.87242 0.01699
C 28.31464 19.16292 -0.00416
C 28.29071 17.72981 0.01177
C 27.07604 17.04303 0.04266
C 27.06184 15.59725 0.01324
C 28.3104 14.84351 0.0014
C 25.80394 0.61916 0.01259
C 28.24527 13.46418 0.00924
C 27.07446 11.34092 0.00261
C 28.3197 10.59346 0.03265
C 28.24851 9.23203 -0.02049
C 26.96727 8.53351 -0.01854
C 26.9866 2.80152 -0.01415
C 28.26565 2.07676 -0.03039
C 28.22022 0.69125 0.01836
C 27.08369 12.73877 0.02326
C 25.84123 2.18964 0.01495
C 24.47421 2.86164 0.00235
C 24.53888 7.05683 0.01094
C 22.17749 4.26251 -0.01654
C 22.1401 2.81789 -0.00037
C 23.42236 2.08798 -0.0032
C 23.42661 0.62811 0.00622
C 22.17547 34.03856 -0.02815
C 24.58187 19.87085 -0.00942
C 25.84666 19.11452 0.00487
C 25.77661 17.68908 0.00826
C 24.54669 17.0665 -0.00294
C 24.6602 15.56294 0.00152
C 25.90874 14.84647 0.01257
C 25.81396 13.43009 0.02316
C 24.57594 12.75521 0.04185
C 24.61057 11.36126 0.00194
C 25.82722 10.63787 -0.00621
C 25.86595 9.24022 0.02611
C 24.5731 8.49167 0.02198
C 23.39583 6.4035 -0.00802
C 2.49199 32.66302 0.01572
