388
Graphene
C 34.37002 0.02969 0.01295
C 9.84535 4.36018 -0.02162
C 9.89767 2.86738 0.00415
C 11.09774 2.16992 -0.0014
C 11.12671 0.76133 0.02162
C 9.82876 0.04669 0.0076
C 12.30768 32.58926 0.01241
C 13.52874 31.88475 -0.01454
C 12.3088 29.73814 0.01945
C 12.01798 21.21123 0.01416
C 11.07566 5.08975 0.01363
C 12.46921 19.89244 0.03542
C 13.5682 17.78081 0.00244
C 12.34091 17.01745 -0.01717
C 12.25232 15.62075 0.05265
C 13.55388 14.84605 -0.01952
C 13.47169 13.4836 -0.02813
C 12.28226 12.72408 0.00374
C 12.32575 11.25929 0.00052
C 13.44951 10.54637 -0.03682
C 13.56115 9.1237 0.01965
C 13.58902 19.05266 0.02299
C 12.27642 8.51165 0.02058
C 11.01431 6.45174 0.01877
C 9.85876 8.64166 0.00444
C 9.8553 29.85853 0.00572
C 9.91154 28.46731 0.03592
C 11.0463 27.71883 0.00406
C 10.97459 26.40313 0.00943
C 9.82546 25.63294 0.02841
C 9.87739 24.22117 -0.01111
C 11.10496 23.56628 -0.01275
C 11.23069 22.15509 0.00985
C 9.90555 21.22437 -0.02245
C 9.79434 7.22615 -0.00925
C 9.83025 19.80952 -0.00428
C 11.18278 17.77551 -0.01536
C 9.9072 17.00482 -0.02689
C 9.85669 15.61904 -0.01046
C 11.10889 14.88132 -0.00891
C 11.0654 13.35777 0.02819
C 9.79467 12.76459 0.00165
C 9.85184 11.33482 -0.02971
C 11.01477 10.60262 0.02894
C 11.01351 9.22795 -0.01789
C 11.13099 19.12578 0.03101
C 12.2044 7.11516 -0.01957
C 13.5047 6.37012 -0.0108
C 13.51296 5.03976 -0.00368
C 18.3793 17.52199 -0.00109
C 17.12385 17.12925 -0.00491
C 17.15599 15.56339 0.03338
C 18.37371 14.92911 -0.0258
C 18.38032 13.47137 -0.0331
C 17.14852 12.78123 -0.00316
C 17.24482 11.41307 0.02188
C 18.49364 10.63606 -0.01979
C 18.46529 9.25694 0.02691
C 17.30121 32.63884 0.03698
C 17.23054 8.51654 -0.01581
C 18.40778 6.39384 0.04892
C 18.41189 4.91494 -0.00111
C 17.17619 4.17027 -0.03557
C 17.23977 2.79263 0.03754
C 18.49661 2.13856 0.01739
C 18.49384 0.67771 0.00755
C 17.23838 34.01347 -0.0054
C 19.58583 32.78011 0.00667
C 20.87231 17.82793 0.00143
C 17.21704 7.04812 0.01452
C 14.7422 33.97906 -0.02213
C 15.88571 0.6507 0.00028
C 16.02264 2.048 -0.00289
C 12.28811 4.34492 -0.02696
C 12.33239 2.89794 -0.00114
C 13.54659 2.127 0.00228
C 13.56184 0.6893 0.00798
C 12.37873 34.06543 0.00422
C 14.54259 32.62163 0.0351
C 15.96552 17.75539 -0.03113
C 14.76665 17.04986 0.02098
C 14.74492 15.6671 0.01848
C 15.94108 14.9265 -0.00619
C 15.92266 13.4807 -0.02162
C 14.69456 12.74807 0.00889
C 14.77511 11.28777 -0.00481
C 16.01174 10.63668 0.00979
C 15.95368 9.22376 0.01443
C 14.79922 8.47766 0.03505
C 14.74382 7.11249 -0.02815
C 15.97673 6.31042 -0.04147
C 15.92462 4.89444 -0.05302
C 14.73529 4.27112 0.00213
C 14.80488 2.83773 -0.00066
C 11.12308 30.54014 0.0402
C 19.64989 17.229 -0.017
C 11.07143 32.04595 -0.02759
C 7.38354 0.11894 -0.00033
C 3.62108 5.05638 0.0086
C 2.44522 4.22142 -0.00643
C 2.43851 2.87524 0.017
C 3.68285 2.12413 -0.03113
C 3.61381 0.72221 -0.02566
C 2.40718 0.0384 -0.00094
C 4.92236 32.75277 0.02322
C 6.21078 32.02903 -0.00725
C 6.13997 30.61366 -0.05697
C 3.60795 6.46847 -0.00518
C 4.94024 29.81652 0.01087
C 6.18395 27.75503 0.00988
C 6.10275 26.32642 0.0276
C 4.87881 25.56762 0.01305
C 4.85821 24.20539 -0.00077
C 6.1006 23.48677 0.03368
C 6.1621 22.01151 -0.02929
C 4.8839 21.36185 -0.00966
C 4.9298 19.86503 -0.03337
C 6.21644 19.18653 0.01227
C 4.92358 28.44411 -0.01343
C 6.13646 17.78163 0.00873
C 2.39919 7.13749 -0.00074
C 3.60132 9.23129 -0.03996
C 3.72299 30.55498 0.04505
C 2.4844 29.84936 0.03284
C 2.50733 28.38534 -0.04307
C 3.70714 27.69451 0.03189
C 3.71089 26.2692 0.00031
C 2.3991 25.5161 -0.003
C 2.37653 24.13742 0.01402
C 3.60825 23.46124 0.02379
C 3.71672 22.08034 0.00907
C 2.33926 8.52645 0.01465
C 2.45528 21.35652 0.00643
C 3.74598 19.25504 0.03267
C 3.69618 17.76707 0.02374
C 2.47496 17.06961 0.00402
C 2.47287 15.65991 0.0073
C 3.65819 14.91092 0.0174
C 3.58801 13.51715 0.03828
C 2.355 12.7075 0.01226
C 2.41653 11.28045 -0.00279
C 3.71939 10.73045 0.01996
C 2.53532 19.91709 -0.01509
C 4.93241 17.00656 -0.00049
C 4.91833 15.63288 0.00848
C 6.04449 14.90004 -0.01303
C 7.39645 21.33343 0.00488
C 7.42409 19.83358 -0.01004
C 8.61306 19.09047 -0.02896
C 8.60191 17.61529 -0.00131
C 7.35016 16.95997 -0.01118
C 7.42712 15.63436 -0.014
C 8.67264 14.9398 0.02147
C 8.63263 13.49603 0.00373
C 7.35679 12.83622 -0.00191
C 8.66267 22.11118 0.01745
C 7.33168 11.45018 0.00438
C 8.54242 9.35113 0.00093
C 7.34614 8.50993 0.00057
C 7.38197 7.10987 -0.01634
C 8.60646 6.44405 -0.00334
C 8.62679 5.00027 0.02339
C 7.35339 4.34102 0.01641
C 7.37956 2.8868 -0.00719
C 8.57303 2.21853 0.01364
C 8.59461 0.75902 -0.01062
C 8.5012 10.72927 0.01291
C 8.55424 23.49814 0.03693
C 7.34025 24.19997 -0.01384
C 7.25227 25.66674 -0.00482
C 6.04878 13.47841 -0.01378
C 4.89237 12.78918 0.02635
C 4.91876 11.36977 0.0127
C 6.13887 10.69434 0.01396
C 6.13675 9.26056 0.01849
C 4.86118 8.61755 -0.01142
C 4.88954 7.21213 -0.00562
C 6.07044 6.47789 -0.00494
C 6.10712 5.03741 0.00054
C 4.84858 4.27005 0.03007
C 4.88616 2.8991 -0.00095
C 6.115 2.20728 0.01572
C 6.12493 0.7431 -0.04848
C 4.84505 0.07248 -0.00892
C 7.40758 32.72908 -0.01362
C 8.60649 32.00491 -0.0008
C 8.591 30.50529 0.0288
C 7.40079 29.83231 0.00393
C 7.39134 28.43931 0.00895
C 8.65446 27.74662 0.00685
C 8.56408 26.38074 0.02888
C 9.90859 32.69756 0.03589
C 19.62964 15.58077 0.00364
C 20.86225 14.91105 -0.00831
C 20.88682 13.49311 -0.02957
C 30.70565 5.0143 0.07705
C 29.52351 4.28725 0.0103
C 29.47027 2.83142 0.02108
C 30.71675 2.10888 0.00716
C 30.77954 0.7292 0.00307
C 29.55629 0.02409 0.00346
C 31.92505 32.5825 0.01713
C 33.17938 31.91423 -0.01694
C 33.24779 30.48978 0.01428
C 30.72121 6.43771 0.01908
C 31.97165 29.67879 -0.02142
C 33.1728 27.55035 0.00026
C 33.24487 26.16937 0.00682
C 31.98427 25.55638 -0.01779
C 31.92476 24.15048 0.03794
C 33.12498 23.46395 0.01927
C 33.18983 22.04727 0.01574
C 31.97959 21.28986 -0.02383
C 32.04104 19.8364 -0.01429
C 33.28343 19.21205 -0.0136
C 31.9467 28.28416 0.0544
C 33.26777 17.85885 0.00594
C 29.3905 7.14179 0.01518
C 30.68918 9.32432 -0.03735
C 30.73241 30.41734 0.01324
C 29.51995 29.72232 0.0014
C 29.42443 28.37828 0.00924
C 30.7156 27.64737 0.02326
C 30.72118 26.19109 0.00261
C 29.48649 25.55116 0.03265
C 29.51851 24.11335 -0.02049
C 30.73804 23.40957 -0.01854
C 30.72756 22.02696 -0.01415
C 29.43036 8.5987 -0.00971
C 29.51952 21.24415 -0.03039
C 30.74252 19.14401 0.03531
C 30.79636 17.77184 -0.00669
C 29.54829 16.99392 0.0101
C 29.52088 15.62344 0.01705
C 30.75007 14.90996 -0.0405
C 30.69026 13.51607 -0.01303
C 29.44836 12.79346 -0.01461
C 29.4377 11.40128 -0.02155
C 30.68804 10.75959 -0.00944
C 29.52614 19.86052 0.01836
C 32.01944 17.02878 -0.02474
C 31.98694 15.6348 0.00369
C 33.18272 14.94907 0.00455
C 0.02015 21.35024 -0.02213
C 0.08021 19.88934 0.01951
C 1.29654 19.17552 -0.01678
C 1.28849 17.8115 0.01223
C 0.05916 17.05296 0.00648
C 0.01648 15.64191 0.02114
C 1.22824 14.90678 -0.02957
C 1.17671 13.5214 0.00343
C 34.3845 12.78035 -0.02656
C 1.22161 22.0292 0.02712
C 34.41536 11.34006 -0.02442
C 1.10926 9.1863 -0.00583
C 34.29952 8.48215 -0.02302
C 34.35318 7.10476 -0.02849
C 1.17743 6.36427 0.02931
C 1.23334 5.01442 0.00628
C 34.40937 4.28402 -0.0345
C 34.40989 2.89964 -0.00931
C 1.18332 2.147 -0.00939
C 1.17068 0.74651 -0.00468
C 1.26573 10.55317 -0.00027
C 1.14814 23.37919 0.00723
C 34.36821 24.09943 0.03076
C 0.06555 25.54311 -0.05239
C 33.1519 13.54834 -0.00644
C 31.97375 12.84897 -0.01839
C 31.97107 11.48836 0.00137
C 33.20691 10.70093 0.00199
C 33.12126 9.3182 0.04381
C 31.91591 8.62124 0.02806
C 31.92957 7.14113 0.01504
C 33.12182 6.39445 -0.00069
C 33.13043 4.99005 0.04926
C 31.93662 4.31061 -0.03838
C 31.93188 2.88358 0.00349
C 33.19548 2.22264 -0.00323
C 33.20099 0.73724 -0.00841
C 31.99649 34.07529 0.0001
C 34.37413 32.71038 -0.02927
C 1.21714 31.9706 -0.01404
C 1.26971 30.50255 0.01027
C 34.42935 29.782 0.01831
C 34.41665 28.37176 -0.01037
C 1.22513 27.69277 -0.00439
C 1.25435 26.25178 -0.00598
C 30.66734 31.8823 0.04266
C 29.5017 32.64107 0.01177
C 27.05395 0.0057 -0.00416
C 28.28783 0.74259 0.01699
C 23.31166 9.23328 0.01852
C 22.1576 8.45124 -0.00381
C 22.1328 7.06352 0.03046
C 23.35988 6.34002 0.0296
C 23.41686 4.94054 0.03374
C 22.15006 4.2474 -0.02845
C 22.19323 2.87794 -0.03213
C 23.40988 2.10247 0.02239
C 23.37778 0.73906 0.01153
C 23.44616 10.681 0.01126
C 22.16175 0.00163 0.02734
C 25.82037 31.90047 0.01515
C 25.8277 30.48087 -0.00225
C 24.65384 29.89893 0.00071
C 25.67139 27.57093 -0.01107
C 25.73656 26.32598 -0.01586
C 25.88858 23.35968 -0.01971
C 25.77817 22.04475 -0.02118
C 24.83176 21.16628 0.00733
C 24.53141 19.90445 -0.00178
C 24.51088 32.65507 -0.0055
C 22.17899 11.30872 -0.01185
C 22.04421 12.77581 -0.01662
C 23.2848 13.47798 -0.00478
C 19.64788 12.75087 -0.04422
C 19.77672 11.35498 0.00654
C 20.95111 10.55329 -0.00703
C 20.92123 9.14217 -0.04076
C 19.65435 8.44362 -0.00652
C 19.68574 7.0229 0.0058
C 20.93601 6.34687 -0.00865
C 20.8558 4.9098 0.00675
C 19.67186 4.2313 -0.00311
C 19.74673 2.81746 0.00742
C 20.96801 2.16927 -0.01594
C 20.95654 0.73187 0.0106
C 19.7296 0.00713 -0.01154
C 22.12428 32.55117 -0.01721
C 23.22183 31.8408 -0.02422
C 23.50981 30.42503 0.01277
C 23.38976 19.13659 0.00096
C 23.32589 17.76899 -0.01527
C 22.0274 17.18661 0.01087
C 22.08577 15.69564 0.00199
C 23.34192 14.88537 0.01511
C 25.88971 19.16992 0.00768
C 3.64765 31.98197 -0.04999
C 25.81842 17.68299 -0.0276
C 24.65552 15.62958 -0.04078
C 28.29435 21.9979 -0.0032
C 27.12191 21.29624 0.00622
C 27.0442 19.92386 -0.02815
C 28.35147 19.17351 -0.00942
C 28.30404 17.71666 0.00487
C 27.09383 17.10786 0.00826
C 27.06442 15.65167 -0.00294
C 28.37133 14.87928 0.00152
C 28.21971 13.50353 0.01257
C 28.27261 23.47905 -0.00037
C 27.02835 12.80278 0.02316
C 28.2309 10.65256 0.00194
C 28.22297 9.23503 -0.00621
C 26.99405 8.45947 0.02611
C 26.95615 7.08232 0.02198
C 28.25977 6.37456 0.01094
C 28.25296 4.90333 0.00235
C 27.02079 4.23568 0.01495
C 27.00236 2.84382 0.01259
C 28.23898 2.12196 0.01799
C 26.9862 11.38678 0.04185
C 27.02233 24.11382 -0.01654
C 26.89722 25.49009 -0.00218
C 28.15869 26.23757 -0.00802
C 25.91894 14.94756 0.02117
C 25.76816 13.55839 0.02737
C 24.52818 12.81465 -0.00498
C 24.56548 11.33662 0.00135
C 25.80248 10.61387 0.03102
C 25.79742 9.22841 0.02555
C 24.53842 8.517 0.01423
C 24.52244 7.0374 -0.00285
C 25.78792 6.41607 -0.009
C 25.82095 5.05965 -0.01199
C 24.58703 4.25454 -0.00229
C 24.60273 2.83161 -0.00938
C 25.79903 2.05079 -0.0264
C 25.81509 0.67233 -0.01154
C 24.50835 34.05069 0.00684
C 27.00068 32.63696 -0.01052
C 28.23828 31.91342 -0.01679
C 28.24356 30.46129 0.00367
C 27.00167 29.69928 0.04306
C 26.9304 28.27403 0.00996
C 28.20662 27.59469 0.00195
C 24.53898 17.01652 0.03005
C 2.40275 32.64892 -0.03291
