390
Graphene
C 34.34249 34.06225 0.01295
C 9.7601 0.02668 0.01363
C 12.31948 32.73891 -0.02162
C 13.47279 32.01061 0.00415
C 13.56768 30.62038 -0.0014
C 12.35744 29.87913 0.02162
C 12.33805 28.44262 0.0076
C 13.54022 27.73454 0.01241
C 13.48217 26.30356 -0.01454
C 12.25306 25.54403 0.01945
C 10.96002 0.79247 0.01877
C 12.3121 24.10492 0.01416
C 13.55138 21.98722 0.02299
C 12.24195 21.30684 0.00244
C 12.23681 19.88418 -0.01717
C 13.56443 19.39224 0.05265
C 12.31158 7.00609 -0.01952
C 13.39491 6.18313 -0.02813
C 13.6114 4.81585 0.00374
C 12.24538 4.18474 0.00052
C 12.31212 2.81876 -0.03682
C 13.54989 23.35958 0.03542
C 13.5316 2.1527 0.01965
C 10.97663 2.17689 -0.00925
C 9.858 4.36179 -0.01789
C 9.86153 28.44214 0.0402
C 11.09662 27.72947 0.00572
C 11.01479 26.32806 0.03592
C 9.77933 25.65401 0.00406
C 9.84576 24.23495 0.00943
C 11.04797 23.43608 0.02841
C 11.00917 21.95954 -0.01111
C 9.79516 21.31443 -0.01275
C 9.84075 19.9138 0.00985
C 9.80143 2.93987 0.00444
C 10.99362 19.19891 -0.02245
C 9.93397 16.96429 0.03101
C 9.76968 15.55544 -0.01536
C 9.86977 12.7139 -0.02689
C 9.84847 11.33009 -0.01046
C 11.0359 9.37271 -0.00891
C 9.90081 8.54487 0.02819
C 9.94453 7.12473 0.00165
C 11.10852 6.39105 -0.02971
C 11.07516 4.9596 0.02894
C 11.05719 17.79047 -0.00428
C 13.5472 0.71165 0.02058
C 12.25926 0.08399 -0.01957
C 14.73486 32.67911 -0.0108
C 17.15932 25.53598 0.03698
C 17.19257 24.07523 -0.00109
C 18.40856 23.38508 -0.00491
C 18.38112 22.00236 0.03338
C 17.16526 21.338 -0.0258
C 17.08026 19.89607 -0.0331
C 18.47049 4.9056 -0.00316
C 17.18436 4.45552 0.02188
C 17.21413 2.90396 -0.01979
C 18.32949 26.23533 -0.02213
C 18.41083 2.161 0.02691
C 17.22416 34.03077 0.01452
C 19.69549 32.57464 0.04892
C 20.92317 31.92972 -0.00111
C 20.91526 30.51103 -0.03557
C 19.72525 29.79987 0.03754
C 19.62049 28.34659 0.01739
C 20.81346 27.68565 0.00755
C 20.81949 26.30913 -0.0054
C 19.55552 25.59506 0.00667
C 18.41759 0.66711 -0.01581
C 18.3686 27.64655 0.00028
C 17.12015 28.42158 -0.00289
C 17.23349 29.80424 -0.00066
C 15.9594 31.94555 -0.00368
C 16.04264 30.49588 -0.02696
C 14.78995 29.81652 -0.00114
C 14.77311 28.34552 0.00228
C 15.96975 27.60185 0.00798
C 15.92816 26.22984 0.00422
C 14.68975 25.56145 0.0351
C 14.72035 24.14979 -0.03113
C 15.95622 23.46492 0.02098
C 15.94278 22.01021 0.01848
C 14.73972 21.31126 -0.00619
C 14.89665 19.91116 -0.02162
C 15.95892 4.96904 0.00889
C 14.79814 4.13165 -0.00481
C 14.74767 2.74492 0.00979
C 16.04799 2.10302 0.01443
C 16.02758 0.66258 0.03505
C 14.7818 0.00404 -0.02815
C 17.22847 32.63659 -0.04147
C 18.47797 31.91112 -0.05302
C 18.4843 30.45788 0.00213
C 9.86498 29.86191 -0.02759
C 11.14637 30.59976 0.03589
C 11.10461 32.04728 -0.00033
C 9.8175 32.70005 -0.01062
C 2.41394 4.31076 -0.00518
C 2.40796 2.87133 0.0086
C 3.58513 2.16379 -0.00643
C 3.59955 0.73047 0.017
C 2.37121 34.03488 -0.03113
C 4.90649 32.68124 -0.02566
C 6.16943 32.08728 -0.00094
C 6.14706 30.60818 0.02322
C 4.9297 29.86829 -0.00725
C 3.60261 5.04219 -0.00074
C 4.9474 28.42658 -0.05697
C 6.11716 26.28168 -0.01343
C 4.88658 25.57529 0.00988
C 4.85651 24.18477 0.0276
C 6.04944 23.47598 0.01305
C 6.04279 22.04981 -0.00077
C 4.84311 21.33919 0.03368
C 4.90749 19.9764 -0.02929
C 6.14667 19.27266 -0.00966
C 6.2128 17.75973 -0.03337
C 6.14849 27.73834 0.01087
C 3.61894 6.51431 0.01465
C 2.4315 7.2099 -0.03996
C 2.42336 8.58525 0.01996
C 3.62001 30.48566 -0.03291
C 2.39876 29.79691 -0.04999
C 2.50552 28.40343 0.04505
C 3.70881 27.68694 0.03284
C 3.64123 26.304 -0.04307
C 2.32513 25.57322 0.03189
C 2.39933 24.14903 0.00031
C 3.66842 23.48205 -0.003
C 3.64703 22.04774 0.01402
C 2.48364 21.30475 0.02379
C 2.48544 19.89198 0.00907
C 3.71078 19.23051 0.00643
C 3.71053 17.75644 -0.01509
C 2.45127 17.03965 0.03267
C 2.44288 15.65619 0.02374
C 3.61458 14.91885 0.00402
C 3.67609 13.54117 0.0073
C 2.44246 12.77047 0.0174
C 2.38849 11.33083 0.03828
C 3.6769 10.6696 0.01226
C 3.63221 9.29916 -0.00279
C 4.96296 16.9742 0.01227
C 19.64728 24.15578 0.00143
C 4.84399 15.59033 0.00873
C 6.10427 13.41731 0.00848
C 7.40416 19.91996 0.01745
C 8.64225 19.21 0.00488
C 8.61704 17.62552 -0.01004
C 7.40933 16.9511 -0.02896
C 7.35845 15.54529 -0.00131
C 8.63639 14.87264 -0.01118
C 8.78584 13.44881 -0.014
C 7.50272 12.73534 0.02147
C 7.43862 11.35982 0.00373
C 7.36445 21.40754 0.03693
C 8.66495 10.60792 -0.00191
C 7.37816 8.55463 0.01291
C 7.31513 7.17511 0.00093
C 8.55787 6.43667 0.00057
C 8.51429 5.02771 -0.01634
C 7.3177 4.32122 -0.00334
C 7.35553 2.90647 0.02339
C 8.58506 2.25766 0.01641
C 8.59759 0.7806 -0.00719
C 7.37067 0.09514 0.01364
C 8.6722 9.16259 0.00438
C 8.60083 22.09142 -0.01384
C 8.60101 23.59454 -0.00482
C 7.27979 24.18712 0.02888
C 4.92359 12.73923 -0.01303
C 4.92784 11.3532 -0.01378
C 6.17585 10.64866 0.02635
C 6.21164 9.28091 0.0127
C 4.96414 8.53343 0.01396
C 4.85215 7.15877 0.01849
C 6.06545 6.47999 -0.01142
C 6.08575 5.05398 -0.00562
C 4.89189 4.3029 -0.00494
C 4.86285 2.95012 0.00054
C 6.09903 2.197 0.03007
C 6.16543 0.76397 -0.00095
C 4.86479 0.02023 0.01572
C 7.3466 32.75269 -0.04848
C 8.5797 31.97421 -0.00892
C 8.60702 30.58327 -0.01362
C 7.41105 29.89967 -0.0008
C 7.41062 28.44688 0.0288
C 8.63446 27.74081 0.00393
C 8.59272 26.3249 0.00895
C 7.30622 25.64848 0.00685
C 6.07882 14.85124 -0.00049
C 20.88479 23.46522 -0.017
C 20.89348 22.04984 0.00364
C 19.63084 21.25431 -0.00831
C 30.70625 5.01252 0.07705
C 29.42335 4.26531 0.0103
C 29.48611 2.88502 0.02108
C 30.67603 2.15832 0.00716
C 30.70303 0.75482 0.00307
C 29.51114 0.01237 0.00346
C 31.88287 32.64105 0.01713
C 33.15969 31.98316 -0.01694
C 33.18518 30.5049 0.01428
C 30.69287 6.42849 0.01908
C 31.93244 29.76601 -0.02142
C 33.16124 27.66134 0.00026
C 33.20202 26.21477 0.00682
C 31.95402 25.5686 -0.01779
C 31.97443 24.19075 0.03794
C 33.19353 23.4573 0.01927
C 33.18489 22.03501 0.01574
C 32.01499 21.28012 -0.02383
C 32.03386 19.84886 -0.01429
C 33.23235 19.15465 -0.0136
C 31.93064 28.37961 0.0544
C 29.48241 7.09673 0.01518
C 29.48334 8.4964 -0.00971
C 30.69565 9.33495 -0.03735
C 30.75114 31.83788 0.04266
C 30.70164 30.48915 0.01324
C 29.5102 29.76648 0.0014
C 29.44809 28.34567 0.00924
C 30.70814 27.65834 0.02326
C 30.7133 26.2732 0.00261
C 29.4996 25.53479 0.03265
C 29.52165 24.1333 -0.02049
C 30.7534 23.44301 -0.01854
C 30.74353 21.98856 -0.01415
C 29.5733 21.29187 -0.03039
C 29.64865 19.8735 0.01836
C 30.83666 19.11421 0.03531
C 30.77449 17.7081 -0.00669
C 29.54781 17.0608 0.0101
C 29.48429 15.64782 0.01705
C 30.68938 14.95767 -0.0405
C 30.72495 13.52934 -0.01303
C 29.4345 12.78929 -0.01461
C 29.44607 11.40036 -0.02155
C 30.68701 10.68942 -0.00944
C 33.20773 17.70032 0.00594
C 29.48635 32.62828 0.01177
C 31.97766 17.03527 -0.02474
C 33.21948 14.96411 0.00455
C 34.34465 21.23541 -0.02213
C 34.42545 19.85985 0.01951
C 1.29634 19.19904 -0.01678
C 1.26301 17.80902 0.01223
C 0.07505 17.05568 0.00648
C 0.06501 15.72068 0.02114
C 1.29557 14.92982 -0.02957
C 1.20947 13.50043 0.00343
C 34.38894 12.78195 -0.02656
C 1.16117 21.93296 0.02712
C 0.0139 11.41563 -0.02442
C 1.14047 9.23363 -0.00583
C 34.35676 8.54989 -0.02302
C 34.39451 7.13945 -0.02849
C 1.17566 6.43335 0.02931
C 1.17273 5.02158 0.00628
C 34.40744 4.26192 -0.0345
C 34.39154 2.90186 -0.00931
C 1.19004 2.18916 -0.00939
C 1.15396 0.73206 -0.00468
C 1.19076 10.66346 -0.00027
C 1.14323 23.39041 0.00723
C 34.37323 24.10223 0.03076
C 34.4173 25.4891 -0.05239
C 33.21177 13.53384 -0.00644
C 31.95916 12.8815 -0.01839
C 31.94989 11.44411 0.00137
C 33.20445 10.73262 0.00199
C 33.1304 9.26522 0.04381
C 31.95656 8.50656 0.02806
C 31.93651 7.07818 0.01504
C 33.20266 6.37527 -0.00069
C 33.18659 4.9447 0.04926
C 31.95378 4.21414 -0.03838
C 31.9739 2.83629 0.00349
C 33.17425 2.14662 -0.00323
C 33.1143 0.71046 -0.00841
C 31.91005 0.03452 0.0001
C 34.37389 32.61943 -0.02927
C 1.17059 31.92302 -0.01404
C 1.21858 30.52889 0.01027
C 34.40601 29.80853 0.01831
C 34.41851 28.43991 -0.01037
C 1.27156 27.69174 -0.00439
C 1.14502 26.28112 -0.00598
C 31.92249 15.58001 0.00369
C 3.63868 31.97195 0.02769
C 26.96673 34.06306 -0.00416
C 28.28513 2.1091 0.01799
C 22.20994 6.96161 0.01126
C 23.39857 6.38402 0.01852
C 23.39829 4.96916 -0.00381
C 22.10149 4.27982 0.03046
C 22.11635 2.87776 0.0296
C 23.31303 2.07389 0.03374
C 23.38536 0.66776 -0.02845
C 22.11351 34.06241 -0.03213
C 24.59933 32.64258 0.02239
C 23.255 9.20617 -0.01185
C 25.883 31.9171 0.01153
C 24.6128 29.82601 -0.0055
C 24.58583 28.39698 0.01515
C 25.79337 27.6207 -0.00225
C 25.75651 26.21704 0.00071
C 24.56499 25.49177 -0.01107
C 24.58787 24.1273 -0.01586
C 25.81631 23.41164 -0.01971
C 25.8342 21.96067 -0.02118
C 24.56234 21.38285 0.00733
C 25.83446 30.48828 0.02734
C 23.39744 17.78597 -0.01662
C 23.41827 19.12433 -0.00478
C 22.10908 19.86161 0.01511
C 19.87983 19.92166 -0.02957
C 20.93441 19.13588 -0.04422
C 21.00982 6.34756 0.00654
C 20.88479 4.93772 -0.00703
C 19.7396 4.23903 -0.04076
C 19.68275 2.81781 -0.00652
C 20.89091 2.1133 0.0058
C 20.84517 0.67464 -0.00865
C 19.6265 34.03498 0.00675
C 22.05587 32.62719 -0.00311
C 23.34242 31.91665 0.00742
C 23.39541 30.47929 -0.01594
C 22.15878 29.82244 0.0106
C 22.0681 28.40734 -0.01154
C 23.30872 27.60683 -0.01721
C 23.33742 26.21269 -0.02422
C 22.08012 25.64373 0.01277
C 22.07113 24.21283 0.00096
C 23.33714 23.47683 -0.01527
C 23.33406 22.02678 0.01087
C 22.06559 21.27491 0.00199
C 24.64258 19.85828 -0.00178
C 28.23782 0.7121 0.01699
C 25.83268 19.19099 0.00768
C 24.49378 17.02264 0.03005
C 28.34264 23.34633 -0.00037
C 28.365 21.97108 -0.0032
C 27.12909 21.28516 0.00622
C 27.14095 19.86106 -0.02815
C 28.34622 19.18436 -0.00942
C 28.36914 17.76955 0.00487
C 27.07595 17.14357 0.00826
C 27.06468 15.72583 -0.00294
C 28.3118 14.93762 0.00152
C 27.11013 23.99728 -0.01654
C 28.24836 13.51188 0.01257
C 26.98758 11.3799 0.04185
C 28.19332 10.68994 0.00194
C 28.25353 9.25819 -0.00621
C 26.96133 8.56186 0.02611
C 26.99673 7.11769 0.02198
C 28.29059 6.45188 0.01094
C 28.25326 4.99708 0.00235
C 26.983 4.22956 0.01495
C 27.03056 2.83167 0.01259
C 26.93815 12.7958 0.02316
C 27.01915 25.48595 -0.00218
C 28.20876 26.20586 -0.00802
C 28.211 27.58468 0.00195
C 24.73418 15.71533 -0.04078
C 25.75656 14.88552 0.02117
C 25.68909 13.47498 0.02737
C 24.63392 12.7123 -0.00498
C 24.52186 11.32343 0.00135
C 25.77126 10.64298 0.03102
C 25.70073 9.23396 0.02555
C 24.4735 8.58942 0.01423
C 24.56686 7.11212 -0.00285
C 25.7667 6.39378 -0.009
C 25.8015 4.95577 -0.01199
C 24.55762 4.26705 -0.00229
C 24.61278 2.77672 -0.00938
C 25.77698 2.0487 -0.0264
C 25.76554 0.65706 -0.01154
C 24.55166 34.00113 0.00684
C 27.01062 32.62934 -0.01052
C 28.31328 31.92755 -0.01679
C 28.27286 30.48588 0.00367
C 27.09401 29.71993 0.04306
C 26.98125 28.26523 0.00996
C 25.7672 17.81866 -0.0276
C 2.39234 32.62084 0.01707
