409
Graphene
C 34.39724 34.05938 0.01295
C 12.2861 29.89283 -0.01536
C 12.24869 28.3904 -0.02689
C 13.45952 27.68977 -0.01046
C 13.55092 26.31825 -0.00891
C 12.2882 25.61013 0.02819
C 12.29535 24.20556 0.00165
C 13.47815 23.33505 -0.02971
C 13.4481 21.85173 0.02894
C 12.28889 21.2168 -0.01789
C 12.40469 19.72228 0.00444
C 13.71344 19.07706 -0.00925
C 13.71819 17.75812 0.01877
C 12.41774 17.11994 0.01363
C 12.22499 15.70323 -0.02162
C 13.50326 14.83541 0.00415
C 13.49255 13.46518 -0.0014
C 12.31434 12.71889 0.02162
C 12.36877 11.24477 0.0076
C 13.50184 10.62696 0.01241
C 13.52544 9.14383 -0.01454
C 12.25055 8.40592 0.01945
C 13.5228 30.65243 0.03101
C 13.42391 31.99979 -0.00428
C 12.23185 32.75094 -0.02245
C 9.73777 0.08663 0.00985
C 11.1476 23.41464 0.00438
C 11.08052 21.96477 0.01291
C 9.81425 21.33306 0.00093
C 9.77724 19.89346 0.00057
C 11.0793 19.15882 -0.01634
C 11.15959 17.73267 -0.00334
C 9.88482 17.06799 0.02339
C 9.83551 15.71083 0.01641
C 11.06148 14.89894 -0.00719
C 11.07871 13.50853 0.01364
C 12.30095 7.03075 0.01416
C 9.8659 12.79211 -0.01062
C 11.0084 10.62046 0.03589
C 11.03957 9.23166 -0.02759
C 9.82306 8.49684 0.0402
C 9.8048 7.1426 0.00572
C 11.12794 6.3759 0.03592
C 11.13095 4.98115 0.00406
C 9.8158 4.36011 0.00943
C 9.84657 2.98087 0.02841
C 11.03472 2.22963 -0.01111
C 11.04836 0.78733 -0.01275
C 9.88658 11.36769 -0.00033
C 9.8964 24.11387 -0.00191
C 13.57891 6.40851 0.03542
C 12.36131 4.23894 0.00244
C 14.7668 4.27962 0.01443
C 14.75994 2.80865 0.03505
C 16.0002 2.14354 -0.02815
C 16.03248 0.75989 -0.04147
C 14.74148 0.00195 -0.05302
C 17.17963 32.67858 0.00213
C 18.38633 31.93988 -0.00066
C 18.42369 30.52825 -0.00289
C 17.14199 29.85569 0.00028
C 17.12645 28.47681 -0.02213
C 18.2427 18.95846 0.03698
C 18.3902 17.59486 -0.00109
C 17.27358 15.65461 -0.00491
C 18.49508 14.9467 0.03338
C 18.47894 13.53808 -0.0258
C 17.18468 12.84697 -0.0331
C 17.22118 11.38886 -0.00316
C 18.4249 10.68736 0.02188
C 18.42534 9.28262 -0.01979
C 17.18334 8.55446 0.02691
C 17.23246 7.11925 -0.01581
C 15.94961 4.9897 0.00979
C 16.03187 6.3962 -0.00481
C 14.77555 7.08437 0.00889
C 14.73728 8.50078 -0.02162
C 12.28994 2.93655 -0.01717
C 13.52996 2.16763 0.05265
C 13.56535 0.76509 -0.01952
C 12.23777 0.11493 -0.02813
C 14.68605 32.71136 0.00374
C 15.91968 31.95279 0.00052
C 15.97007 30.52933 -0.03682
C 14.72609 29.84302 0.01965
C 14.71103 28.4132 0.02058
C 16.01762 27.62462 -0.01957
C 13.55538 4.99073 0.02299
C 15.88719 26.29587 -0.0108
C 14.69779 23.95269 -0.02696
C 15.80255 21.93739 -0.00114
C 14.62061 21.24843 0.00228
C 14.74071 15.72636 0.00798
C 15.9694 15.11783 0.00422
C 15.90338 13.6157 0.0351
C 14.75648 12.78426 -0.03113
C 14.72085 11.40442 0.02098
C 15.97746 10.63772 0.01848
C 15.98892 9.20463 -0.00619
C 14.85961 25.33611 -0.00368
C 9.85231 25.54098 0.00373
C 11.06732 26.29757 0.02147
C 11.00254 27.73485 -0.014
C 2.38997 2.85966 -0.003
C 3.5951 2.16701 0.01402
C 3.58857 0.70925 0.02379
C 2.40529 34.05057 0.00907
C 4.84101 32.71049 0.00643
C 6.07284 32.03146 -0.01509
C 6.03755 30.60596 0.03267
C 4.85529 29.85592 0.02374
C 4.8323 28.47797 0.00402
C 6.0997 27.75337 0.0073
C 6.15196 26.31654 0.0174
C 4.93319 25.5785 0.03828
C 4.99507 24.20141 0.01226
C 6.22307 23.46507 -0.00279
C 6.1856 22.04822 0.01996
C 4.83999 21.33495 -0.03996
C 4.80348 19.92563 0.01465
C 6.04979 19.21129 -0.00074
C 6.14219 17.70488 -0.00518
C 4.93339 17.04261 0.0086
C 4.92739 15.62975 -0.00643
C 2.43538 4.27775 0.00031
C 3.67472 4.95532 0.03189
C 3.70648 6.40059 -0.04307
C 2.39176 7.07743 0.03284
C 3.57738 30.57852 -0.02375
C 2.25763 29.82754 0.00558
C 2.36127 28.47254 -0.0059
C 3.62478 27.8172 -0.01386
C 3.63475 26.3325 -0.02805
C 2.49694 25.61179 0.00081
C 2.45451 24.09264 0.00245
C 3.74877 23.39487 0.02728
C 3.72876 21.98715 -0.00039
C 2.46513 21.35306 0.0064
C 6.15588 14.84794 0.017
C 2.39738 19.95089 0.00211
C 3.66657 17.76786 -0.01979
C 2.47598 17.10578 0.02784
C 2.41646 15.6336 -0.01977
C 3.68887 14.95451 -0.00561
C 3.70966 13.57406 0.00208
C 2.4599 12.80637 0.01707
C 2.44943 11.39429 0.02769
C 3.66723 10.56742 -0.03291
C 3.62266 9.26123 -0.04999
C 2.36896 8.49375 0.04505
C 3.63516 19.18542 -0.00449
C 6.15984 13.40694 -0.03113
C 4.83591 12.74317 -0.02566
C 4.90755 11.30327 -0.00094
C 7.35638 17.03705 0.00054
C 7.28552 15.64195 0.03007
C 8.60455 14.97264 -0.00095
C 8.65107 13.52949 0.01572
C 7.36679 12.76452 -0.04848
C 7.42309 11.39006 -0.00892
C 8.63796 10.71122 -0.01362
C 8.5916 9.27916 -0.0008
C 7.37374 8.62364 0.0288
C 7.37171 7.18309 0.00393
C 8.55716 17.83617 -0.00494
C 8.57057 6.44894 0.00895
C 7.41042 4.38254 0.02888
C 7.31292 2.9684 -0.00482
C 8.62277 2.24924 -0.01384
C 8.57712 0.87514 0.03693
C 7.32171 0.09322 0.01745
C 9.78759 32.75615 0.00488
C 10.95697 31.98146 -0.01004
C 11.0809 30.58765 -0.02896
C 9.82678 29.89215 -0.00131
C 9.79893 28.42928 -0.01118
C 8.67316 5.05273 0.00685
C 18.40196 6.42242 0.01452
C 8.52327 19.25503 -0.00562
C 7.34535 21.28944 0.01849
C 6.14233 10.68688 0.02322
C 6.08313 9.26256 -0.00725
C 4.88368 8.46737 -0.05697
C 4.91243 7.08443 0.01087
C 6.07714 6.41546 -0.01343
C 6.14176 5.10581 0.00988
C 4.95992 4.25005 0.0276
C 4.9269 2.85747 0.01305
C 6.1145 2.19813 -0.00077
C 6.12355 0.77055 0.03368
C 7.29323 19.93539 -0.01142
C 4.88781 0.07876 -0.02929
C 8.55449 32.03005 -0.03337
C 8.54983 30.4935 0.01227
C 7.33286 29.85704 0.00873
C 7.33119 28.36782 -0.00049
C 8.57432 27.72469 0.00848
C 8.62243 26.24375 -0.01303
C 7.35554 25.58843 -0.01378
C 7.45505 24.17491 0.02635
C 8.62496 23.39738 0.0127
C 8.56532 22.02758 0.01396
C 7.36424 32.75281 -0.00966
C 3.67126 31.94211 0.00828
C 18.35779 4.98858 0.04892
C 17.14193 2.89573 -0.03557
C 29.47081 8.42212 -0.00971
C 29.42831 7.00082 0.01518
C 30.77834 6.31631 0.01908
C 30.77296 4.9047 0.07705
C 29.47224 4.24701 0.0103
C 29.46528 2.84231 0.02108
C 30.71795 2.12958 0.00716
C 30.78066 0.68112 0.00307
C 29.53709 34.04201 0.00346
C 32.00168 32.62833 0.01713
C 33.23466 31.94521 -0.01694
C 33.15674 30.46832 0.01428
C 31.93425 29.788 -0.02142
C 31.92476 28.44477 0.0544
C 33.14945 27.57171 0.00026
C 33.16472 26.22294 0.00682
C 31.98884 25.58838 -0.01779
C 31.95265 24.14963 0.03794
C 33.17011 23.48296 0.01927
C 33.16752 22.05463 0.01574
C 31.97275 21.32318 -0.02383
C 30.6905 9.17121 -0.03735
C 30.69128 10.56674 -0.00944
C 29.52773 11.29845 -0.02155
C 29.49377 12.75885 -0.01461
C 28.25805 2.11093 0.01799
C 28.29489 0.65998 0.01699
C 27.04024 0.01044 -0.00416
C 29.56221 32.66782 0.01177
C 30.7656 31.93333 0.04266
C 30.7104 30.53937 0.01324
C 29.51473 29.84211 0.0014
C 29.44899 28.41278 0.00924
C 30.69887 27.75669 0.02326
C 30.73249 26.3027 0.00261
C 31.92778 19.91495 -0.01429
C 29.51213 25.63796 0.03265
C 30.72692 23.4343 -0.01854
C 30.66493 21.96952 -0.01415
C 29.49918 21.23314 -0.03039
C 29.47787 19.865 0.01836
C 30.70018 19.17303 0.03531
C 30.75147 17.75797 -0.00669
C 29.4878 16.98114 0.0101
C 29.44126 15.67197 0.01705
C 30.63128 14.87228 -0.0405
C 30.76424 13.42814 -0.01303
C 29.48866 24.1907 -0.02049
C 27.03497 2.74494 0.01259
C 33.15634 19.19137 -0.0136
C 31.9644 17.05532 -0.02474
C 1.21625 22.03766 0.02712
C 34.37488 21.39735 -0.02213
C 34.33917 19.85146 0.01951
C 1.15511 19.14987 -0.01678
C 1.24175 17.76904 0.01223
C 0.00108 17.08419 0.00648
C 34.36125 15.65193 0.02114
C 1.22555 14.90557 -0.02957
C 1.26239 13.47832 0.00343
C 34.42856 12.7937 -0.02656
C 0.03559 11.35521 -0.02442
C 1.31806 10.63972 -0.00027
C 1.20902 9.24352 -0.00583
C 34.42272 8.55361 -0.02302
C 0.00016 7.16691 -0.02849
C 1.19915 6.45393 0.02931
C 1.19256 5.01186 0.00628
C 34.4322 4.25187 -0.0345
C 34.38931 2.81985 -0.00931
C 1.18692 2.09503 -0.00939
C 1.22424 0.64579 -0.00468
C 1.223 23.40834 0.00723
C 34.40949 24.0562 0.03076
C 0.01058 25.55718 -0.05239
C 1.23785 26.25996 -0.00598
C 31.85842 15.56943 0.00369
C 33.07103 14.8478 0.00455
C 33.15946 13.43761 -0.00644
C 32.03821 12.76683 -0.01839
C 31.97328 11.29676 0.00137
C 33.18864 10.62342 0.00199
C 33.17603 9.26395 0.04381
C 32.00419 8.43243 0.02806
C 31.98163 7.07184 0.01504
C 33.23773 6.36446 -0.00069
C 33.15024 17.75122 0.00594
C 33.22665 4.942 0.04926
C 31.95533 2.82789 0.00349
C 33.21452 2.08219 -0.00323
C 33.20056 0.66261 -0.00841
C 31.96579 33.9963 0.0001
C 34.39258 32.69702 -0.02927
C 1.15231 31.91864 -0.01404
C 1.05464 30.51965 0.01027
C 34.33417 29.72024 0.01831
C 34.34706 28.33783 -0.01037
C 1.22641 27.6351 -0.00439
C 31.94848 4.18506 -0.03838
C 26.97718 4.12582 0.01495
C 28.30047 4.9101 0.00235
C 28.23889 6.40092 0.01094
C 23.29203 31.89301 0.00096
C 23.34344 30.46852 -0.01527
C 22.18421 29.7442 0.01087
C 23.61554 19.0017 0.00199
C 23.31518 17.72091 0.01511
C 22.16476 16.96507 -0.00478
C 22.06265 15.59175 -0.01662
C 23.3841 14.97615 -0.01185
C 23.39787 13.5164 0.01126
C 22.18468 12.75254 0.01852
C 22.2667 11.33177 -0.00381
C 23.53612 10.55977 0.03046
C 23.4131 9.11744 0.0296
C 22.10442 8.48687 0.03374
C 22.08717 7.09312 -0.02845
C 23.29152 6.34198 -0.03213
C 23.34004 4.96314 0.02239
C 22.02392 4.27098 0.01153
C 22.12374 2.90051 0.02734
C 23.34206 2.16006 -0.0055
C 23.37522 0.72213 0.01515
C 22.12386 32.6468 0.01277
C 19.67394 0.06089 -0.02422
C 20.96808 0.70092 -0.01721
C 20.92468 2.14413 -0.01154
C 18.4316 2.09921 0.03754
C 18.49531 0.708 0.01739
C 17.22627 34.0499 0.00755
C 19.69797 32.60015 -0.0054
C 20.91132 31.93163 0.00667
C 21.00059 30.36707 0.00143
C 19.73123 30.04904 -0.017
C 20.95162 17.61762 0.00364
C 19.67401 17.06865 -0.00831
C 19.7032 15.63654 -0.02957
C 22.15592 0.06521 -0.00225
C 20.95147 14.80162 -0.04422
C 19.66017 12.73858 -0.00703
C 19.72441 11.40356 -0.04076
C 20.89354 10.65595 -0.00652
C 20.96304 9.23334 0.0058
C 19.65232 8.62187 -0.00865
C 19.63464 7.17343 0.00675
C 20.9015 6.37307 -0.00311
C 20.79941 4.96172 0.00742
C 19.53324 4.31544 -0.01594
C 19.65564 2.86542 0.0106
C 20.94364 13.37678 0.00654
C 24.61453 32.65416 0.00071
C 25.80734 31.97546 -0.01107
C 25.77496 30.53713 -0.01586
C 26.98824 29.83877 0.04306
C 27.07768 28.3686 0.00996
C 28.26716 27.69673 0.00195
C 28.20051 26.27589 -0.00802
C 27.09836 25.41974 -0.00218
C 27.22753 24.11266 -0.01654
C 28.33414 23.39566 -0.00037
C 28.35914 22.00442 -0.0032
C 27.12592 21.36253 0.00622
C 27.02353 19.90592 -0.02815
C 28.20637 30.49276 0.00367
C 28.27039 19.182 -0.00942
C 27.0194 17.02287 0.00826
C 26.98554 15.56668 -0.00294
C 28.24237 14.88411 0.00152
C 28.34306 13.52632 0.01257
C 27.05613 12.77844 0.02316
C 27.10561 11.38961 0.04185
C 28.3244 10.59979 0.00194
C 28.30713 9.2134 -0.00621
C 27.01992 8.49923 0.02611
C 26.97608 7.0861 0.02198
C 28.28563 17.71323 0.00487
C 17.18374 4.33225 -0.00111
C 28.31095 31.92786 -0.01679
C 24.57624 34.01668 0.00684
C 24.54153 29.75997 -0.01971
C 24.64827 28.43022 -0.02118
C 25.83044 27.84979 0.00733
C 24.65475 19.89404 -0.00178
C 25.90077 19.26509 0.00768
C 25.82562 17.82531 -0.0276
C 24.58804 17.0338 0.03005
C 24.58687 15.57994 -0.04078
C 25.76628 14.89521 0.02117
C 25.81752 13.4884 0.02737
C 26.99676 32.66571 -0.01052
C 24.57697 12.72967 -0.00498
C 25.88627 10.72629 0.03102
C 25.81977 9.26062 0.02555
C 24.63429 8.47945 0.01423
C 24.61535 7.08024 -0.00285
C 25.86618 6.35353 -0.009
C 25.79483 4.89966 -0.01199
C 24.5781 4.27653 -0.00229
C 24.65049 2.84723 -0.00938
C 25.73216 2.05362 -0.0264
C 25.8135 0.63128 -0.01154
C 24.6384 11.36701 0.00135
C 2.44563 32.63678 0.00088
