382
Graphene
C 34.34167 0.05864 0.01295
C 15.43917 8.12501 0.01241
C 15.60731 2.23557 -0.01454
C 15.81789 0.85523 0.01945
C 14.66536 0.08085 0.01416
C 17.18976 32.72961 0.03542
C 18.40277 31.98854 0.02299
C 18.4467 30.56906 0.00244
C 17.23055 29.82433 -0.01717
C 17.23194 28.36393 0.05265
C 18.457 27.69749 -0.01952
C 18.4327 26.27796 -0.02813
C 17.18024 25.46835 0.00374
C 17.26128 24.02633 0.00052
C 18.45159 23.26892 -0.03682
C 18.41644 21.91287 0.01965
C 17.14961 21.23996 0.02058
C 17.16436 19.76354 -0.01957
C 18.41151 19.17154 -0.0108
C 18.38379 17.74904 -0.00368
C 15.86122 9.32551 0.0076
C 15.92632 10.79245 0.02162
C 16.02167 13.73957 -0.0014
C 15.83562 14.96853 0.00415
C 12.25738 3.03654 -0.01111
C 13.52682 2.21473 -0.01275
C 13.46348 0.82892 0.00985
C 12.24842 0.11995 -0.02245
C 14.72241 32.83048 -0.00428
C 15.873 31.98668 0.03101
C 15.96569 30.5043 -0.01536
C 14.72936 29.78681 -0.02689
C 14.81689 28.41494 -0.01046
C 17.18015 17.06042 -0.02696
C 16.02489 27.71225 -0.00891
C 14.78005 25.52144 0.00165
C 14.76055 24.14221 -0.02971
C 15.99529 23.44481 0.02894
C 16.02926 21.93444 -0.01789
C 14.74777 21.23543 0.00444
C 14.785 19.85679 -0.00925
C 15.97556 19.06911 0.01877
C 15.7759 17.60552 0.01363
C 14.79736 16.67683 -0.02162
C 16.02044 26.25354 0.02819
C 17.22427 15.61172 -0.00114
C 18.47275 14.86646 0.00228
C 18.37686 13.537 0.00798
C 19.67637 21.19138 -0.0258
C 19.66222 19.77342 -0.0331
C 20.919 19.05113 -0.00316
C 20.83877 17.7026 0.02188
C 19.58648 17.02502 -0.01979
C 19.6568 15.56571 0.02691
C 20.89836 14.94993 -0.01581
C 20.87968 13.48982 0.01452
C 19.7014 12.78094 0.04892
C 20.91463 21.83131 0.03338
C 19.70198 11.29636 -0.00111
C 20.88946 9.22507 0.03754
C 19.6915 8.55647 0.01739
C 19.71022 7.17235 0.00755
C 20.9006 6.36703 -0.0054
C 20.88017 4.88264 0.00667
C 19.64049 4.22856 0.00143
C 19.5599 2.85816 -0.017
C 20.77847 2.09711 0.00364
C 20.79367 0.66262 -0.00831
C 20.88777 10.66919 -0.03557
C 11.86814 7.2832 0.02841
C 20.87505 23.26466 -0.00491
C 19.68642 25.42355 0.03698
C 17.19168 12.8102 0.00422
C 17.18152 11.44123 0.0351
C 18.42276 10.70216 -0.03113
C 18.4064 9.2666 0.02098
C 17.16357 8.53465 0.01848
C 17.23812 7.15182 -0.00619
C 18.43488 6.45767 -0.02162
C 18.37191 4.99137 0.00889
C 17.12828 4.40411 -0.00481
C 19.68284 24.01831 -0.00109
C 16.87376 2.97229 0.00979
C 18.30922 0.84013 0.03505
C 17.09921 0.11014 -0.02815
C 19.5846 32.66477 -0.04147
C 20.82513 31.9223 -0.05302
C 20.89174 30.52889 0.00213
C 19.66995 29.75918 -0.00066
C 19.6938 28.31722 -0.00289
C 20.86502 27.63091 0.00028
C 20.93425 26.17067 -0.02213
C 18.20012 2.20088 0.01443
C 13.47462 19.22043 0.00943
C 12.47547 20.00147 0.00406
C 12.35438 21.46122 0.03592
C 6.11558 30.54339 0.02322
C 4.83332 29.91199 -0.00725
C 4.8062 28.49986 -0.05697
C 6.05014 27.80773 0.01087
C 6.07958 26.29046 -0.01343
C 4.83595 25.55531 0.00988
C 4.96388 24.16037 0.0276
C 6.15918 23.45239 0.01305
C 6.1463 22.04773 -0.00077
C 6.08724 31.99808 -0.00094
C 4.9519 21.22464 0.03368
C 5.09053 7.04126 -0.00966
C 6.2706 6.4766 -0.03337
C 6.13803 4.99928 0.01227
C 4.87446 4.30078 0.00873
C 4.82076 2.89474 -0.00049
C 6.07195 2.16892 0.00848
C 5.99371 0.80419 -0.01303
C 4.83865 0.08113 -0.01378
C 7.27124 32.72387 0.02635
C 4.74847 19.78619 -0.02929
C 8.56066 32.03555 0.0127
C 4.84896 32.77139 -0.02566
C 3.62371 0.74713 0.017
C 3.65262 30.59172 0.01402
C 2.4534 29.88031 0.02379
C 2.40731 28.35323 0.00907
C 3.63829 27.697 0.00643
C 3.67154 26.32105 -0.01509
C 2.45275 25.65464 0.03267
C 2.42437 24.14932 0.02374
C 3.70187 23.50151 0.00402
C 3.70815 22.04641 0.0073
C 2.4075 0.09049 -0.03113
C 2.49344 21.38308 0.0174
C 3.59569 19.05432 0.01226
C 2.82835 17.53796 -0.00279
C 2.39967 8.45576 0.01996
C 2.47076 7.05861 -0.03996
C 3.67016 6.3784 0.01465
C 3.69441 4.99436 -0.00074
C 2.43316 4.35544 -0.00518
C 2.37345 2.90841 0.0086
C 3.59922 2.16893 -0.00643
C 2.46929 19.96895 0.03828
C 19.56649 34.06508 -0.02957
C 8.50214 30.6366 0.01396
C 7.3694 28.43545 -0.01142
C 11.05186 22.11215 -0.014
C 9.93082 21.3608 0.02147
C 11.88866 6.02816 0.00373
C 11.20654 4.8766 -0.00191
C 9.69719 4.27959 0.00438
C 9.7788 2.94778 0.01291
C 11.0529 2.32451 0.00093
C 11.04978 0.85456 0.00057
C 9.87748 0.05459 -0.01634
C 11.01968 23.55799 -0.01118
C 12.32599 32.80026 -0.00334
C 13.55993 30.60616 0.01641
C 12.31929 29.91217 -0.00719
C 12.33727 28.47623 0.01364
C 13.58412 27.72745 -0.01062
C 13.5351 26.28465 -0.00033
C 12.31115 25.63495 0.03589
C 12.35575 24.19908 -0.02759
C 13.57802 23.46949 0.0402
C 13.5613 22.08349 0.00572
C 13.55451 32.08423 0.02339
C 7.31539 29.83487 0.01849
C 9.81007 24.18303 -0.00131
C 11.08018 26.37951 -0.01004
C 8.66262 27.78193 -0.00562
C 8.58686 26.39343 -0.00494
C 7.35856 25.64682 0.00054
C 7.35755 24.17308 0.03007
C 8.60711 23.40798 -0.00095
C 8.62227 21.97441 0.01572
C 7.33867 21.3661 -0.04848
C 7.97945 6.48851 -0.00892
C 8.43136 5.14502 -0.01362
C 9.81237 25.60742 -0.02896
C 7.29722 4.23308 -0.0008
C 8.52311 2.18668 0.00393
C 8.55681 0.74526 0.00895
C 7.32004 0.02284 0.00685
C 9.89967 32.78096 0.02888
C 11.16374 32.00521 -0.00482
C 11.16003 30.62114 -0.01384
C 9.79242 29.90721 0.03693
C 9.87373 28.53046 0.01745
C 11.0731 27.77576 0.00488
C 7.31044 2.91084 0.0288
C 22.07214 32.57024 -0.04422
C 23.29044 31.8218 0.00654
C 23.30566 30.45121 -0.00703
C 29.51496 4.23573 0.0103
C 29.46688 2.84136 0.02108
C 30.65204 2.17088 0.00716
C 30.65642 0.73386 0.00307
C 29.42377 0.0023 0.00346
C 31.97718 32.72811 0.01713
C 33.12401 32.00222 -0.01694
C 33.08811 30.56242 0.01428
C 31.90081 29.81811 -0.02142
C 30.68148 4.9234 0.07705
C 31.92422 28.37937 0.0544
C 33.16315 26.29119 0.00682
C 31.91223 25.60273 -0.01779
C 31.89161 24.15169 0.03794
C 33.12015 23.47689 0.01927
C 33.15913 22.03163 0.01574
C 31.92907 21.3433 -0.02383
C 32.00474 19.91479 -0.01429
C 33.26185 19.17927 -0.0136
C 33.30466 17.79327 0.00594
C 33.20127 27.68279 0.00026
C 32.01743 17.07794 -0.02474
C 30.68603 6.35488 0.01908
C 29.46357 8.52543 -0.00971
C 29.43507 29.86194 0.0014
C 29.4972 28.45069 0.00924
C 30.71019 27.72911 0.02326
C 30.70978 26.2475 0.00261
C 29.48903 25.57716 0.03265
C 29.42942 24.1346 -0.02049
C 30.63383 23.42722 -0.01854
C 30.72554 22.04598 -0.01415
C 29.49759 21.31796 -0.03039
C 29.45776 7.1509 0.01518
C 29.44153 19.94019 0.01836
C 30.78158 17.76113 -0.00669
C 29.56389 17.0565 0.0101
C 29.47975 15.66733 0.01705
C 30.75845 14.9002 -0.0405
C 30.748 13.47015 -0.01303
C 29.56442 12.80104 -0.01461
C 29.48656 11.37567 -0.02155
C 30.73061 10.671 -0.00944
C 30.76098 9.10894 -0.03735
C 30.71461 19.24021 0.03531
C 30.69123 30.5313 0.01324
C 31.98472 15.68787 0.00369
C 33.22311 13.50504 -0.00644
C 34.39555 21.36159 -0.02213
C 34.42834 19.93184 0.01951
C 1.17277 19.22555 -0.01678
C 1.41454 17.81261 0.01223
C 0.15055 17.14948 0.00648
C 0.06744 15.67573 0.02114
C 1.14835 14.84289 -0.02957
C 1.0775 13.54328 0.00343
C 0.00818 12.78221 -0.02656
C 1.26089 21.9839 0.02712
C 34.37346 11.30817 -0.02442
C 1.30341 9.32837 -0.00583
C 0.06613 8.53956 -0.02302
C 0.00676 7.09887 -0.02849
C 1.11917 6.37849 0.02931
C 1.17155 4.99732 0.00628
C 34.35634 4.2979 -0.0345
C 34.31303 2.88904 -0.00931
C 1.16598 2.20471 -0.00939
C 1.18524 0.82546 -0.00468
C 1.19709 10.76746 -0.00027
C 33.22216 14.91899 0.00455
C 1.20988 23.3882 0.00723
C 34.38572 25.55921 -0.05239
C 31.97662 12.78461 -0.01839
C 31.98458 11.41857 0.00137
C 33.21339 10.63679 0.00199
C 33.28752 9.21855 0.04381
C 31.97865 8.50333 0.02806
C 31.9236 6.99697 0.01504
C 33.15271 6.36626 -0.00069
C 33.13774 4.97111 0.04926
C 31.90303 4.30015 -0.03838
C 34.4064 24.17414 0.03076
C 31.84291 2.88127 0.00349
C 33.10998 0.79567 -0.00841
C 31.8865 0.02615 0.0001
C 34.38774 32.65644 -0.02927
C 1.19726 31.90648 -0.01404
C 1.19673 30.57583 0.01027
C 34.37251 29.86905 0.01831
C 34.34693 28.44133 -0.01037
C 1.10752 27.7334 -0.00439
C 1.19096 26.31097 -0.00598
C 33.07618 2.248 -0.00323
C 3.57164 31.92002 -0.003
C 30.71849 32.01885 0.04266
C 26.97245 34.01997 -0.00416
C 22.03064 4.19768 0.03046
C 22.02524 2.8173 0.0296
C 23.31856 2.02791 0.03374
C 23.2318 0.62502 -0.02845
C 22.07574 34.00065 -0.03213
C 24.54499 32.60524 0.02239
C 25.80939 31.92514 0.01153
C 25.8145 30.52828 0.02734
C 24.54331 29.79403 -0.0055
C 23.2764 4.92664 -0.00381
C 24.53384 28.36073 0.01515
C 25.81137 26.22499 0.00071
C 24.5589 25.49647 -0.01107
C 24.54112 24.07663 -0.01586
C 25.78414 23.35517 -0.01971
C 25.73363 21.98193 -0.02118
C 24.55942 21.18623 0.00733
C 24.56727 19.85537 -0.00178
C 25.82721 19.16856 0.00768
C 25.89293 17.74742 -0.0276
C 25.71291 27.66719 -0.00225
C 24.71928 17.08405 0.03005
C 23.34469 6.31596 0.01852
C 22.13069 8.5014 -0.01185
C 22.07006 29.78692 -0.04076
C 22.07404 28.39877 -0.00652
C 23.32422 27.63597 0.0058
C 23.3981 26.20743 -0.00865
C 22.16363 25.50264 0.00675
C 22.10476 24.0513 -0.00311
C 23.32792 23.37069 0.00742
C 23.30803 21.98815 -0.01594
C 22.10576 21.23955 0.0106
C 22.13408 7.07421 0.01126
C 22.07802 19.81241 -0.01154
C 23.41045 17.71592 -0.02422
C 22.05448 17.03644 0.01277
C 22.18915 15.62158 0.00096
C 23.4377 14.86857 -0.01527
C 23.36119 13.49824 0.01087
C 22.09559 12.75729 0.00199
C 22.11558 11.36485 0.01511
C 23.35865 10.59465 -0.00478
C 23.32184 9.21446 -0.01662
C 23.32887 19.12771 -0.01721
C 29.50437 32.67854 0.01177
C 24.65068 15.63376 -0.04078
C 25.84924 13.4444 0.02737
C 27.02154 21.2784 0.00622
C 27.05795 19.86839 -0.02815
C 28.29227 19.11361 -0.00942
C 28.30153 17.7385 0.00487
C 27.10053 16.97656 0.00826
C 27.0709 15.55954 -0.00294
C 28.2928 14.94296 0.00152
C 28.29795 13.49918 0.01257
C 27.08131 12.7476 0.02316
C 28.26667 22.00047 -0.0032
C 27.05126 11.34419 0.04185
C 28.27054 9.2356 -0.00621
C 26.99435 8.46872 0.02611
C 27.0125 7.00522 0.02198
C 28.31113 6.3889 0.01094
C 28.2267 4.95335 0.00235
C 27.05155 4.23532 0.01495
C 26.99414 2.79735 0.01259
C 28.23318 2.15659 0.01799
C 28.22262 0.69559 0.01699
C 28.2409 10.62584 0.00194
C 25.85352 14.84759 0.02117
C 28.23724 23.41535 -0.00037
C 27.03003 25.54537 -0.00218
C 24.55596 12.77391 -0.00498
C 24.63237 11.31686 0.00135
C 25.8786 10.65536 0.03102
C 25.82577 9.23821 0.02555
C 24.5668 8.5156 0.01423
C 24.54803 7.09726 -0.00285
C 25.75347 6.27745 -0.009
C 25.79258 4.89634 -0.01199
C 24.59655 4.25575 -0.00229
C 27.02192 24.10902 -0.01654
C 24.49733 2.73966 -0.00938
C 25.71891 0.6185 -0.01154
C 24.48852 0.02571 0.00684
C 27.05157 32.64183 -0.01052
C 28.21891 31.95046 -0.01679
C 28.24906 30.54127 0.00367
C 26.96128 29.77703 0.04306
C 26.95277 28.32336 0.00996
C 28.20666 27.66799 0.00195
C 28.26176 26.28421 -0.00802
C 25.79406 2.03884 -0.0264
C 2.37718 32.69334 0.00031
