365
Graphene
C 0.00529 34.0528 0.01295
C 9.87471 8.55562 0.00052
C 9.77906 7.12136 -0.03682
C 10.93468 6.30531 0.01965
C 11.01159 4.92761 0.02058
C 9.80421 4.20655 -0.01957
C 9.77687 2.85165 -0.0108
C 11.01256 2.19844 -0.00368
C 11.08314 0.75566 -0.02696
C 11.12637 9.21728 0.00374
C 9.87016 0.06122 -0.00114
C 13.44472 32.02265 0.00798
C 13.49928 30.56792 0.00422
C 12.26388 29.80184 0.0351
C 12.27969 28.40326 -0.03113
C 13.55611 27.68601 0.02098
C 13.43793 26.36072 0.01848
C 12.26449 25.64291 -0.00619
C 12.31301 24.22543 -0.02162
C 12.20467 32.73212 0.00228
C 10.90634 10.57116 -0.02813
C 9.79501 11.47679 -0.01952
C 9.71405 12.93286 0.05265
C 8.62152 0.75393 0.02894
C 7.40564 0.02768 -0.01789
C 9.80216 32.69956 0.00444
C 11.00726 32.00429 -0.00925
C 11.05647 30.55387 0.01877
C 9.84615 29.83179 0.01363
C 9.81113 28.44842 -0.02162
C 11.05572 27.70323 0.00415
C 11.02244 26.29838 -0.0014
C 9.82347 25.55345 0.02162
C 9.86372 24.1368 0.0076
C 11.11875 23.42055 0.01241
C 11.05847 22.06788 -0.01454
C 9.83348 21.29599 0.01945
C 9.95959 19.86002 0.01416
C 11.23296 19.09293 0.03542
C 11.10782 17.66323 0.02299
C 9.93072 16.86927 0.00244
C 9.81859 15.37381 -0.01717
C 13.48298 23.45751 0.00889
C 13.49669 22.00439 -0.00481
C 12.2828 21.22684 0.00979
C 12.43951 19.8349 0.01443
C 15.92711 5.02638 -0.03557
C 14.68325 4.28939 0.03754
C 14.7241 2.89569 0.01739
C 16.01963 2.16216 0.00755
C 15.93019 0.75659 -0.0054
C 14.75282 0.03389 0.00667
C 17.26541 32.65049 0.00143
C 18.50341 31.87727 -0.017
C 18.41175 30.43674 0.00364
C 17.21428 29.78271 -0.00831
C 17.16431 28.30155 -0.02957
C 18.40862 27.59891 -0.04422
C 18.38602 26.16289 0.00654
C 17.23831 25.49344 -0.00703
C 17.14765 24.09813 -0.04076
C 18.24801 23.18596 -0.00652
C 18.06238 21.87848 0.0058
C 17.1788 7.06089 -0.00865
C 18.39545 6.43933 0.00675
C 15.87456 6.54333 -0.00111
C 8.58365 2.15844 -0.02971
C 14.61934 7.2412 0.04892
C 16.04254 21.9151 -0.01581
C 12.43548 8.48736 0.03505
C 12.2813 7.09244 -0.02815
C 13.50797 6.40104 -0.04147
C 13.50662 5.00837 -0.05302
C 12.29422 4.27772 0.00213
C 12.31808 2.89508 -0.00066
C 13.51189 2.15245 -0.00289
C 13.53544 0.72435 0.00028
C 12.29611 0.04628 -0.02213
C 14.77244 32.7484 0.03698
C 16.00315 31.90698 -0.00109
C 15.97736 30.44554 -0.00491
C 14.74509 29.7951 0.03338
C 14.71003 28.37956 -0.0258
C 15.96289 27.61263 -0.0331
C 15.98305 26.13292 -0.00316
C 14.67359 25.58041 0.02188
C 14.65362 24.15764 -0.01979
C 15.96398 23.35595 0.02691
C 14.81258 21.40859 0.01452
C 7.30485 2.83121 0.00165
C 7.30776 4.3032 0.02819
C 8.52442 5.07993 -0.00891
C 3.63729 6.44836 0.00848
C 3.60015 5.06069 -0.01303
C 2.40337 4.32171 -0.01378
C 2.38903 2.92911 0.02635
C 3.6252 2.1704 0.0127
C 3.66555 0.70579 0.01396
C 2.38177 0.06103 0.01849
C 4.81492 32.66124 -0.01142
C 6.12887 31.99936 -0.00562
C 6.08465 30.56151 -0.00494
C 4.85697 29.84231 0.00054
C 4.95506 28.47906 0.03007
C 6.14475 27.73628 -0.00095
C 6.10229 26.21646 0.01572
C 4.82452 25.62942 -0.04848
C 4.77843 24.12044 -0.00892
C 6.10458 23.45156 -0.01362
C 6.18398 22.02141 -0.0008
C 4.95731 21.31788 0.0288
C 2.43819 7.18696 -0.00049
C 4.90489 19.92817 0.00393
C 2.38382 8.61283 0.00873
C 3.71563 10.73435 -0.03337
C 3.64049 30.52227 -0.00518
C 2.38515 29.81782 0.0086
C 2.32495 28.4369 -0.00643
C 3.62853 27.73817 0.017
C 3.61404 26.34159 -0.03113
C 2.39895 25.66868 -0.02566
C 2.38705 24.15676 -0.00094
C 3.63533 23.40049 0.02322
C 3.61265 22.03385 -0.00725
C 2.33345 21.39108 -0.05697
C 2.31009 20.05655 0.01087
C 3.66229 19.30963 -0.01343
C 3.67844 17.87433 0.00988
C 2.51467 17.1694 0.0276
C 2.43934 15.74057 0.01305
C 3.71778 14.99197 -0.00077
C 3.67576 13.55351 0.03368
C 2.34518 12.86072 -0.02929
C 2.40231 11.45847 -0.00966
C 3.64451 9.35209 0.01227
C 18.4553 4.96128 -0.00311
C 6.23825 19.21133 0.00895
C 4.95296 17.13443 0.02888
C 7.34524 25.58444 -0.01062
C 7.33884 24.16092 -0.00033
C 8.5813 23.33892 0.03589
C 8.58118 21.96799 -0.02759
C 7.42971 21.23026 0.0402
C 7.57586 19.83643 0.00572
C 8.81613 19.05704 0.03592
C 8.71719 17.63122 0.00406
C 7.40494 17.09871 0.00943
C 7.29812 15.65687 0.02841
C 8.54411 15.04534 -0.01111
C 8.55282 13.51381 -0.01275
C 7.30515 12.81886 0.00985
C 7.32944 11.41255 -0.02245
C 8.52679 10.6636 -0.00428
C 8.59359 9.25689 0.03101
C 7.29912 8.58891 -0.01536
C 7.33179 7.10702 -0.02689
C 8.55875 6.43537 -0.01046
C 8.62835 26.29947 0.01364
C 6.17422 17.80994 0.00685
C 8.57927 27.74192 -0.00719
C 7.36506 29.89006 0.02339
C 4.93524 15.65258 -0.00482
C 6.1397 14.96303 -0.01384
C 6.07794 13.53694 0.03693
C 4.85832 12.78909 0.01745
C 4.89669 11.39606 0.00488
C 6.07465 10.67278 -0.01004
C 6.05094 9.27281 -0.02896
C 4.87223 8.52941 -0.00131
C 4.80489 7.12886 -0.01118
C 6.12107 6.39459 -0.014
C 6.10047 5.03572 0.02147
C 4.80442 4.36505 0.00373
C 4.87347 2.89101 -0.00191
C 6.07099 2.16919 0.00438
C 6.12465 0.7271 0.01291
C 4.88774 0.00493 0.00093
C 7.34895 32.65184 0.00057
C 8.61088 31.97399 -0.01634
C 8.6205 30.5417 -0.00334
C 7.37314 28.43331 0.01641
C 3.6231 31.9468 -0.00074
C 17.22632 4.32148 0.00742
C 18.45163 2.15227 0.0106
C 29.38429 2.86638 0.00346
C 30.7095 2.30839 0.01713
C 30.71254 0.79804 -0.01694
C 29.47082 0.05091 0.01428
C 31.92053 32.67216 -0.02142
C 33.1352 32.02144 0.0544
C 33.13875 30.61226 0.00026
C 31.91294 29.90917 0.00682
C 29.44718 4.30354 0.00307
C 32.00507 28.42409 -0.01779
C 33.15782 26.25181 0.01927
C 31.90837 25.52755 0.01574
C 31.61489 24.05996 -0.02383
C 32.99197 23.33017 -0.01429
C 33.04998 19.13431 -0.0136
C 33.20525 17.73382 0.00594
C 31.95424 16.94975 -0.02474
C 32.00305 15.59152 0.00369
C 33.1728 27.64516 0.03794
C 30.66901 5.04398 0.00716
C 30.66996 6.46428 0.02108
C 29.39781 7.2051 0.0103
C 29.44295 32.74318 -0.02049
C 30.70829 31.96401 -0.01854
C 30.71698 30.57197 -0.01415
C 29.48159 29.85653 -0.03039
C 29.44025 28.47217 0.01836
C 30.73371 27.72103 0.03531
C 30.74103 26.31101 -0.00669
C 29.60198 25.49783 0.0101
C 30.04013 24.13206 0.01705
C 30.90341 17.87927 -0.0405
C 29.71336 17.13435 -0.01303
C 29.65238 15.74085 -0.01461
C 30.74158 14.92387 -0.02155
C 30.71891 13.58325 -0.00944
C 29.40025 12.93417 -0.03735
C 29.39122 11.46314 -0.00971
C 30.66046 10.76096 0.01518
C 30.56896 9.2774 0.01908
C 29.35261 8.58935 0.07705
C 33.26503 14.84885 0.00455
C 33.1626 13.4549 -0.00644
C 31.97434 12.78456 -0.01839
C 31.85886 11.40995 0.00137
C 34.13349 20.10347 0.01951
C 1.11182 19.26703 -0.01678
C 1.19179 17.83941 0.01223
C 0.00888 17.09603 0.00648
C 0.00059 15.69626 0.02114
C 1.23436 15.01793 -0.02957
C 1.11018 13.58475 0.00343
C 34.35578 12.75749 -0.02656
C 34.3661 11.32437 -0.02442
C 1.17571 10.6266 -0.00027
C 1.13303 9.30534 -0.00583
C 34.34364 8.56857 -0.02302
C 0.00035 7.12398 -0.02849
C 1.23677 6.471 0.02931
C 1.19609 5.04237 0.00628
C 34.36879 4.31008 -0.0345
C 34.37217 2.85589 -0.00931
C 1.13673 2.18078 -0.00939
C 1.14119 0.76803 -0.00468
C 34.23641 21.52811 -0.02213
C 27.02379 0.00041 0.03265
C 1.11094 22.10018 0.02712
C 34.24845 24.09607 0.03076
C 33.11435 10.66283 0.00199
C 33.08416 9.26522 0.04381
C 31.83502 8.59545 0.02806
C 31.91206 7.12523 0.01504
C 33.1565 6.44054 -0.00069
C 33.19744 5.01023 0.04926
C 31.94747 4.35769 -0.03838
C 31.92553 2.85636 0.00349
C 33.15679 2.17822 -0.00323
C 33.20066 0.69655 -0.00841
C 31.91235 34.05253 0.0001
C 0.01034 32.67986 -0.02927
C 1.17048 31.9542 -0.01404
C 1.23749 30.58433 0.01027
C 34.4136 29.86604 0.01831
C 34.38346 28.33641 -0.01037
C 1.13199 27.66724 -0.00439
C 1.12075 26.24044 -0.00598
C 34.37829 25.49792 -0.05239
C 1.09567 23.53176 0.00723
C 28.25845 0.73179 0.00261
C 28.19787 2.12805 0.02326
C 26.96537 2.81431 0.00924
C 23.34487 30.46499 -0.0055
C 22.0996 29.72047 0.01515
C 22.06197 28.31789 -0.00225
C 23.31049 27.63009 0.00071
C 23.35845 26.18947 -0.01107
C 22.10895 25.52502 -0.01586
C 22.08502 24.03764 -0.01971
C 23.37761 23.40945 -0.02118
C 23.41704 21.97513 0.00733
C 22.16932 21.45843 -0.00178
C 22.01354 7.02719 0.00768
C 23.30017 6.47785 -0.0276
C 23.31788 4.94372 0.03005
C 22.13129 4.19701 -0.04078
C 22.1539 2.65382 0.02117
C 23.37189 2.03942 0.02737
C 23.3411 0.64133 -0.00498
C 22.07366 34.02055 0.00135
C 24.58667 32.6524 0.03102
C 23.43126 31.90855 0.02734
C 25.75155 31.94095 0.02555
C 22.11703 32.58423 0.01153
C 20.81158 0.6235 -0.03213
C 18.29863 0.75445 -0.01154
C 17.1788 34.0751 -0.01721
C 19.69234 32.63426 -0.02422
C 20.88194 31.90653 0.01277
C 20.84784 30.46042 0.00096
C 19.61545 29.69241 -0.01527
C 19.57953 28.33522 0.01087
C 20.83753 27.62512 0.00199
C 20.91322 26.1334 0.01511
C 19.61389 25.48079 -0.00478
C 19.6219 24.04903 -0.01662
C 20.84043 23.3539 -0.01185
C 20.96679 21.97862 0.01126
C 19.80156 7.12744 0.01852
C 20.80811 6.26751 -0.00381
C 20.85998 4.79124 0.03046
C 19.64717 4.1256 0.0296
C 19.67788 2.73864 0.03374
C 20.84023 2.02149 -0.02845
C 19.52299 34.0129 0.02239
C 17.18709 2.88272 -0.01594
C 25.72004 30.52398 0.01423
C 24.51433 28.3475 -0.009
C 28.28719 26.20447 0.00152
C 27.12442 25.51534 0.01257
C 27.24335 24.11983 0.02316
C 28.55705 23.27314 0.04185
C 28.36556 21.8944 0.00194
C 27.13973 21.2864 -0.00621
C 27.13825 19.87433 0.02611
C 28.14156 18.92077 0.02198
C 28.32513 17.60251 0.01094
C 27.46053 16.27482 0.00235
C 28.17514 15.25482 0.01495
C 28.29987 13.91956 0.01259
C 28.14076 10.77684 0.01799
C 27.98226 9.29589 0.01699
C 26.81495 8.4971 -0.00416
C 26.98973 7.10418 0.01177
C 28.2077 6.41556 0.04266
C 28.17077 4.9299 0.01324
C 27.01821 4.19495 0.0014
C 28.28455 27.65843 -0.00294
C 24.50714 29.77387 -0.00285
C 27.01883 28.44526 0.00826
C 28.21637 30.57389 -0.00942
C 25.80913 27.68989 -0.01199
C 25.84889 26.11551 -0.00229
C 24.64261 25.49902 -0.00938
C 24.69427 24.08372 -0.0264
C 25.92858 23.42579 -0.01154
C 25.88852 22.02295 0.00684
C 24.62781 21.35655 -0.01052
C 24.67588 19.93425 -0.01679
C 25.83673 19.27578 0.00367
C 24.56779 7.14493 0.04306
C 25.76894 6.36008 0.00996
C 25.7345 4.93641 0.00195
C 24.54546 4.25068 -0.00802
C 24.52474 2.79956 -0.00218
C 25.76793 2.07427 -0.01654
C 25.78554 0.71064 -0.00037
C 24.53945 34.01066 -0.0032
C 26.96403 32.66078 0.00622
C 28.20104 31.97572 -0.02815
C 27.03533 29.85033 0.00487
C 2.33574 32.75272 0.01465
