392
Graphene
C 34.36765 34.07397 0.01295
C 13.48392 27.73867 0.01877
C 13.46307 26.32347 0.01363
C 12.20104 25.66122 -0.02162
C 12.27633 24.16207 0.00415
C 13.52568 23.42092 -0.0014
C 13.56936 21.96785 0.02162
C 12.24027 21.30873 0.0076
C 12.22963 19.9729 0.01241
C 13.35403 19.16969 -0.01454
C 12.15902 28.49313 -0.00925
C 12.44056 4.24538 0.01945
C 13.58194 2.13084 0.03542
C 13.51804 0.76981 0.02299
C 12.26191 0.0192 0.00244
C 14.71453 32.70623 -0.01717
C 15.99617 31.96174 0.05265
C 15.98885 30.526 -0.01952
C 14.74755 29.84672 -0.02813
C 14.7566 28.39332 0.00374
C 15.89968 27.66294 0.00052
C 12.31988 2.90807 0.01416
C 12.26775 29.88635 0.00444
C 13.52754 30.51919 -0.01789
C 13.48733 31.91516 0.02894
C 9.81705 28.37925 0.03589
C 11.00194 27.74676 -0.02759
C 10.97857 26.34031 0.0402
C 9.76677 25.59351 0.00572
C 9.74614 24.18835 0.03592
C 11.02224 23.46984 0.00406
C 11.05588 22.04907 0.00943
C 9.80449 21.32967 0.02841
C 9.79449 19.92106 -0.01111
C 11.01255 19.33526 -0.01275
C 11.07364 17.86509 0.00985
C 9.95764 17.05061 -0.02245
C 9.87353 15.69333 -0.00428
C 10.19401 6.81681 0.03101
C 11.13777 5.04818 -0.01536
C 9.90253 4.33629 -0.02689
C 9.85904 2.85549 -0.01046
C 11.04365 2.24362 -0.00891
C 10.98925 0.81838 0.02819
C 9.86164 0.06341 0.00165
C 12.28905 32.62911 -0.02971
C 15.98756 26.25618 -0.03682
C 9.79933 29.82907 -0.00033
C 14.76428 25.48 0.01965
C 15.97696 23.31165 -0.01957
C 17.32441 4.30059 -0.02213
C 17.10554 2.869 0.03698
C 18.42275 2.08114 -0.00109
C 18.39519 0.69087 -0.00491
C 17.22114 34.04557 0.03338
C 19.59328 32.61673 -0.0258
C 20.81107 31.96653 -0.0331
C 20.80659 30.46731 -0.00316
C 19.65858 29.78506 0.02188
C 18.32999 4.84795 0.00028
C 19.74202 28.3413 -0.01979
C 20.89429 26.26809 -0.01581
C 19.70153 25.55076 0.01452
C 19.66595 24.12001 0.04892
C 20.88298 23.41121 -0.00111
C 20.91719 22.02625 -0.03557
C 19.62899 21.24689 0.03754
C 19.66335 19.81687 0.01739
C 20.88639 19.14794 0.00755
C 20.97561 17.74718 -0.0054
C 20.86453 27.63443 0.02691
C 18.69209 17.73657 -0.00289
C 18.40891 19.13879 -0.00066
C 17.1044 19.78305 0.00213
C 15.84489 21.9166 -0.0108
C 14.70822 21.09837 -0.00368
C 14.6173 19.57765 -0.02696
C 15.88422 19.1993 -0.00114
C 14.39699 4.34735 0.00228
C 14.64852 2.9734 0.00798
C 15.89591 2.17646 0.00422
C 15.97175 0.70615 0.0351
C 14.74603 0.01288 -0.03113
C 17.15865 32.63565 0.02098
C 18.40097 31.87936 0.01848
C 18.38223 30.47997 -0.00619
C 17.20669 29.81885 -0.02162
C 17.25625 28.33503 0.00889
C 18.48629 27.63018 -0.00481
C 18.4691 26.20138 0.00979
C 17.22543 25.54931 0.01443
C 17.21946 24.12141 0.03505
C 18.38692 23.39704 -0.02815
C 18.38419 21.93023 -0.04147
C 17.14126 21.24267 -0.05302
C 14.724 24.08106 0.02058
C 19.69027 17.11572 0.00667
C 10.99859 30.56039 -0.01062
C 9.79413 32.75672 -0.00719
C 2.33053 4.36597 0.01465
C 2.41423 2.87442 -0.00074
C 3.60968 2.19888 -0.00518
C 3.64288 0.75659 0.0086
C 2.405 0.0081 -0.00643
C 4.88016 32.70836 0.017
C 6.12282 32.1052 -0.03113
C 6.10142 30.60596 -0.02566
C 4.84097 29.90553 -0.00094
C 3.58523 5.06385 -0.03996
C 4.8853 28.4505 0.02322
C 6.02525 26.3116 -0.05697
C 4.81008 25.6315 0.01087
C 4.83929 24.08324 -0.01343
C 6.10421 23.42999 0.00988
C 6.06415 22.0242 0.0276
C 4.8643 21.26808 0.01305
C 4.86594 19.90411 -0.00077
C 6.11886 19.21962 0.03368
C 6.23754 17.75745 -0.02929
C 6.11508 27.66409 -0.00725
C 3.6224 6.44733 0.01996
C 2.42652 7.14593 -0.00279
C 2.44681 8.5373 0.01226
C 3.6455 30.60529 0.01707
C 2.44819 29.8256 0.02769
C 2.42439 28.39723 -0.03291
C 3.63127 27.73091 -0.04999
C 3.63893 26.37023 0.04505
C 2.33768 25.54887 0.03284
C 2.3961 24.19554 -0.04307
C 3.60149 23.41622 0.03189
C 3.62463 21.99978 0.00031
C 2.46972 21.38197 -0.003
C 2.43916 19.86744 0.01402
C 3.62829 19.1429 0.02379
C 3.64275 17.73352 0.00907
C 2.44299 16.99 0.00643
C 2.48464 15.5892 -0.01509
C 3.67436 14.89998 0.03267
C 3.62297 13.53608 0.02374
C 2.44339 12.84098 0.00402
C 2.45868 11.39666 0.0073
C 3.70436 10.71941 0.0174
C 3.70118 9.30298 0.03828
C 4.85824 17.00595 -0.00966
C 11.06392 31.96614 0.01364
C 4.97046 15.58808 -0.03337
C 6.09003 13.53822 0.00873
C 7.3663 19.87766 -0.01384
C 8.60837 19.19211 0.03693
C 8.72476 17.82735 0.01745
C 7.45483 17.00839 0.00488
C 7.42793 15.61834 -0.01004
C 8.79776 14.84337 -0.02896
C 8.60001 13.43341 -0.00131
C 7.36776 12.84221 -0.01118
C 7.39579 11.48931 -0.014
C 7.35268 21.3583 -0.00482
C 8.63474 10.65468 0.02147
C 7.3201 8.53698 -0.00191
C 7.47724 7.12667 0.00438
C 8.71397 6.45918 0.01291
C 8.6768 5.04027 0.00093
C 7.43425 4.43034 0.00057
C 7.40561 2.9228 -0.01634
C 8.60727 2.20458 -0.00334
C 8.55812 0.75429 0.02339
C 7.38696 0.11801 0.01641
C 8.44044 9.46869 0.00373
C 8.58819 22.03861 0.02888
C 8.5799 23.46091 0.00685
C 7.31714 24.22116 0.00895
C 4.85691 12.86176 -0.00049
C 4.97541 11.38326 0.00848
C 6.24835 10.72736 -0.01303
C 6.10604 9.34676 -0.01378
C 4.86495 8.64294 0.02635
C 4.96298 7.14352 0.0127
C 6.15492 6.47212 0.01396
C 6.12029 5.12377 0.01849
C 4.84828 4.36241 -0.01142
C 4.87267 2.91805 -0.00562
C 6.06775 2.23446 -0.00494
C 6.12936 0.77737 0.00054
C 4.94665 0.06386 0.03007
C 7.35436 32.7387 -0.00095
C 8.57454 32.08665 0.01572
C 8.60003 30.59472 -0.04848
C 7.3508 29.92074 -0.00892
C 7.37732 28.47389 -0.01362
C 8.53167 27.71961 -0.0008
C 8.57187 26.32775 0.0288
C 7.35005 25.60966 0.00393
C 6.17766 14.96167 0.01227
C 20.64941 6.31772 0.00143
C 20.88118 4.96983 -0.017
C 19.66333 4.24464 0.00364
C 30.7234 4.9654 0.07705
C 29.46845 4.26401 0.0103
C 29.44585 2.80783 0.02108
C 30.67554 2.17039 0.00716
C 30.76 0.6715 0.00307
C 29.50531 34.05851 0.00346
C 31.99285 32.61512 0.01713
C 33.14563 31.90914 -0.01694
C 33.17739 30.48301 0.01428
C 30.69015 6.39177 0.01908
C 31.93099 29.81354 -0.02142
C 33.18828 27.71266 0.00026
C 33.1633 26.2681 0.00682
C 31.93252 25.57147 -0.01779
C 31.91737 24.15476 0.03794
C 33.14471 23.42549 0.01927
C 33.19088 22.02092 0.01574
C 32.02314 21.30316 -0.02383
C 31.99389 19.79846 -0.01429
C 33.23919 19.13251 -0.0136
C 32.00038 28.4391 0.0544
C 29.41332 7.13352 0.01518
C 29.48434 8.51739 -0.00971
C 30.65763 9.28861 -0.03735
C 30.73985 31.96804 0.04266
C 30.67486 30.57725 0.01324
C 29.48108 29.86669 0.0014
C 29.52311 28.36402 0.00924
C 30.74741 27.73496 0.02326
C 30.74586 26.32425 0.00261
C 29.55359 25.56302 0.03265
C 29.60649 24.13943 -0.02049
C 30.746 23.42641 -0.01854
C 30.84134 21.95951 -0.01415
C 29.52722 21.20328 -0.03039
C 29.58447 19.88083 0.01836
C 30.80051 19.12452 0.03531
C 30.72452 17.74234 -0.00669
C 29.49399 17.05027 0.0101
C 29.45935 15.67846 0.01705
C 30.62858 14.91425 -0.0405
C 30.6875 13.54269 -0.01303
C 29.41726 12.78218 -0.01461
C 29.48331 11.39941 -0.02155
C 30.69013 10.70444 -0.00944
C 33.23077 17.7271 0.00594
C 29.46337 32.63595 0.01177
C 31.99641 17.03426 -0.02474
C 33.21706 14.90021 0.00455
C 0.00675 21.28661 -0.02213
C 0.06479 19.90987 0.01951
C 1.28465 19.1859 -0.01678
C 1.34503 17.79417 0.01223
C 0.01636 16.98573 0.00648
C 0.02202 15.61769 0.02114
C 1.24347 14.91725 -0.02957
C 1.26119 13.50612 0.00343
C 34.36479 12.78087 -0.02656
C 1.22474 22.05502 0.02712
C 34.35837 11.39721 -0.02442
C 1.17341 9.29898 -0.00583
C 34.34233 8.54584 -0.02302
C 34.40387 7.16299 -0.02849
C 1.20288 6.44487 0.02931
C 1.15731 5.01355 0.00628
C 34.40697 4.33791 -0.0345
C 34.42675 2.92036 -0.00931
C 1.18072 2.17296 -0.00939
C 1.16726 0.7178 -0.00468
C 1.20029 10.70428 -0.00027
C 1.22279 23.41581 0.00723
C 34.39537 24.16675 0.03076
C 34.41488 25.5748 -0.05239
C 33.21773 13.53646 -0.00644
C 31.93204 12.80392 -0.01839
C 31.9299 11.35575 0.00137
C 33.15336 10.7175 0.00199
C 33.09221 9.24879 0.04381
C 31.88922 8.56986 0.02806
C 31.88211 7.11221 0.01504
C 33.10842 6.40937 -0.00069
C 33.14981 4.98477 0.04926
C 31.92854 4.30716 -0.03838
C 31.89967 2.78035 0.00349
C 33.1862 2.20179 -0.00323
C 33.11366 0.74442 -0.00841
C 31.97573 34.05965 0.0001
C 0.0239 32.63029 -0.02927
C 1.21777 31.94469 -0.01404
C 1.21608 30.57546 0.01027
C 0.00231 29.88977 0.01831
C 34.36686 28.42968 -0.01037
C 1.14744 27.74947 -0.00439
C 1.18928 26.26041 -0.00598
C 31.9087 15.56574 0.00369
C 27.05865 34.06551 -0.00416
C 28.26436 0.68863 0.01699
C 28.19108 2.08961 0.01799
C 22.27603 8.39427 -0.01185
C 21.92039 7.11649 0.01126
C 23.22416 6.43191 0.01852
C 23.2857 4.94413 -0.00381
C 22.06565 4.20447 0.03046
C 22.06074 2.76357 0.0296
C 23.37293 2.16322 0.03374
C 23.31052 0.71651 -0.02845
C 22.0684 34.066 -0.03213
C 23.2463 9.34735 -0.01662
C 24.55834 32.64353 0.02239
C 25.88323 30.5416 0.02734
C 24.65473 29.78846 -0.0055
C 24.61712 28.38214 0.01515
C 25.7854 27.65279 -0.00225
C 25.89426 26.20465 0.00071
C 24.65689 25.48748 -0.01107
C 24.64763 24.11603 -0.01586
C 25.87448 23.47155 -0.01971
C 25.84396 21.99698 -0.02118
C 25.79691 31.94779 0.01153
C 23.29642 10.74494 -0.00478
C 23.38416 13.37614 0.01511
C 23.14734 14.73224 0.00199
C 19.6072 2.81717 -0.00831
C 20.85911 2.09517 -0.02957
C 20.85101 0.69349 -0.04422
C 19.60664 34.03765 0.00654
C 22.05916 32.59168 -0.00703
C 23.27411 31.89347 -0.04076
C 23.37521 30.45909 -0.00652
C 22.10569 29.72909 0.0058
C 22.14056 28.2847 -0.00865
C 23.418 27.63152 0.00675
C 23.41051 26.22947 -0.00311
C 22.17817 25.48058 0.00742
C 22.08833 24.14766 -0.01594
C 23.36792 23.39685 0.0106
C 23.40312 22.02676 -0.01154
C 22.15346 21.27098 -0.01721
C 22.14652 19.88807 -0.02422
C 23.35101 19.22836 0.01277
C 23.34556 17.80752 0.00096
C 22.21899 17.08031 -0.01527
C 22.14873 15.81031 0.01087
C 24.63955 21.27938 0.00733
C 24.62157 19.95792 -0.00178
C 25.82422 19.14976 0.00768
C 25.83979 17.73656 -0.0276
C 27.14307 24.03474 -0.01654
C 28.42819 23.35531 -0.00037
C 28.28966 21.91537 -0.0032
C 27.15137 21.24778 0.00622
C 27.03337 19.81353 -0.02815
C 28.35897 19.12857 -0.00942
C 28.29008 17.75205 0.00487
C 26.98444 17.05681 0.00826
C 26.98276 15.61667 -0.00294
C 28.26738 14.95386 0.00152
C 28.22096 13.52398 0.01257
C 27.07863 12.80575 0.02316
C 26.96825 11.36369 0.04185
C 28.24328 10.66591 0.00194
C 28.22949 9.27266 -0.00621
C 26.98271 8.48224 0.02611
C 26.95489 7.09161 0.02198
C 28.21021 6.32485 0.01094
C 28.24766 4.90591 0.00235
C 27.02228 4.23866 0.01495
C 26.98446 2.78664 0.01259
C 27.11709 25.49769 -0.00218
C 3.669 31.99192 0.00208
C 28.29406 26.27653 -0.00802
C 27.09167 28.38058 0.00996
C 24.54801 17.08668 0.03005
C 24.44514 15.56207 -0.04078
C 25.73391 14.87509 0.02117
C 25.79997 13.50484 0.02737
C 24.50429 12.75502 -0.00498
C 24.57859 11.2681 0.00135
C 25.87535 10.61868 0.03102
C 25.78184 9.20257 0.02555
C 24.45257 8.57295 0.01423
C 24.46673 7.06654 -0.00285
C 25.74057 6.33403 -0.009
C 25.78062 4.84769 -0.01199
C 24.51519 4.21716 -0.00229
C 24.58784 2.82855 -0.00938
C 25.80342 2.06786 -0.0264
C 25.73304 0.64275 -0.01154
C 24.51635 0.0062 0.00684
C 27.08453 32.62649 -0.01052
C 28.2043 31.94559 -0.01679
C 28.32327 30.51063 0.00367
C 27.05998 29.71619 0.04306
C 28.26082 27.67409 0.00195
C 2.47724 32.72583 -0.00561
