400
Graphene
C 0.00919 0.01639 0.01295
C 12.27526 21.36233 0.00165
C 12.26956 19.88491 -0.02971
C 13.5101 19.16653 0.02894
C 13.48673 17.8105 -0.01789
C 12.2417 17.11366 0.00444
C 12.24684 15.70353 -0.00925
C 13.41605 14.89695 0.01877
C 13.4232 13.45334 0.01363
C 12.15593 12.79978 -0.02162
C 12.26811 11.27752 0.00415
C 13.57144 10.55389 -0.0014
C 13.61815 9.20285 0.02162
C 12.4046 8.51497 0.0076
C 13.55874 0.63348 0.01241
C 12.22008 0.12225 -0.01454
C 14.7716 32.66714 0.01945
C 16.03037 31.97371 0.01416
C 15.94609 30.48649 0.03542
C 14.70574 29.83652 0.02299
C 14.74802 28.40431 0.00244
C 15.9983 27.71629 -0.01717
C 13.53203 22.07261 0.02819
C 16.0124 26.27657 0.05265
C 13.57482 23.42336 -0.00891
C 12.28011 25.58305 -0.02689
C 11.03031 23.48627 0.02339
C 11.05877 22.09862 0.01641
C 9.91434 21.34771 -0.00719
C 9.83795 19.96225 0.01364
C 11.05741 19.26354 -0.01062
C 11.03429 17.8263 -0.00033
C 11.11771 14.94727 0.03589
C 10.96912 13.60952 -0.02759
C 9.71948 12.95516 0.0402
C 9.81699 11.49109 0.00572
C 11.0767 10.53076 0.03592
C 11.10099 8.93679 0.00406
C 9.74329 8.41227 0.00943
C 9.82397 0.10824 0.02841
C 12.28599 32.77889 -0.01111
C 13.48924 32.06569 -0.01275
C 13.43237 30.55346 0.00985
C 12.21183 29.79003 -0.02245
C 12.17786 28.37442 -0.00428
C 13.51187 27.6855 0.03101
C 13.53199 26.26534 -0.01536
C 12.28596 24.1692 -0.01046
C 9.79655 24.14065 -0.00334
C 14.75657 25.58508 -0.01952
C 15.96386 23.39378 0.00374
C 18.40509 27.75566 -0.05302
C 18.39193 26.32939 0.00213
C 17.18346 25.62033 -0.00066
C 17.15046 24.23161 -0.00289
C 18.41625 23.48546 0.00028
C 18.47016 22.02449 -0.02213
C 17.29295 21.3097 0.03698
C 17.28646 19.82515 -0.00109
C 18.49472 19.13784 -0.00491
C 18.44874 17.71369 0.03338
C 17.27688 16.98303 -0.0258
C 17.16705 15.55507 -0.0331
C 18.37093 14.89105 -0.00316
C 18.35769 13.4358 0.02188
C 17.10088 12.73468 -0.01979
C 17.204 11.3832 0.02691
C 18.47598 10.70006 -0.01581
C 18.3925 9.24524 0.01452
C 17.15313 8.45287 0.04892
C 17.0938 7.04568 -0.00111
C 18.3305 6.385 -0.03557
C 17.20919 28.42456 -0.04147
C 14.72899 24.15445 -0.02813
C 17.24105 29.80003 -0.02815
C 18.51469 31.99466 0.01443
C 16.02193 21.94952 0.00052
C 14.80229 21.34175 -0.03682
C 14.75907 19.90676 0.01965
C 16.0171 19.15835 0.02058
C 15.9773 17.70274 -0.01957
C 14.71231 17.04726 -0.0108
C 14.65031 15.6014 -0.00368
C 15.87056 14.92283 -0.02696
C 15.84393 13.54032 -0.00114
C 14.67687 12.7751 0.00228
C 14.75495 11.29349 0.00798
C 15.92344 10.6516 0.00422
C 15.94513 9.18441 0.0351
C 14.77334 8.45824 -0.03113
C 14.67412 7.05148 0.02098
C 15.79643 6.22432 0.01848
C 15.96112 4.86701 -0.00619
C 16.10013 2.12536 -0.02162
C 16.04939 0.71928 0.00889
C 14.82981 34.05522 -0.00481
C 17.22575 32.67209 0.00979
C 18.47911 30.54002 0.03505
C 18.43971 4.98074 0.03754
C 9.76501 25.5642 -0.01634
C 11.02357 27.74958 0.00093
C 2.39901 4.32613 0.00402
C 2.41071 2.87806 0.0073
C 3.6909 2.24663 0.0174
C 3.67267 0.7565 0.03828
C 2.44804 0.05476 0.01226
C 4.87295 32.687 -0.00279
C 6.17219 31.9901 0.01996
C 6.10531 30.57236 -0.03996
C 4.881 29.86106 0.01465
C 4.80578 28.4308 -0.00074
C 5.96677 27.68848 -0.00518
C 6.02431 26.32145 0.0086
C 4.85802 25.56533 -0.00643
C 4.91782 24.16937 0.017
C 6.12629 23.43862 -0.03113
C 6.21118 22.00949 -0.02566
C 4.97278 21.25561 -0.00094
C 4.86904 19.82025 0.02322
C 6.18128 19.1186 -0.00725
C 6.21923 17.66878 -0.05697
C 4.86314 17.03263 0.01087
C 3.60905 5.03581 0.02374
C 4.94234 15.61422 -0.01343
C 3.72693 6.40364 0.03267
C 2.40005 8.56466 0.00643
C 3.60608 30.54504 0.0064
C 2.39033 29.84849 0.00211
C 2.3666 28.43857 -0.00449
C 3.61914 27.73324 -0.01979
C 3.66125 26.33411 0.02784
C 2.45024 25.5795 -0.01977
C 2.43719 24.14647 -0.00561
C 3.69818 23.415 0.00208
C 3.68659 21.95847 0.01707
C 2.44879 21.27745 0.02769
C 2.43768 19.81629 -0.03291
C 3.65411 19.22376 -0.04999
C 3.62166 17.79848 0.04505
C 2.38194 17.03452 0.03284
C 2.41459 15.65361 -0.04307
C 3.64814 14.96235 0.03189
C 3.68098 13.5472 0.00031
C 2.4246 12.76521 -0.003
C 2.45462 11.34945 0.01402
C 3.66359 10.68983 0.02379
C 3.63655 9.25656 0.00907
C 2.4646 7.16521 -0.01509
C 11.03523 26.33575 0.00057
C 6.10913 14.84279 0.00988
C 4.92109 12.77974 0.01305
C 8.72099 17.75787 -0.0008
C 7.4953 16.90761 0.0288
C 7.46725 15.39402 0.00393
C 8.45584 13.68935 0.00895
C 7.31522 12.8121 0.00685
C 7.38673 11.3345 0.02888
C 8.6521 10.67198 -0.00482
C 8.61868 9.2046 -0.01384
C 7.39622 8.55654 0.03693
C 7.47023 7.05868 0.01745
C 8.87512 6.6556 0.00488
C 7.39277 4.50521 -0.01004
C 7.40447 3.02932 -0.02896
C 8.5764 2.415 -0.00131
C 8.72278 0.91041 -0.01118
C 7.41814 0.15205 -0.014
C 9.76781 32.68048 0.02147
C 11.11548 31.98048 0.00373
C 11.03099 30.55648 -0.00191
C 9.78689 29.83476 0.00438
C 9.80764 28.46463 0.01291
C 8.64442 19.16818 -0.01362
C 6.08655 13.48899 0.0276
C 7.4519 19.85771 -0.00892
C 8.65782 22.06456 0.01572
C 4.90528 11.38503 -0.00077
C 6.1242 10.69988 0.03368
C 6.19264 9.23878 -0.02929
C 4.9696 8.46259 -0.00966
C 4.97779 7.05147 -0.03337
C 6.24121 6.29692 0.01227
C 4.83508 4.32697 0.00873
C 4.91103 2.93579 -0.00049
C 6.04681 2.18794 0.00848
C 6.12991 0.80681 -0.01303
C 4.90501 0.01813 -0.01378
C 7.40272 32.76698 0.02635
C 8.54929 32.00558 0.0127
C 8.52345 30.51712 0.01396
C 7.33968 29.86298 0.01849
C 7.28023 28.44246 -0.01142
C 8.54865 27.8022 -0.00562
C 8.50528 26.28269 -0.00494
C 7.29011 25.62362 0.00054
C 7.32651 24.17147 0.03007
C 8.56625 23.43827 -0.00095
C 7.44043 21.29873 -0.04848
C 17.22773 4.23961 0.01739
C 17.21189 2.86498 0.00755
C 18.45894 2.11257 -0.0054
C 29.45212 11.34491 0.01518
C 30.69747 10.69136 0.01908
C 30.70478 9.25108 0.07705
C 29.47569 8.43416 0.0103
C 29.5533 7.08922 0.02108
C 30.76535 6.37612 0.00716
C 30.71981 4.96625 0.00307
C 29.50236 4.24356 0.00346
C 29.52727 2.8355 0.01713
C 30.73596 2.12884 -0.01694
C 30.77713 0.77909 0.01428
C 29.54612 0.0863 -0.02142
C 32.04894 32.59036 0.0544
C 33.23676 31.86198 0.00026
C 33.22312 30.50334 0.00682
C 31.989 29.81032 -0.01779
C 33.08456 27.53642 0.03794
C 33.25954 23.39805 0.01927
C 32.98952 22.12247 0.01574
C 31.87872 21.28949 -0.02383
C 31.95913 19.89865 -0.01429
C 29.42275 12.76833 -0.00971
C 33.22779 19.14951 -0.0136
C 30.65508 13.52509 -0.03735
C 29.41545 15.61747 -0.02155
C 28.20156 13.46949 -0.00416
C 26.90864 12.79168 0.01177
C 26.97823 11.32 0.04266
C 28.17169 10.59958 0.01324
C 28.23873 9.16653 0.0014
C 26.98273 8.49502 0.00924
C 27.07059 7.05052 0.02326
C 28.2527 6.38537 0.00261
C 28.28273 4.9696 0.03265
C 27.02597 4.23959 -0.02049
C 27.0594 2.89247 -0.01854
C 28.295 2.15462 -0.01415
C 28.30384 0.74822 -0.03039
C 27.07782 34.03955 0.01836
C 29.56195 32.71611 0.03531
C 30.80633 31.91231 -0.00669
C 30.84485 30.55844 0.0101
C 29.54676 19.80589 0.01705
C 30.77428 19.08835 -0.0405
C 30.70726 17.72262 -0.01303
C 29.47658 17.12773 -0.01461
C 30.62906 14.86773 -0.00944
C 28.11962 14.89613 0.01699
C 33.13608 17.73811 0.00594
C 31.89725 15.67169 0.00369
C 1.23133 22.07742 0.02712
C 34.42068 21.37475 -0.02213
C 0.0293 19.90854 0.01951
C 1.27615 19.16037 -0.01678
C 1.18451 17.7155 0.01223
C 34.38549 17.01192 0.00648
C 34.35649 15.63588 0.02114
C 1.19681 14.93043 -0.02957
C 1.17398 13.49332 0.00343
C 34.3626 12.72027 -0.02656
C 34.40847 11.3595 -0.02442
C 1.22894 10.67195 -0.00027
C 1.21014 9.23455 -0.00583
C 34.41917 8.46107 -0.02302
C 34.42369 7.06683 -0.02849
C 1.23734 6.45853 0.02931
C 1.16047 5.06711 0.00628
C 34.41834 4.30988 -0.0345
C 34.36063 2.92491 -0.00931
C 1.16535 2.21407 -0.00939
C 1.20106 0.79456 -0.00468
C 1.21179 23.50437 0.00723
C 31.92615 17.03816 -0.02474
C 34.28216 24.24493 0.03076
C 1.24074 26.22943 -0.00598
C 33.12409 14.93984 0.00455
C 33.1304 13.49587 -0.00644
C 31.87145 12.76079 -0.01839
C 31.92818 11.31814 0.00137
C 33.15352 10.68649 0.00199
C 33.12398 9.25424 0.04381
C 31.94592 8.48497 0.02806
C 31.97894 7.09528 0.01504
C 33.19522 6.38171 -0.00069
C 33.17749 4.98976 0.04926
C 31.94267 4.20816 -0.03838
C 31.94542 2.80496 0.00349
C 33.1918 2.1392 -0.00323
C 33.20653 0.70739 -0.00841
C 31.98002 0.009 0.0001
C 0.01405 32.64638 -0.02927
C 1.25171 31.96783 -0.01404
C 1.19175 30.53069 0.01027
C 34.41336 29.76878 0.01831
C 34.33688 28.35275 -0.01037
C 1.18084 27.62937 -0.00439
C 34.32683 25.64812 -0.05239
C 26.87951 15.58546 0.01799
C 26.99066 17.021 0.01259
C 28.25036 17.78885 0.01495
C 19.57185 8.53859 0.00199
C 19.59077 7.13537 0.01511
C 20.85083 6.35178 -0.00478
C 20.89099 4.9563 -0.01662
C 19.63679 4.28862 -0.01185
C 19.71579 2.83686 0.01126
C 20.91325 2.19035 0.01852
C 21.0162 0.72158 -0.00381
C 19.7749 0.00541 0.03046
C 22.23113 32.57986 0.0296
C 23.43478 31.88561 0.03374
C 23.51198 30.44975 -0.02845
C 22.24646 29.75067 -0.03213
C 22.15503 28.42208 0.02239
C 23.43928 27.59656 0.01153
C 23.34922 26.15387 0.02734
C 22.08171 25.58116 -0.0055
C 22.10963 24.13635 0.01515
C 23.36584 23.4184 -0.00225
C 23.57432 22.04114 0.00071
C 22.2254 21.37442 -0.01107
C 20.80135 9.18636 0.01087
C 22.17796 19.93816 -0.01586
C 20.90863 10.62024 -0.01527
C 19.70138 12.80309 0.01277
C 18.44482 0.71317 0.00667
C 17.26033 34.03604 0.00143
C 19.76719 32.60496 -0.017
C 20.99012 31.90937 0.00364
C 20.96976 30.51433 -0.00831
C 19.70445 29.86189 -0.02957
C 19.6539 28.39047 -0.04422
C 20.90315 27.67587 0.00654
C 20.88048 26.22642 -0.00703
C 19.66686 25.60838 -0.04076
C 19.67172 24.20411 -0.00652
C 20.88336 23.4569 0.0058
C 20.93229 22.04159 -0.00865
C 19.73754 21.29215 0.00675
C 19.7154 19.91105 -0.00311
C 20.93962 19.20289 0.00742
C 20.92766 17.75054 -0.01594
C 19.71111 17.00387 0.0106
C 19.67946 15.60615 -0.01154
C 20.90778 14.92212 -0.01721
C 20.91677 13.50114 -0.02422
C 19.64799 11.32924 0.00096
C 23.38958 19.27039 -0.01971
C 23.35485 17.84666 -0.02118
C 22.12018 17.14957 0.00733
C 24.55869 15.60715 -0.00802
C 25.74393 14.89556 -0.00218
C 25.75636 13.44931 -0.01654
C 24.52011 12.68858 -0.00037
C 24.55519 11.30691 -0.0032
C 25.77177 10.58776 0.00622
C 25.78116 9.15281 -0.02815
C 24.51365 8.50161 -0.00942
C 24.55962 7.10357 0.00487
C 25.80774 6.36073 0.00826
C 25.76295 4.97653 -0.00294
C 24.58223 4.21526 0.00152
C 24.56698 2.83278 0.01257
C 25.76323 2.11786 0.02316
C 25.82343 0.69796 0.04185
C 24.60396 34.03393 0.00194
C 27.14415 32.71557 -0.00621
C 28.34044 32.02401 0.02611
C 28.29839 30.60204 0.02198
C 26.99049 19.7605 0.01094
C 28.2937 19.32497 0.00235
C 24.52685 17.02092 0.00195
C 25.73686 17.68529 0.00996
C 25.78619 19.1293 0.04306
C 24.56074 19.89196 0.00367
C 22.10307 15.60827 -0.00178
C 23.27045 14.88321 0.00768
C 23.30821 13.46677 -0.0276
C 22.10267 12.74134 0.03005
C 22.11022 11.28415 -0.04078
C 23.29329 10.58398 0.02117
C 23.2253 9.16594 0.02737
C 21.97883 8.47819 -0.00498
C 22.06179 7.05943 0.00135
C 23.34353 6.40741 0.03102
C 3.66478 31.98241 -0.00039
C 23.36965 4.93817 0.02555
C 22.10107 2.84163 -0.00285
C 23.30832 2.13599 -0.009
C 23.40214 0.6928 -0.01199
C 22.15808 34.01673 -0.00229
C 24.71705 32.59853 -0.00938
C 25.94056 31.99129 -0.0264
C 26.14797 30.56589 -0.01154
C 24.86852 29.75853 0.00684
C 24.4341 28.45038 -0.01052
C 24.77815 21.22642 -0.01679
C 22.14707 4.23996 0.01423
C 2.48018 32.70094 0.02728
