334
Graphene
C 0.00189 0.07327 0.01295
C 18.4765 30.46661 0.01443
C 17.23573 29.89109 0.03505
C 17.24711 28.47949 -0.02815
C 18.45546 27.71568 -0.04147
C 18.45664 26.30245 -0.05302
C 17.23313 25.64226 0.00213
C 17.16422 23.99502 -0.00066
C 18.39777 31.90128 0.00979
C 18.42614 23.27156 -0.00289
C 17.30055 7.10795 -0.02213
C 18.48041 6.36638 0.03698
C 18.49229 4.9557 -0.00109
C 17.33052 4.22006 -0.00491
C 17.26235 2.85863 0.03338
C 18.46334 2.16253 -0.0258
C 18.47076 0.71867 -0.0331
C 17.25048 8.30219 0.00028
C 17.19939 32.64488 -0.00481
C 14.77974 34.05251 0.00889
C 15.9682 0.70605 -0.02162
C 12.35215 24.1322 0.00052
C 13.48722 23.39885 -0.03682
C 13.61098 2.23651 0.01965
C 13.41381 0.86989 0.02058
C 12.23831 0.04331 -0.01957
C 14.80977 32.64228 -0.0108
C 15.96028 31.93495 -0.00368
C 15.96393 30.59016 -0.02696
C 14.76386 29.81027 -0.00114
C 14.73629 28.37712 0.00228
C 16.01514 27.78862 0.00798
C 16.02605 26.31626 0.00422
C 14.72038 25.64673 0.0351
C 14.74775 24.13882 -0.03113
C 15.94447 23.35248 0.02098
C 14.6945 2.68619 0.01848
C 15.98559 2.1725 -0.00619
C 17.26507 34.04372 -0.00316
C 19.62416 32.5734 0.02188
C 20.89838 31.97109 -0.01979
C 20.90212 30.48797 0.02691
C 22.12766 29.78697 -0.00865
C 22.1526 28.36461 0.00675
C 23.40497 27.66271 -0.00311
C 23.37602 26.28122 0.00742
C 22.11416 25.67364 -0.01594
C 22.09344 24.23467 0.0106
C 23.29796 23.40843 -0.01154
C 23.29153 21.98984 -0.01721
C 22.00388 21.24001 -0.02422
C 22.20946 19.94757 0.01277
C 23.26301 19.11596 0.00096
C 23.34103 17.69598 -0.01527
C 23.35821 14.77915 0.01087
C 23.36912 13.57914 0.00199
C 22.29378 11.49761 0.01511
C 23.30714 10.65474 -0.00478
C 23.38965 9.22539 -0.01662
C 23.33419 30.52851 0.0058
C 12.28342 25.55149 0.00374
C 23.33352 31.93319 -0.00652
C 19.6623 34.03966 -0.00703
C 19.72224 29.75873 -0.01581
C 19.71242 28.37207 0.01452
C 20.93327 27.69705 0.04892
C 20.85209 26.2556 -0.00111
C 19.64276 25.60967 -0.03557
C 19.51608 24.13657 0.03754
C 20.8281 23.49329 0.01739
C 20.86025 22.12564 0.00755
C 20.87913 9.0889 -0.0054
C 19.84971 8.55358 0.00667
C 19.70196 7.18309 0.00143
C 20.94971 6.48242 -0.017
C 20.95343 4.98691 0.00364
C 19.74719 4.24257 -0.00831
C 19.68869 2.82716 -0.02957
C 20.90728 2.08476 -0.04422
C 20.85768 0.64244 0.00654
C 22.13703 32.69185 -0.04076
C 13.49867 26.26614 -0.02813
C 13.48154 27.71628 -0.01952
C 12.21461 28.44582 0.05265
C 2.42124 4.21369 -0.02896
C 2.39524 2.84542 -0.00131
C 3.61004 2.13168 -0.01118
C 3.69076 0.66897 -0.014
C 2.43963 0.05445 0.02147
C 4.92752 32.58404 0.00373
C 6.14182 31.86537 -0.00191
C 6.11916 30.48627 0.00438
C 4.90701 29.80331 0.01291
C 4.93928 28.38885 0.00093
C 6.19061 27.7478 0.00057
C 6.14768 26.30256 -0.01634
C 4.90676 25.54695 -0.00334
C 4.8885 24.12184 0.02339
C 6.13731 23.47151 0.01641
C 6.12048 22.07112 -0.00719
C 4.95551 21.3123 0.01364
C 3.70914 5.01003 -0.01004
C 4.89375 19.96764 -0.01062
C 3.65856 6.42813 0.00488
C 2.40297 8.51102 0.03693
C 3.67797 30.61477 -0.00562
C 2.48188 29.84934 -0.00494
C 2.48198 28.37481 0.00054
C 3.74837 27.6976 0.03007
C 3.69157 26.28797 -0.00095
C 2.48219 25.6188 0.01572
C 2.47929 24.21875 -0.04848
C 3.63902 23.43892 -0.00892
C 3.65774 21.9971 -0.01362
C 2.44898 21.26131 -0.0008
C 2.49481 19.83745 0.0288
C 3.85973 19.11994 0.00393
C 3.6346 17.82355 0.00895
C 2.6526 16.92586 0.00685
C 2.43657 15.59602 0.02888
C 2.28204 12.75384 -0.00482
C 2.35026 11.53788 -0.01384
C 2.41974 7.15171 0.01745
C 22.20407 8.54247 -0.01185
C 4.94502 7.04111 -0.00033
C 6.22608 5.04356 -0.02759
C 11.02819 31.92726 0.00444
C 11.06325 30.4948 -0.00925
C 9.75061 29.86246 0.01877
C 9.74853 28.45348 0.01363
C 10.99232 27.78251 -0.02162
C 11.10536 26.30617 0.00415
C 9.8523 25.57798 -0.0014
C 9.90153 24.08219 0.02162
C 11.15063 23.4214 0.0076
C 10.97254 22.04035 0.01241
C 9.97154 21.48841 -0.01454
C 11.05085 0.67715 0.01945
C 9.82592 0.06026 0.01416
C 12.30418 32.61733 0.03542
C 13.53272 31.9432 0.02299
C 13.54825 30.52852 0.00244
C 12.30524 29.83105 -0.01717
C 9.81653 32.67109 -0.01789
C 5.90124 6.30317 0.03589
C 7.42881 0.04685 0.02894
C 7.43469 2.78826 0.00165
C 4.95662 4.30043 0.0402
C 4.87536 2.78215 0.00572
C 6.20946 2.10593 0.03592
C 6.08493 0.6718 0.00406
C 4.88965 34.01611 0.00943
C 7.36364 32.64938 0.02841
C 8.59395 32.04181 -0.01111
C 8.56711 30.54258 -0.01275
C 7.40234 29.82421 0.00985
C 7.40746 28.41289 -0.02245
C 8.60846 27.72339 -0.00428
C 8.62454 26.31186 0.03101
C 7.38228 25.60658 -0.01536
C 7.40469 24.16568 -0.02689
C 8.62657 23.42959 -0.01046
C 8.5812 21.92922 -0.00891
C 7.33214 21.43599 0.02819
C 8.5679 0.70459 -0.02971
C 22.13744 7.15566 0.01126
C 23.42041 6.47018 0.01852
C 23.37271 5.05415 -0.00381
C 31.93461 28.41172 0.0544
C 33.18226 27.74228 0.00026
C 33.20336 26.31675 0.00682
C 31.8645 25.60576 -0.01779
C 31.9778 24.14993 0.03794
C 33.18693 23.41779 0.01927
C 33.21965 22.0153 0.01574
C 31.95763 21.3167 -0.02383
C 31.91564 19.90793 -0.01429
C 33.18547 19.21724 -0.0136
C 33.1639 17.76466 0.00594
C 31.95695 16.98497 -0.02474
C 31.94291 15.59858 0.00369
C 33.20526 14.89687 0.00455
C 33.14656 13.48224 -0.00644
C 31.95757 12.82136 -0.01839
C 32.01578 11.46002 0.00137
C 31.93948 29.82065 -0.02142
C 33.21337 10.67981 0.00199
C 33.14661 30.51931 0.01428
C 31.96659 32.64134 0.01713
C 29.47515 17.05421 0.0101
C 29.47921 15.68615 0.01705
C 30.6541 14.89479 -0.0405
C 30.70045 13.48313 -0.01303
C 29.48944 12.79182 -0.01461
C 29.46114 11.39125 -0.02155
C 30.74371 10.73252 -0.00944
C 30.76195 9.18315 -0.03735
C 29.54375 8.51088 -0.00971
C 29.52406 7.10092 0.01518
C 30.77029 6.41998 0.01908
C 30.78155 4.9986 0.07705
C 29.56637 4.26503 0.0103
C 29.48299 2.82002 0.02108
C 30.69851 2.17846 0.00716
C 30.70034 0.76613 0.00307
C 29.5395 0.00069 0.00346
C 33.19491 31.94107 -0.01694
C 30.6997 17.70606 -0.00669
C 33.22355 9.25086 0.04381
C 32.02398 7.09133 0.01504
C 1.23324 17.70897 0.01223
C 34.37987 17.05167 0.00648
C 34.41862 15.61967 0.02114
C 1.24766 14.98815 -0.02957
C 1.27537 13.55102 0.00343
C 0.01035 12.75602 -0.02656
C 0.05017 11.28717 -0.02442
C 1.30887 10.63129 -0.00027
C 1.26106 9.25498 -0.00583
C 34.42448 8.49826 -0.02302
C 34.39039 7.04942 -0.02849
C 1.22609 6.33735 0.02931
C 1.17017 4.90731 0.00628
C 34.36231 4.2466 -0.0345
C 34.35869 2.82382 -0.00931
C 1.15092 2.16075 -0.00939
C 1.19033 0.78415 -0.00468
C 1.26402 19.09627 -0.01678
C 31.98074 8.55478 0.02806
C 0.0348 19.89887 0.01951
C 1.24771 22.05658 0.02712
C 33.16813 6.34689 -0.00069
C 33.20207 4.94012 0.04926
C 31.99252 4.25353 -0.03838
C 31.94103 2.78452 0.00349
C 33.17145 2.10364 -0.00323
C 33.18237 0.72561 -0.00841
C 31.92455 0.00409 0.0001
C 0.01886 32.73165 -0.02927
C 1.24151 31.99796 -0.01404
C 1.25524 30.57925 0.01027
C 34.42938 29.88894 0.01831
C 34.42785 28.41573 -0.01037
C 1.2372 27.77607 -0.00439
C 1.203 26.34182 -0.00598
C 0.01128 25.55457 -0.05239
C 34.42377 24.13218 0.03076
C 1.22858 23.45967 0.00723
C 0.05033 21.32792 -0.02213
C 3.63477 32.01293 -0.01142
C 30.7388 19.09941 0.03531
C 29.49141 21.24107 -0.03039
C 24.57822 15.65478 -0.04078
C 25.88172 14.89201 0.02117
C 25.76801 13.46897 0.02737
C 24.48745 12.72032 -0.00498
C 24.59577 11.3131 0.00135
C 25.79327 10.6077 0.03102
C 25.85721 9.21247 0.02555
C 24.57774 8.54475 0.01423
C 24.59042 7.16824 -0.00285
C 25.82865 6.38388 -0.009
C 25.78085 4.96313 -0.01199
C 24.58203 4.23753 -0.00229
C 24.5061 2.8284 -0.00938
C 25.80614 2.13901 -0.0264
C 25.82024 0.7085 -0.01154
C 24.62192 0.02567 0.00684
C 27.01253 32.75929 -0.01052
C 24.5265 17.0647 0.03005
C 28.16342 32.0206 -0.01679
C 25.78591 17.72675 -0.0276
C 24.54541 19.88586 -0.00178
C 22.17643 4.327 0.03046
C 22.12789 2.84478 0.0296
C 23.35834 2.11508 0.03374
C 23.33672 0.69646 -0.02845
C 22.10706 0.01938 -0.03213
C 24.56467 32.64946 0.02239
C 25.75248 32.00219 0.01153
C 25.87251 30.50654 0.02734
C 24.57209 29.79601 -0.0055
C 24.58419 28.39193 0.01515
C 25.8011 27.70936 -0.00225
C 25.86837 26.21272 0.00071
C 24.54853 25.53132 -0.01107
C 24.55389 24.10184 -0.01586
C 25.85431 23.39077 -0.01971
C 25.8125 21.97969 -0.02118
C 24.52821 21.2543 0.00733
C 25.8412 19.15781 0.00768
C 29.532 19.86068 0.01836
C 28.31854 30.57375 0.00367
C 27.04577 28.40074 0.00996
C 28.27852 4.88234 0.00235
C 27.04926 4.22483 0.01495
C 27.0237 2.79449 0.01259
C 28.28094 2.11481 0.01799
C 28.35811 0.69471 0.01699
C 27.09103 0.03817 -0.00416
C 29.49164 32.66357 0.01177
C 30.62052 31.89746 0.04266
C 30.72615 30.44004 0.01324
C 29.49225 29.79341 0.0014
C 29.53133 28.37759 0.00924
C 30.72566 27.69478 0.02326
C 30.60512 26.23524 0.00261
C 29.39321 25.4901 0.03265
C 29.5081 24.09689 -0.02049
C 30.77511 23.39252 -0.01854
C 30.76076 21.9806 -0.01415
C 28.3129 6.33347 0.01094
C 27.06994 29.80287 0.04306
C 27.09291 7.0775 0.02198
C 28.31701 9.17636 -0.00621
C 28.25049 27.67837 0.00195
C 28.23512 26.24847 -0.00802
C 27.08426 25.49709 -0.00218
C 27.12786 24.08496 -0.01654
C 28.3089 23.34833 -0.00037
C 28.25419 21.92878 -0.0032
C 27.05581 21.25587 0.00622
C 27.07625 19.86923 -0.02815
C 28.30342 19.17102 -0.00942
C 28.25748 17.77822 0.00487
C 27.02735 17.0607 0.00826
C 27.12104 15.62167 -0.00294
C 28.29302 14.94492 0.00152
C 28.28003 13.5281 0.01257
C 27.0818 12.7995 0.02316
C 27.04922 11.30422 0.04185
C 28.29591 10.59512 0.00194
C 27.06331 8.48317 0.02611
C 2.43195 32.71466 0.01849
