301
Graphene
C 0.0138 0.02156 0.01295
C 19.737 11.34643 -0.00111
C 20.8657 10.67283 -0.03557
C 20.92451 9.25592 0.03754
C 19.70609 8.48897 0.01739
C 19.69512 7.1213 0.00755
C 20.93823 6.39698 -0.0054
C 19.64695 12.73921 0.04892
C 20.87287 4.96813 0.00667
C 19.66001 2.76148 -0.017
C 20.91404 2.14878 0.00364
C 20.96308 0.73798 -0.00831
C 19.70444 34.06951 -0.02957
C 22.15479 32.65955 -0.04422
C 23.39733 31.96057 0.00654
C 19.66352 4.29855 0.00143
C 20.91368 13.47003 0.01452
C 20.90857 14.86078 -0.01581
C 19.63346 15.63309 0.02691
C 17.25511 34.05807 -0.05302
C 19.63126 32.63561 0.00213
C 20.87933 31.96659 -0.00066
C 20.91524 30.50214 -0.00289
C 19.69517 29.8513 0.00028
C 19.64075 28.42871 -0.02213
C 20.92308 27.72421 0.03698
C 20.91553 26.24043 -0.00109
C 19.68786 25.52537 -0.00491
C 19.66756 24.16254 0.03338
C 20.89862 23.43164 -0.0258
C 20.91518 21.98416 -0.0331
C 20.90023 19.21504 -0.00316
C 20.9019 17.81316 0.02188
C 19.69558 17.03369 -0.01979
C 23.33831 30.54895 -0.00703
C 22.16735 29.77218 -0.04076
C 22.17929 28.40112 -0.00652
C 23.39213 27.69956 0.0058
C 23.40878 6.35525 0.01852
C 23.35156 4.91316 -0.00381
C 22.12925 4.26773 0.03046
C 22.16242 2.8142 0.0296
C 23.31544 2.10011 0.03374
C 23.38065 0.68774 -0.02845
C 22.18953 34.06968 -0.03213
C 24.60251 32.72149 0.02239
C 25.863 31.95399 0.01153
C 25.76232 30.56665 0.02734
C 24.56962 29.82709 -0.0055
C 24.57836 28.36653 0.01515
C 25.81297 27.67622 -0.00225
C 25.80991 26.33389 0.00071
C 24.59428 25.52654 -0.01107
C 22.14312 7.08476 0.01126
C 18.45499 0.74832 -0.04147
C 22.1382 8.49461 -0.01185
C 23.40328 10.69537 -0.00478
C 23.36449 26.2362 -0.00865
C 22.16443 25.56181 0.00675
C 22.13855 24.13709 -0.00311
C 23.39864 23.39172 0.00742
C 23.34906 21.97563 -0.01594
C 22.13053 21.26995 0.0106
C 22.13787 19.86314 -0.01154
C 23.36386 19.14539 -0.01721
C 23.32538 17.77303 -0.02422
C 22.10841 17.01864 0.01277
C 22.07925 15.60191 0.00096
C 23.30354 14.94343 -0.01527
C 23.36899 13.48828 0.01087
C 22.13153 12.77152 0.00199
C 22.14285 11.32543 0.01511
C 23.36081 9.22864 -0.01662
C 18.44641 2.13977 -0.02815
C 17.20756 2.84795 0.03505
C 17.25862 4.28609 0.01443
C 4.90444 29.83975 -0.00428
C 4.92365 28.38508 0.03101
C 6.13151 0.65958 -0.01536
C 4.90262 0.00278 -0.02689
C 7.43819 32.70695 -0.01046
C 8.62626 31.93622 -0.00891
C 8.59004 30.52337 0.02819
C 7.3695 29.86271 0.00165
C 7.36062 0.0172 -0.02971
C 9.79542 32.66042 0.02894
C 11.06015 31.9791 -0.01789
C 11.08991 30.51854 0.00444
C 11.0245 0.68974 -0.00925
C 9.84796 34.04493 0.01877
C 12.28567 32.64953 0.01363
C 6.15533 30.52474 -0.02245
C 13.50026 31.91045 -0.02162
C 6.17428 31.94734 0.00985
C 2.48588 0.00167 -0.01111
C 3.68763 30.58331 -0.00334
C 2.48494 29.8107 0.02339
C 2.44931 28.42519 0.01641
C 3.71578 27.70437 -0.00719
C 3.68045 26.32728 0.01364
C 2.49891 25.55539 -0.01062
C 2.42959 24.15855 -0.00033
C 2.41688 21.29724 0.03589
C 2.43415 19.88084 -0.02759
C 3.68698 17.76933 0.0402
C 2.44815 17.06976 0.00572
C 2.44279 15.61547 0.03592
C 2.47216 2.8646 0.00406
C 3.66933 2.13838 0.00943
C 3.6847 0.73657 0.02841
C 4.88257 32.74126 -0.01275
C 24.61451 24.14784 -0.01586
C 13.50476 30.51006 0.00415
C 13.52408 2.12735 0.02162
C 18.42481 31.97166 -0.00368
C 18.48182 30.46498 -0.02696
C 17.25151 29.82957 -0.00114
C 17.22131 28.40159 0.00228
C 18.48295 27.67541 0.00798
C 18.41627 14.9258 0.00422
C 18.4142 13.45744 0.0351
C 17.18566 12.81977 -0.03113
C 17.22031 11.35074 0.02098
C 18.47708 10.6181 0.01848
C 18.44447 9.25215 -0.00619
C 17.24201 8.53294 -0.02162
C 17.1829 7.08732 0.00889
C 18.45601 6.38711 -0.00481
C 18.37385 4.93215 0.00979
C 17.20682 32.7181 -0.0108
C 13.52125 13.52376 -0.0014
C 14.73294 0.00314 -0.01957
C 16.0212 2.15566 0.01965
C 13.52734 0.63956 0.0076
C 12.3189 0.00646 0.01241
C 14.78154 32.66392 -0.01454
C 15.97494 31.98648 0.01945
C 15.96469 30.55565 0.01416
C 14.69895 29.79485 0.03542
C 16.02417 13.46985 0.02299
C 14.79133 12.78026 0.00244
C 14.77729 11.34043 -0.01717
C 15.99674 10.64765 0.05265
C 15.98266 9.24663 -0.01952
C 15.95105 6.38094 -0.02813
C 16.0225 4.95555 0.00374
C 14.78214 4.24531 0.00052
C 14.79414 2.89154 -0.03682
C 15.96556 0.61294 0.02058
C 3.68061 31.96102 -0.01634
C 25.79601 23.45524 -0.01971
C 24.53913 21.26164 0.00733
C 32.00435 21.30523 -0.02383
C 31.96743 19.90329 -0.01429
C 33.19324 19.19325 -0.0136
C 33.20328 17.72056 0.00594
C 31.96666 17.06869 -0.02474
C 31.98977 15.61218 0.00369
C 33.23509 22.01113 0.01574
C 33.20911 14.87905 0.00455
C 31.96297 12.78645 -0.01839
C 31.98747 11.36031 0.00137
C 33.18066 10.64222 0.00199
C 33.15726 9.26774 0.04381
C 32.01051 8.50137 0.02806
C 31.96329 7.14955 0.01504
C 33.22357 13.49173 -0.00644
C 33.24391 23.44769 0.01927
C 31.95455 24.20593 0.03794
C 31.95347 25.57583 -0.01779
C 29.53609 7.10633 0.01518
C 30.70916 6.40794 0.01908
C 30.75669 5.00435 0.07705
C 29.50535 4.23972 0.0103
C 29.53368 2.8391 0.02108
C 30.72792 2.14101 0.00716
C 30.72916 0.72661 0.00307
C 29.52735 34.0654 0.00346
C 31.91156 32.65052 0.01713
C 33.17752 31.97528 -0.01694
C 33.20813 30.5075 0.01428
C 31.99769 29.79556 -0.02142
C 31.9636 28.42946 0.0544
C 33.18916 27.71782 0.00026
C 33.2228 26.31389 0.00682
C 33.20957 6.36059 -0.00069
C 33.1994 4.98386 0.04926
C 31.94221 4.25901 -0.03838
C 31.98586 2.86691 0.00349
C 34.40175 15.63715 0.02114
C 1.17395 14.90107 -0.02957
C 1.19213 13.50436 0.00343
C 34.42046 12.71736 -0.02656
C 34.4235 11.40265 -0.02442
C 1.17465 10.65616 -0.00027
C 1.23729 9.27599 -0.00583
C 34.42679 8.50229 -0.02302
C 34.42635 7.09906 -0.02849
C 1.20276 6.3597 0.02931
C 1.24316 4.96777 0.00628
C 0.02061 4.26126 -0.0345
C 34.42757 2.81748 -0.00931
C 1.24971 2.15048 -0.00939
C 1.24564 0.70637 -0.00468
C 34.39677 17.05179 0.00648
C 29.53275 8.51767 -0.00971
C 1.22179 17.71321 0.01223
C 0.03139 19.86629 0.01951
C 33.1922 2.135 -0.00323
C 33.19634 0.70416 -0.00841
C 31.98617 0.00468 0.0001
C 34.41607 32.65104 -0.02927
C 1.22378 31.95219 -0.01404
C 1.22038 30.54385 0.01027
C 0.02126 29.84388 0.01831
C 0.00943 28.37123 -0.01037
C 1.25654 27.63891 -0.00439
C 1.25143 26.28185 -0.00598
C 34.42597 25.61251 -0.05239
C 34.42594 24.12007 0.03076
C 1.19543 23.46107 0.00723
C 1.24381 21.99568 0.02712
C 34.39972 21.26346 -0.02213
C 1.22457 19.19954 -0.01678
C 30.724 9.24327 -0.03735
C 30.72725 10.65122 -0.00944
C 29.52124 11.3701 -0.02155
C 24.5954 34.05403 0.00684
C 27.07347 32.6167 -0.01052
C 28.31574 31.96047 -0.01679
C 28.31605 30.53268 0.00367
C 27.06899 29.78714 0.04306
C 27.05127 28.40743 0.00996
C 28.31411 27.67409 0.00195
C 28.26886 26.27326 -0.00802
C 27.06864 25.5751 -0.00218
C 27.0466 24.15718 -0.01654
C 28.27052 23.42188 -0.00037
C 28.32239 22.06668 -0.0032
C 27.03333 21.29757 0.00622
C 27.08206 19.89441 -0.02815
C 28.26007 19.17662 -0.00942
C 25.85688 0.72942 -0.01154
C 28.26907 17.72795 0.00487
C 25.84559 2.17062 -0.0264
C 24.59638 4.27678 -0.00229
C 24.56924 19.81824 -0.00178
C 25.79679 19.19176 0.00768
C 25.82428 17.78533 -0.0276
C 24.60894 17.09457 0.03005
C 24.5343 15.55245 -0.04078
C 25.78187 14.90698 0.02117
C 25.83561 13.50207 0.02737
C 24.67165 12.8098 -0.00498
C 24.56049 11.35873 0.00135
C 25.79097 10.64459 0.03102
C 25.79806 9.17951 0.02555
C 24.57092 8.52316 0.01423
C 24.59578 7.04392 -0.00285
C 25.82741 6.42969 -0.009
C 25.84591 4.97706 -0.01199
C 24.62067 2.85964 -0.00938
C 25.80795 21.99395 -0.02118
C 27.00844 17.01677 0.00826
C 28.24289 14.9087 0.00152
C 30.76968 27.68013 0.02326
C 30.74617 26.22824 0.00261
C 29.51146 25.5287 0.03265
C 29.48694 24.11718 -0.02049
C 30.75547 23.46293 -0.01854
C 30.73611 22.07405 -0.01415
C 29.53165 21.32816 -0.03039
C 29.50043 19.85835 0.01836
C 30.73833 19.18431 0.03531
C 30.76579 17.73328 -0.00669
C 29.51281 17.03817 0.0101
C 29.50174 15.58873 0.01705
C 30.76587 14.91427 -0.0405
C 30.73624 13.50372 -0.01303
C 29.49444 12.84304 -0.01461
C 29.52193 28.34653 0.00924
C 27.03809 15.61566 -0.00294
C 29.47848 29.80194 0.0014
C 30.76147 31.9456 0.04266
C 28.31844 13.50111 0.01257
C 26.9953 12.72054 0.02316
C 27.03975 11.3417 0.04185
C 28.30509 10.65298 0.00194
C 28.27718 9.20871 -0.00621
C 27.04443 8.54596 0.02611
C 27.07494 7.07268 0.02198
C 28.31519 6.37613 0.01094
C 28.3152 4.98051 0.00235
C 27.02894 4.24161 0.01495
C 27.07362 2.81399 0.01259
C 28.27979 2.10497 0.01799
C 28.25504 0.69057 0.01699
C 27.06312 34.06751 -0.00416
C 29.52018 32.63799 0.01177
C 30.73143 30.55341 0.01324
C 2.41407 32.65384 0.00057
