252
Graphene
C 0.0237 34.05818 0.01295
C 13.64287 9.33525 -0.03213
C 13.57489 13.61932 -0.02845
C 12.20435 24.22161 0.03374
C 12.45356 25.60574 0.0296
C 13.5873 26.37576 0.03046
C 13.54044 27.75961 -0.00381
C 12.29613 28.38684 0.01852
C 12.21012 29.74898 0.01126
C 13.49457 30.45246 -0.01185
C 13.54842 31.83476 -0.01662
C 12.34333 32.65831 -0.00478
C 9.88497 0.03763 0.01511
C 11.1104 0.71797 0.00199
C 11.05982 2.13996 0.01087
C 9.89915 2.7718 -0.01527
C 9.86653 4.41057 0.00096
C 11.184 4.91715 0.01277
C 10.6227 17.71622 -0.02422
C 9.78177 21.07754 -0.01721
C 10.83609 22.05483 -0.01154
C 11.15896 23.36598 0.0106
C 9.80521 24.19369 -0.01594
C 9.8222 25.537 0.00742
C 11.05223 26.28069 -0.00311
C 11.01537 27.69433 0.00675
C 9.83481 28.48965 -0.00865
C 9.81542 29.87113 0.0058
C 12.33963 7.05137 0.02239
C 13.53355 6.36541 0.01153
C 13.66524 4.96984 0.02734
C 12.37451 4.21147 -0.0055
C 17.36877 2.9574 0.00684
C 17.11765 4.28526 -0.01154
C 18.48347 27.9353 -0.0264
C 17.15588 28.20938 -0.00938
C 17.22244 29.81122 -0.00229
C 18.47121 30.45665 -0.01199
C 18.42852 31.90818 -0.009
C 17.27885 32.59678 -0.00285
C 14.80477 34.01967 0.01423
C 16.04321 0.68066 0.02555
C 16.03533 2.09949 0.03102
C 14.78913 2.8715 0.00135
C 14.80186 4.3169 -0.00498
C 11.03252 30.54717 -0.00652
C 16.01757 5.07021 0.02737
C 14.78667 8.38854 -0.04078
C 14.71091 11.42884 0.03005
C 14.41382 12.70722 -0.0276
C 15.91115 27.63393 0.00768
C 14.81386 28.37402 -0.00178
C 14.76353 29.8225 0.00733
C 16.00966 30.5146 -0.02118
C 15.97675 31.92247 -0.01971
C 14.70863 32.63591 -0.01586
C 12.35909 34.07303 -0.01107
C 13.63945 0.77092 0.00071
C 13.59217 2.13369 -0.00225
C 12.3499 2.80625 0.01515
C 14.70832 7.21217 0.02117
C 18.42065 2.14976 -0.01052
C 11.13015 32.01094 -0.04076
C 7.40948 34.04271 0.00654
C 6.14567 26.25695 -0.04147
C 6.17377 27.68764 -0.02815
C 4.92836 28.41589 0.03505
C 4.81919 29.81273 0.01443
C 6.04042 30.62052 0.00979
C 6.06209 32.01529 -0.00481
C 4.83963 32.6786 0.00889
C 2.48737 34.06509 -0.02162
C 3.68 0.73812 -0.00619
C 3.67461 2.16345 0.01848
C 2.4708 2.88343 0.02098
C 2.4911 4.33545 -0.03113
C 3.75075 4.98038 0.0351
C 2.43981 16.95343 0.00422
C 3.51795 17.7896 0.00798
C 3.70714 19.13791 0.00228
C 2.45599 19.90615 -0.00114
C 2.42237 21.37717 -0.02696
C 3.63133 22.06201 -0.00368
C 3.626 23.44199 -0.0108
C 2.37524 24.2149 -0.01957
C 2.39721 25.62185 0.02058
C 3.64672 26.20502 0.01965
C 3.65186 27.64647 -0.03682
C 2.4603 28.31551 0.00052
C 2.34165 29.7917 0.00374
C 3.5694 30.46047 -0.02813
C 4.90688 25.50182 -0.05302
C 4.90303 24.11355 0.00213
C 6.14272 23.48773 -0.00066
C 6.11679 22.0676 -0.00289
C 8.66273 0.62653 -0.04422
C 8.59517 2.18169 -0.02957
C 7.41764 2.88114 -0.00831
C 7.45827 4.40024 0.00364
C 8.66337 5.03232 -0.017
C 8.62568 19.07907 0.00143
C 7.39143 19.71197 0.00667
C 7.40882 21.26911 -0.0054
C 8.64739 21.93232 0.00755
C 8.59665 23.37747 0.01739
C 7.3939 24.10702 0.03754
C 7.39568 25.62163 -0.03557
C 8.59025 26.31978 -0.00111
C 9.85296 32.66296 -0.00703
C 8.63197 27.78561 0.04892
C 7.3059 29.88862 -0.01581
C 8.54672 30.52046 0.02691
C 8.59207 31.96254 -0.01979
C 7.36719 32.61724 0.02188
C 4.94927 0.00104 -0.00316
C 6.18987 0.69809 -0.0331
C 6.16068 2.07807 -0.0258
C 4.99953 2.7999 0.03338
C 4.9149 4.30838 -0.00491
C 6.17728 4.89037 -0.00109
C 6.06506 19.16059 0.03698
C 4.87603 19.90494 -0.02213
C 4.86174 21.43538 0.00028
C 7.34053 28.50525 0.01452
C 18.41055 0.71615 -0.01679
C 17.23925 33.97919 0.00367
C 19.73878 32.65767 0.04306
C 31.88876 4.22143 -0.00841
C 33.22652 5.07045 -0.00323
C 33.03401 6.43935 0.00349
C 31.89074 7.19437 -0.03838
C 33.33695 9.38246 0.04926
C 33.58451 10.56029 -0.00069
C 33.37039 13.57956 0.01504
C 33.08875 14.85291 0.02806
C 32.17481 15.72763 0.04381
C 31.77886 17.01038 0.00199
C 33.16948 17.7301 0.00137
C 33.17341 19.16237 -0.01839
C 31.89642 19.85034 -0.00644
C 31.92122 21.2763 0.00455
C 33.20775 22.04169 0.00369
C 33.18345 23.42265 -0.02474
C 31.98361 24.15041 0.00594
C 31.98724 25.62658 -0.0136
C 33.15226 26.29283 -0.01429
C 33.25348 27.67853 -0.02383
C 32.06147 28.30695 0.01574
C 31.97712 29.81049 0.01927
C 33.09965 30.52453 0.03794
C 33.14582 31.93295 -0.01779
C 31.90349 32.67717 0.00682
C 29.43585 0.04065 0.00026
C 30.66634 0.75244 0.0544
C 31.93318 2.73676 0.0001
C 33.17649 2.14369 -0.02927
C 33.20514 0.63665 -0.01404
C 31.90821 34.07331 0.01027
C 1.2516 0.67561 -0.00468
C 1.25687 2.14559 -0.00939
C 34.42419 2.85721 -0.00931
C 34.38295 4.31844 -0.0345
C 1.27944 5.03928 0.00628
C 1.21147 6.38274 0.02931
C 0.1036 7.26439 -0.02849
C 34.2228 8.47662 -0.02302
C 34.18366 11.64212 -0.00583
C 0.00154 12.85979 -0.00027
C 1.19854 15.11842 -0.02442
C 0.0026 15.74849 -0.02656
C 34.4089 17.15159 0.00343
C 30.66721 2.20913 -0.02142
C 1.24741 17.75895 -0.02957
C 34.40121 19.85285 0.00648
C 34.41951 21.28079 0.01223
C 1.19467 22.0302 -0.01678
C 1.17837 23.44997 0.01951
C 34.36808 24.16043 -0.02213
C 34.41195 25.55408 0.02712
C 1.15211 26.24121 0.00723
C 1.22191 27.67902 0.03076
C 0.03791 28.45769 -0.05239
C 34.40591 29.84749 -0.00598
C 1.18602 30.55776 -0.00439
C 1.18575 31.92842 -0.01037
C 34.39936 32.69727 0.01831
C 1.27373 19.189 0.02114
C 29.43411 2.85802 0.01428
C 30.79735 4.95639 -0.01694
C 30.70362 17.76094 0.01713
C 25.75054 0.76036 -0.00416
C 25.71584 2.0984 0.01699
C 25.90856 23.26229 0.01799
C 24.48172 25.79806 0.01259
C 25.82797 26.28242 0.01495
C 25.8254 27.68605 0.00235
C 24.59368 28.42224 0.01094
C 24.67161 29.80497 0.02198
C 25.85253 30.54097 0.02611
C 25.76256 31.95947 -0.00621
C 24.56729 32.66616 0.00194
C 22.09823 0.05573 0.04185
C 23.28699 0.69382 0.02316
C 24.48942 0.0622 0.01177
C 23.35806 26.3545 0.01257
C 22.13836 28.40087 -0.00294
C 22.23529 29.83736 0.00826
C 23.40407 30.5517 0.00487
C 23.40329 31.95791 -0.00942
C 22.16261 32.66067 -0.02815
C 19.61585 34.05158 0.00622
C 20.84716 0.71434 -0.0032
C 20.76087 2.09139 -0.00037
C 21.01689 27.76185 -0.01654
C 19.72662 28.25646 -0.00218
C 19.73629 29.86589 -0.00802
C 20.96817 30.50095 0.00195
C 20.94947 31.90829 0.00996
C 23.37153 27.69954 0.00152
C 3.64181 31.92975 -0.01952
C 27.07361 32.60843 0.04266
C 28.37088 30.54295 0.0014
C 30.63895 19.20644 0.00346
C 29.39866 19.83055 0.00307
C 29.45547 21.31716 0.00716
C 30.74139 21.97372 0.02108
C 30.80025 23.43129 0.0103
C 29.52073 24.12754 0.07705
C 29.4926 25.52155 0.01908
C 30.73316 26.25798 0.01518
C 30.80359 27.67876 -0.00971
C 29.59376 28.33274 -0.03735
C 29.57169 29.69937 -0.00944
C 30.71869 30.45652 -0.02155
C 30.69902 31.869 -0.01461
C 28.29729 31.93305 0.01324
C 29.47312 32.63626 -0.01303
C 28.18256 0.77436 0.01705
C 28.19837 2.18211 0.0101
C 28.15637 19.24198 -0.00669
C 27.29967 20.20608 0.03531
C 26.92992 21.44447 0.01836
C 28.18567 21.97298 -0.03039
C 28.30117 23.38181 -0.01415
C 26.97264 24.01971 -0.01854
C 26.98433 25.58935 -0.02049
C 28.32045 26.28697 0.03265
C 28.30373 27.64659 0.00261
C 27.06353 28.49534 0.02326
C 27.09636 29.87099 0.00924
C 26.96823 0.04805 -0.0405
C 2.50824 32.64226 0.05265
