343
Graphene
C 34.42601 0.02598 0.01295
C 11.11474 17.83834 0.01848
C 9.92194 17.05995 -0.00619
C 9.99064 15.58676 -0.02162
C 11.26898 14.88535 0.00889
C 11.11335 13.41221 -0.00481
C 9.86439 12.77471 0.00979
C 9.89497 11.36103 0.01443
C 11.10017 10.62734 0.03505
C 11.08448 9.25098 -0.02815
C 9.79342 8.57696 -0.04147
C 9.80226 7.13346 -0.05302
C 10.99121 6.37512 0.00213
C 11.09076 4.89339 -0.00066
C 9.80691 4.28489 -0.00289
C 9.79783 2.82472 0.00028
C 11.01949 2.16583 -0.02213
C 11.03858 0.76266 0.03698
C 10.99644 19.1781 0.02098
C 9.7706 19.90336 -0.03113
C 9.90466 21.30705 0.0351
C 11.10965 21.97324 0.00422
C 7.33103 7.14988 0.02299
C 8.60594 6.39956 0.00244
C 8.54823 4.9882 -0.01717
C 7.26935 4.25259 0.05265
C 7.37108 2.89966 -0.01952
C 8.55149 2.25871 -0.02813
C 8.62258 0.88343 0.00374
C 7.40018 0.11374 0.00052
C 9.80856 0.09949 -0.00109
C 9.8028 32.6895 -0.03682
C 10.98761 30.54004 0.02058
C 9.75776 29.91833 -0.01957
C 9.81498 28.40715 -0.0108
C 11.04519 27.69132 -0.00368
C 11.00831 26.35483 -0.02696
C 9.81066 25.56026 -0.00114
C 9.73983 24.14756 0.00228
C 11.02522 23.48477 0.00798
C 11.00773 31.9773 0.01965
C 7.36674 8.57917 0.03542
C 12.24296 32.77765 -0.00491
C 13.4973 30.58894 -0.0258
C 13.31364 6.28079 -0.00703
C 13.45766 4.8738 -0.04076
C 12.24974 4.22833 -0.00652
C 12.30832 2.83773 0.0058
C 13.59272 2.20057 -0.00865
C 13.51422 0.74613 0.00675
C 12.21944 0.0672 -0.00311
C 14.75686 32.65577 0.00742
C 15.97858 32.0029 -0.01594
C 15.98287 30.54472 0.0106
C 14.78374 29.79143 -0.01154
C 14.75452 28.3968 -0.01721
C 15.72151 27.47063 -0.02422
C 14.96427 25.8245 0.01277
C 14.92429 17.01154 0.00096
C 14.81357 15.60851 -0.01527
C 15.9535 14.75357 0.01087
C 12.2256 7.08259 0.00654
C 12.27522 8.49246 -0.04422
C 13.51506 9.16576 -0.02957
C 13.51721 10.55925 -0.00831
C 12.24582 29.86937 -0.0331
C 12.27282 28.39651 -0.00316
C 13.46019 27.7611 0.02188
C 13.57244 26.34789 -0.01979
C 12.28408 25.59094 0.02691
C 12.29081 24.18087 -0.01581
C 13.49163 23.4242 0.01452
C 13.40598 22.07411 0.04892
C 13.45742 32.04655 0.03338
C 12.30603 21.26549 -0.00111
C 13.5386 19.21848 0.03754
C 13.74386 17.77453 0.01739
C 12.42849 17.11121 0.00755
C 12.43608 15.63503 -0.0054
C 13.61398 14.82132 0.00667
C 13.54025 13.40785 0.00143
C 12.31894 12.75026 -0.017
C 12.29542 11.30098 0.00364
C 12.29994 19.82389 -0.03557
C 15.93302 13.42244 0.00199
C 8.63825 9.28837 0.01416
C 7.39593 11.36557 -0.01454
C 2.45062 7.13227 0.00685
C 3.68068 6.43275 0.02888
C 3.66373 5.05332 -0.00482
C 2.49106 4.33211 -0.01384
C 2.47237 2.93399 0.03693
C 3.69647 2.15925 0.01745
C 3.66444 0.72548 0.00488
C 2.46354 0.08424 -0.01004
C 4.90894 32.69507 -0.02896
C 6.07402 31.98181 -0.00131
C 6.09502 30.55509 -0.01118
C 4.85942 29.8732 -0.014
C 4.83526 28.41078 0.02147
C 6.05021 27.68698 0.00373
C 6.11211 26.23957 -0.00191
C 4.86403 25.58939 0.00438
C 4.9108 24.17015 0.01291
C 2.45765 8.5892 0.00895
C 3.68729 9.23415 0.00393
C 3.65982 10.71044 0.0288
C 2.46029 11.38984 -0.0008
C 3.64453 30.5541 -0.00049
C 2.40673 29.89437 0.00848
C 2.35134 28.41608 -0.01303
C 3.61012 27.65204 -0.01378
C 3.67679 26.24983 0.02635
C 2.38382 25.59752 0.0127
C 2.33927 24.19984 0.01396
C 3.60994 23.44238 0.01849
C 6.02358 23.42794 0.00093
C 3.70098 21.97967 -0.01142
C 2.37921 19.89242 -0.00494
C 3.6431 19.12717 0.00054
C 3.66227 17.75522 0.03007
C 2.36795 17.02894 -0.00095
C 2.46971 15.61886 0.01572
C 3.65613 14.88877 -0.04848
C 3.67317 13.43215 -0.00892
C 2.44408 12.85597 -0.01362
C 2.43575 21.39754 -0.00562
C 8.61721 10.69303 0.01945
C 6.16276 22.03767 0.00057
C 4.8154 19.8404 -0.00334
C 7.33274 29.86093 -0.01046
C 7.28436 28.42859 -0.00891
C 8.51996 27.68079 0.02819
C 8.54881 26.19701 0.00165
C 7.28689 25.49934 -0.02971
C 7.30645 24.13169 0.02894
C 8.58345 23.41563 -0.01789
C 8.64465 21.99279 0.00444
C 7.39207 21.34766 -0.00925
C 7.35964 19.89911 0.01877
C 8.57989 19.13876 0.01363
C 8.58425 17.75793 -0.02162
C 7.45254 17.01381 0.00415
C 7.41485 15.59103 -0.0014
C 8.68051 14.89419 0.02162
C 8.60132 13.45842 0.0076
C 7.34214 12.74825 0.01241
C 8.52639 30.59635 -0.02689
C 8.6178 32.10532 -0.01536
C 7.36298 32.681 0.03101
C 4.92061 0.0561 -0.00428
C 6.07818 19.22011 0.02339
C 6.20089 17.74428 0.01641
C 4.90063 17.05657 -0.00719
C 4.90873 15.60365 0.01364
C 6.14013 14.96851 -0.01062
C 6.16318 13.48183 -0.00033
C 4.91044 12.79353 0.03589
C 4.90557 11.39256 -0.02759
C 4.917 21.28461 -0.01634
C 6.09897 10.68999 0.0402
C 4.88415 8.55756 0.03592
C 4.89776 7.17868 0.00406
C 6.1504 6.42351 0.00943
C 6.15899 5.06415 0.02841
C 4.94552 4.31223 -0.01111
C 4.90505 2.84215 -0.01275
C 6.13613 2.14923 0.00985
C 6.14168 0.74584 -0.02245
C 6.10722 9.26859 0.00572
C 3.63758 31.98834 0.00873
C 14.83096 12.61229 0.01511
C 15.9438 10.32054 -0.01662
C 31.88838 29.89753 -0.02142
C 31.87749 28.4067 0.0544
C 33.14845 27.66067 0.00026
C 33.09578 26.21667 0.00682
C 31.83717 25.50115 -0.01779
C 31.87077 24.07844 0.03794
C 33.12611 23.44965 0.01927
C 33.04416 22.03832 0.01574
C 31.84675 21.26167 -0.02383
C 32.05728 19.89863 -0.01429
C 33.13593 19.10678 -0.0136
C 33.14524 17.66489 0.00594
C 31.73741 16.91795 -0.02474
C 31.95709 15.62252 0.00369
C 33.16071 14.97782 0.00455
C 33.16712 13.50814 -0.00644
C 31.98096 12.69579 -0.01839
C 33.12874 30.58656 0.01428
C 33.13766 31.98286 -0.01694
C 31.96653 32.7116 0.01713
C 29.48676 0.04688 0.00346
C 30.72021 27.63453 0.03531
C 30.58599 26.17805 -0.00669
C 29.34751 25.59723 0.0101
C 29.3974 24.16442 0.01705
C 30.61609 23.39182 -0.0405
C 30.62444 21.99912 -0.01303
C 29.42489 21.2896 -0.01461
C 29.52181 19.83578 -0.02155
C 31.97331 11.39211 0.00137
C 30.87822 19.26121 -0.00944
C 30.58426 9.1824 -0.00971
C 29.49829 7.07722 0.01518
C 30.66473 6.44243 0.01908
C 30.76031 5.0188 0.07705
C 29.6058 4.30977 0.0103
C 29.55186 2.8344 0.02108
C 30.75842 2.1141 0.00716
C 30.75199 0.7124 0.00307
C 30.68984 17.83275 -0.03735
C 29.41064 28.35654 0.01836
C 33.20688 10.6479 0.00199
C 31.86869 8.55924 0.02806
C 1.08916 17.75954 0.01223
C 34.34805 17.01785 0.00648
C 0.02305 15.62767 0.02114
C 1.2004 14.93014 -0.02957
C 1.20156 13.48804 0.00343
C 34.40293 12.83459 -0.02656
C 34.40109 11.39741 -0.02442
C 1.16145 10.6835 -0.00027
C 1.17579 9.32344 -0.00583
C 34.39907 8.52562 -0.02302
C 34.3669 7.12152 -0.02849
C 1.22398 6.4414 0.02931
C 1.21028 5.04098 0.00628
C 34.42534 4.28693 -0.0345
C 0.00512 2.82774 -0.00931
C 1.26414 2.22238 -0.00939
C 1.1521 0.82833 -0.00468
C 1.10279 19.11896 -0.01678
C 34.33333 19.85714 0.01951
C 34.32692 21.34479 -0.02213
C 1.13956 22.03612 0.02712
C 31.98864 7.0928 0.01504
C 33.1496 6.38406 -0.00069
C 33.20723 4.99089 0.04926
C 31.95221 4.25032 -0.03838
C 31.98968 2.83792 0.00349
C 33.21202 2.12147 -0.00323
C 33.20044 0.72664 -0.00841
C 31.91797 34.03794 0.0001
C 33.2166 9.25952 0.04381
C 34.42877 32.697 -0.02927
C 1.14424 30.50279 0.01027
C 34.34236 29.8513 0.01831
C 34.36636 28.35134 -0.01037
C 1.14883 27.78201 -0.00439
C 1.16915 26.33264 -0.00598
C 34.41388 25.60486 -0.05239
C 34.37888 24.19954 0.03076
C 1.15593 23.4777 0.00723
C 1.20967 31.91618 -0.01404
C 14.78819 11.21002 -0.00478
C 29.52316 29.83583 -0.03039
C 30.73521 31.99337 -0.01854
C 18.48145 0.81548 0.00768
C 17.22011 0.08289 -0.0276
C 19.62885 32.61693 0.03005
C 20.88051 31.9296 -0.04078
C 20.95903 30.37674 0.02117
C 19.70436 29.6998 0.02737
C 19.64541 28.14849 -0.00498
C 20.96687 27.59536 0.00135
C 20.99054 5.0737 0.03102
C 19.71974 4.45212 0.02555
C 19.61954 2.89799 0.01423
C 20.90117 2.20297 -0.00285
C 20.92767 0.71492 -0.009
C 19.64746 0.0482 -0.01199
C 22.10793 32.68941 -0.00229
C 23.30147 31.99849 -0.00938
C 23.34934 30.53566 -0.0264
C 18.40016 2.25967 -0.00178
C 17.20768 2.87394 0.00733
C 17.22693 4.35698 -0.02118
C 18.40243 5.16468 -0.01971
C 16.00343 9.06244 -0.01185
C 14.62589 8.39838 0.01126
C 14.65013 7.02951 0.01852
C 15.89994 6.48692 -0.00381
C 15.89563 5.04996 0.03046
C 14.7048 4.24019 0.0296
C 14.83083 2.8564 0.03374
C 15.99353 2.19963 -0.02845
C 22.13529 29.67598 -0.01154
C 15.9903 0.80475 -0.03213
C 17.20907 32.65965 0.01153
C 18.52007 31.89322 0.02734
C 18.48404 30.43941 -0.0055
C 17.20293 29.7518 0.01515
C 16.99856 28.20658 -0.00225
C 18.29964 27.59631 0.00071
C 17.07522 7.25542 -0.01107
C 18.17226 6.59087 -0.01586
C 14.73509 34.0607 0.02239
C 30.73231 30.55012 -0.01415
C 22.30636 28.17546 0.00684
C 22.12753 4.2441 -0.01679
C 27.04623 28.47638 0.02198
C 28.18112 27.6681 0.01094
C 28.06203 26.23509 0.00235
C 26.87605 25.50696 0.01495
C 26.78984 24.00595 0.01259
C 28.18011 23.43368 0.01799
C 28.16286 22.016 0.01699
C 26.97461 21.05539 -0.00416
C 27.45814 19.89409 0.01177
C 28.36973 18.95119 0.04266
C 28.26782 5.05174 0.01324
C 27.1129 4.43624 0.0014
C 27.127 2.92855 0.00924
C 28.29845 2.22354 0.02326
C 28.3199 0.77008 0.00261
C 27.08884 0.07485 0.03265
C 29.4405 32.77003 -0.02049
C 27.00532 29.86868 0.02611
C 28.25373 30.54975 -0.00621
C 28.2321 32.01463 0.00194
C 27.01188 32.71836 0.04185
C 22.14068 2.92608 0.00367
C 23.3118 2.14291 0.04306
C 23.40712 0.73169 0.00996
C 22.18261 0.07891 0.00195
C 24.57901 32.65462 -0.00802
C 25.79211 31.99142 -0.00218
C 25.79939 30.5957 -0.01654
C 24.55097 29.87965 -0.00037
C 23.62703 27.39656 -0.01052
C 24.58537 28.34106 -0.0032
C 25.64614 26.39289 -0.02815
C 24.25847 26.08956 -0.00942
C 25.5373 23.61909 0.00487
C 24.62328 4.32366 0.00826
C 24.59916 2.9806 -0.00294
C 25.84058 2.1952 0.00152
C 25.8233 0.71824 0.01257
C 24.61736 0.02721 0.02316
C 25.85046 27.7755 0.00622
C 2.43075 32.73856 0.01227
