342
Graphene
C 34.34973 0.01665 0.01295
C 18.59657 17.73579 0.01848
C 18.43038 10.8095 -0.00619
C 18.31922 9.48337 -0.02162
C 17.4191 8.44271 0.00889
C 17.19508 7.08794 -0.00481
C 18.39502 6.29816 0.00979
C 18.381 4.94335 0.01443
C 17.17626 4.21428 0.03505
C 17.18519 2.81982 -0.02815
C 18.46145 2.04704 -0.04147
C 18.49594 0.63331 -0.05302
C 17.24598 34.02359 0.00213
C 19.74773 32.68121 -0.00066
C 20.94707 31.9507 -0.00289
C 20.98344 30.50092 0.00028
C 19.68693 29.80447 -0.02213
C 19.63574 28.43084 0.03698
C 18.19108 19.06493 0.02098
C 20.88633 27.7052 -0.00109
C 17.00311 19.84378 -0.03113
C 18.24898 21.95649 0.00422
C 15.97628 6.37113 0.00244
C 16.05061 4.97582 -0.01717
C 14.77609 4.21328 0.05265
C 14.74773 2.77776 -0.01952
C 15.97042 2.10584 -0.02813
C 16.02064 0.68479 0.00374
C 14.76217 0.00743 0.00052
C 17.34534 32.67846 -0.03682
C 18.56033 31.96543 0.01965
C 18.47315 30.49913 0.02058
C 17.22555 29.83194 -0.01957
C 17.28994 28.40298 -0.0108
C 18.49399 27.6705 -0.00368
C 18.44758 26.2596 -0.02696
C 17.19241 25.58612 -0.00114
C 17.21447 24.18828 0.00228
C 18.3921 23.32432 0.00798
C 16.97485 21.22293 0.0351
C 20.8909 26.29773 -0.00491
C 19.6874 25.58635 0.03338
C 19.65602 24.1211 -0.0258
C 19.74386 34.02707 -0.00703
C 22.23419 32.67017 -0.04076
C 23.47447 31.91674 -0.00652
C 23.41281 30.47779 0.0058
C 22.157 29.75874 -0.00865
C 22.16165 28.4257 0.00675
C 23.34262 27.69013 -0.00311
C 23.34888 26.24984 0.00742
C 22.14402 25.5112 -0.01594
C 22.10722 24.08808 0.0106
C 23.35314 23.49458 -0.01154
C 23.33662 22.02651 -0.01721
C 22.05843 21.29206 -0.02422
C 22.04007 19.8807 0.01277
C 23.28554 19.19902 0.00096
C 23.33522 17.83708 -0.01527
C 22.09561 17.13692 0.01087
C 20.98698 0.68141 0.00654
C 20.91098 2.05379 -0.04422
C 19.65374 2.74041 -0.02957
C 19.5731 4.19647 -0.00831
C 20.88812 23.34891 -0.0331
C 20.82541 21.98359 -0.00316
C 19.58752 21.21689 0.02188
C 19.5108 19.81052 -0.01979
C 20.79473 19.19236 0.02691
C 20.84563 17.77397 -0.01581
C 19.66137 16.98234 0.01452
C 19.67037 15.5425 0.04892
C 15.90006 22.08294 0.02299
C 20.93479 14.969 -0.00111
C 19.66355 12.92592 0.03754
C 19.58312 11.49724 0.01739
C 20.81471 10.69595 0.00755
C 20.83077 9.305 -0.0054
C 19.56845 8.60117 0.00667
C 19.62821 7.08812 0.00143
C 20.84626 6.32943 -0.017
C 20.79902 4.93582 0.00364
C 20.93343 13.46112 -0.03557
C 15.99534 23.48694 0.03542
C 14.77268 24.23612 0.01416
C 14.7406 25.63952 0.01945
C 4.89263 4.15589 0.02888
C 4.97198 2.77511 -0.00482
C 6.1608 2.08011 -0.01384
C 6.15038 0.6986 0.03693
C 4.90838 34.05207 0.01745
C 7.35291 32.6257 0.00488
C 8.59734 31.94304 -0.01004
C 8.59035 30.52865 -0.02896
C 7.35729 29.87686 -0.00131
C 7.2928 28.41981 -0.01118
C 8.46906 27.79319 -0.014
C 8.47982 26.38257 0.02147
C 7.35706 25.6374 0.00373
C 7.32958 24.28531 -0.00191
C 8.3835 23.37121 0.00438
C 8.50209 4.91102 0.01291
C 7.31257 4.33599 0.00093
C 5.99995 4.87225 0.00685
C 6.37556 23.24309 0.00895
C 4.93316 28.41793 0.00393
C 4.91071 29.84244 0.0288
C 3.67606 30.57453 0.00848
C 2.43347 29.87516 -0.01303
C 2.42668 28.51362 -0.01378
C 3.67056 27.73947 0.02635
C 2.57002 25.76996 0.0127
C 2.61861 24.37935 0.01396
C 3.67343 23.43899 0.01849
C 3.53089 22.26096 -0.01142
C 7.36424 2.89625 0.00057
C 2.52682 21.17897 -0.00562
C 2.52731 4.22206 0.00054
C 2.49368 2.80944 0.03007
C 3.73465 2.13025 -0.00095
C 3.68651 0.73298 0.01572
C 2.37826 0.0332 -0.04848
C 4.88848 32.64697 -0.00892
C 6.0708 31.93261 -0.01362
C 6.11199 30.57581 -0.0008
C 2.62724 19.76132 -0.00494
C 22.10835 15.70693 0.00199
C 8.5745 2.19585 -0.01634
C 7.34701 34.06758 0.02339
C 13.54362 26.28367 -0.00891
C 12.25118 25.59895 0.02819
C 12.29607 24.15228 0.00165
C 13.57565 23.50751 -0.02971
C 13.59097 5.01124 0.02894
C 12.2636 4.36609 -0.01789
C 12.35562 2.89134 0.00444
C 13.51947 2.16171 -0.00925
C 13.55521 0.75151 0.01877
C 12.30622 0.02817 0.01363
C 14.75654 32.67194 -0.02162
C 16.00221 32.03213 0.00415
C 16.00179 30.57812 -0.0014
C 14.78203 29.88721 0.02162
C 14.76776 28.44544 0.0076
C 16.02193 27.7925 0.01241
C 15.98531 26.3465 -0.01454
C 13.52156 27.72611 -0.01046
C 12.24824 28.48907 -0.02689
C 12.28348 29.85271 -0.01536
C 13.53479 30.57573 0.03101
C 9.87441 32.69194 0.01641
C 11.03714 31.93005 -0.00719
C 11.01056 30.5259 0.01364
C 9.82144 29.75453 -0.01062
C 9.7667 28.3723 -0.00033
C 10.98971 27.72282 0.03589
C 10.96295 26.30461 -0.02759
C 9.72951 25.58021 0.0402
C 8.54095 0.66377 -0.00334
C 9.66506 24.11012 0.00572
C 10.9991 5.01717 0.00406
C 9.75162 4.49302 0.00943
C 9.85329 2.95641 0.02841
C 11.11334 2.19668 -0.01111
C 11.02918 0.79924 -0.01275
C 9.76527 34.05648 0.00985
C 12.2355 32.6202 -0.02245
C 13.46713 31.95272 -0.00428
C 10.96301 23.69665 0.03592
C 23.28244 14.9315 0.01511
C 23.3178 13.51016 -0.00478
C 22.14731 12.76336 -0.01662
C 31.95804 32.62078 -0.02142
C 33.2015 31.94277 0.0544
C 33.20391 30.56591 0.00026
C 31.95298 29.82372 0.00682
C 31.95484 28.39506 -0.01779
C 33.18919 27.64831 0.03794
C 33.23524 26.19105 0.01927
C 31.97974 25.53429 0.01574
C 31.97042 24.12939 -0.02383
C 33.21979 23.42202 -0.01429
C 33.25271 21.99303 -0.0136
C 31.95761 21.24984 0.00594
C 31.9666 19.88799 -0.02474
C 33.25753 19.1441 0.00369
C 33.22855 17.72661 0.00455
C 31.96494 17.05899 -0.00644
C 31.87255 15.63421 -0.01839
C 29.45491 34.04235 0.01428
C 30.69764 0.68223 -0.01694
C 30.72788 2.1514 0.01713
C 29.51932 2.86319 0.00346
C 30.71745 22.01886 0.03531
C 29.47962 21.32935 -0.00669
C 29.51331 19.97858 0.0101
C 30.70482 19.23033 0.01705
C 30.73777 17.8512 -0.0405
C 29.47419 17.09981 -0.01303
C 29.44909 15.67372 -0.01461
C 30.68827 14.94776 -0.02155
C 33.14598 14.89801 0.00137
C 30.72643 13.4834 -0.00944
C 29.51402 11.35169 -0.00971
C 30.739 10.67224 0.01518
C 30.70614 9.29867 0.01908
C 29.50205 8.53673 0.07705
C 29.51693 7.04325 0.0103
C 30.81025 6.39009 0.02108
C 30.70541 4.92105 0.00716
C 29.4531 4.24627 0.00307
C 29.47727 12.85008 -0.03735
C 30.69473 23.42299 0.01836
C 33.22258 13.5171 0.00199
C 31.94249 11.40004 0.02806
C 0.06571 21.30355 0.01223
C 0.07694 19.85593 0.00648
C 1.4701 19.0836 0.02114
C 1.13251 17.82625 -0.02957
C 0.0774 16.99191 0.00343
C 34.38538 15.58945 -0.02656
C 0.02075 12.88814 -0.02442
C 0.01935 11.54641 -0.00027
C 1.09621 10.53022 -0.00583
C 1.10411 9.35337 -0.02302
C 0.01699 8.42043 -0.02849
C 34.42933 6.9892 0.02931
C 1.24017 4.86854 0.00628
C 0.00116 4.28063 -0.0345
C 34.40782 2.86741 -0.00931
C 1.23716 2.24875 -0.00939
C 1.17556 0.75815 -0.00468
C 1.30642 21.98617 -0.01678
C 1.30443 23.42627 0.01951
C 0.06297 24.11745 -0.02213
C 0.02654 25.61193 0.02712
C 33.18293 10.75293 0.01504
C 33.21702 9.26011 -0.00069
C 31.95107 8.596 0.04926
C 32.01614 7.13887 -0.03838
C 33.23038 6.44674 0.00349
C 33.17382 5.00057 -0.00323
C 31.95183 4.24309 -0.00841
C 31.97369 2.86643 0.0001
C 31.93322 12.8515 0.04381
C 33.18033 2.13169 -0.02927
C 31.93284 34.05281 0.01027
C 34.38196 32.66419 0.01831
C 1.16446 32.00085 -0.01037
C 1.19193 30.5568 -0.00439
C 0.05263 29.84264 -0.00598
C 34.42228 28.41408 -0.05239
C 1.21381 27.67258 0.03076
C 1.23251 26.28024 0.00723
C 33.10595 0.74284 -0.01404
C 3.65534 31.96153 -0.00049
C 29.47473 24.15805 -0.03039
C 30.71208 26.31157 -0.01854
C 25.74097 22.05255 0.00768
C 24.57464 21.31264 -0.0276
C 24.59695 19.90484 0.03005
C 25.79752 19.20536 -0.04078
C 25.76368 17.83377 0.02117
C 24.59339 17.03451 0.02737
C 24.63341 15.59363 -0.00498
C 25.84002 14.91755 0.00135
C 25.8082 13.5108 0.03102
C 24.54416 12.79256 0.02555
C 24.53769 11.43135 0.01423
C 25.73978 10.61479 -0.00285
C 25.78533 9.21831 -0.009
C 24.571 8.50348 -0.01199
C 24.59028 7.10685 -0.00229
C 25.86328 6.36282 -0.00938
C 25.72866 4.91273 -0.0264
C 25.82795 23.45668 -0.00178
C 24.58268 24.13614 0.00733
C 24.57243 25.53716 -0.02118
C 25.8329 26.25048 -0.01971
C 22.08089 11.36327 -0.01185
C 23.33907 10.69652 0.01126
C 23.28002 9.30629 0.01852
C 22.0995 8.52319 -0.00381
C 22.09262 7.04541 0.03046
C 23.37305 6.38699 0.0296
C 23.29314 4.93654 0.03374
C 22.07657 4.23168 -0.02845
C 24.5446 4.22496 -0.01154
C 22.09517 2.77785 -0.03213
C 23.44441 0.70126 0.01153
C 22.17297 34.0519 0.02734
C 24.64766 32.61006 -0.0055
C 25.86971 31.86501 0.01515
C 25.8274 30.47946 -0.00225
C 24.59871 29.81886 0.00071
C 24.61117 28.36573 -0.01107
C 25.8269 27.61776 -0.01586
C 23.34521 2.15326 0.02239
C 29.45808 25.58932 -0.01415
C 24.51388 2.79335 0.00684
C 25.82724 0.69757 -0.01679
C 28.28724 10.60451 0.02198
C 28.31783 9.17411 0.01094
C 27.03143 8.53227 0.00235
C 27.02272 7.08185 0.01495
C 28.26865 6.39206 0.01259
C 28.2394 4.93637 0.01799
C 27.01711 4.21543 0.01699
C 27.02326 2.80167 -0.00416
C 28.24957 2.11994 0.01177
C 28.23907 0.63253 0.04266
C 26.96071 34.00624 0.01324
C 29.55695 32.61979 0.0014
C 30.74233 31.94484 0.00924
C 30.7854 30.54803 0.02326
C 29.52131 29.84511 0.00261
C 29.493 28.42809 0.03265
C 30.74842 27.67961 -0.02049
C 27.04037 11.33265 0.02611
C 27.05075 12.80288 -0.00621
C 28.29365 13.54038 0.00194
C 28.26547 14.95459 0.04185
C 24.63678 34.0622 0.00367
C 27.10126 32.58841 0.04306
C 28.31977 31.89939 0.00996
C 28.31001 30.486 0.00195
C 27.06293 29.78067 -0.00802
C 27.03352 28.37623 -0.00218
C 28.28037 27.64451 -0.01654
C 28.23708 26.21191 -0.00037
C 25.77356 2.06318 -0.01052
C 27.05952 25.59727 -0.0032
C 28.20026 23.43259 -0.02815
C 28.23133 22.04543 -0.00942
C 26.99609 21.32537 0.00487
C 27.06323 19.91817 0.00826
C 28.31967 19.25137 -0.00294
C 28.2515 17.79653 0.00152
C 27.02941 17.11756 0.01257
C 27.0198 15.6225 0.02316
C 27.00656 24.20021 0.00622
C 2.44091 32.68569 0.00873
