345
Graphene
C 0.02508 34.05599 0.01295
C 9.77054 2.87198 0.02098
C 11.06949 2.14879 0.01848
C 11.04976 0.74324 -0.00619
C 9.71873 0.05673 -0.02162
C 12.20177 32.61322 0.00889
C 13.48142 32.10808 -0.00481
C 13.4679 17.46911 0.00979
C 12.29118 16.94184 0.01443
C 12.27274 15.5826 0.03505
C 13.55675 14.87002 -0.02815
C 13.5663 13.44489 -0.04147
C 12.33122 12.81467 -0.05302
C 12.36581 11.39181 0.00213
C 13.57666 10.67658 -0.00066
C 13.55755 9.14942 -0.00289
C 12.33958 8.41727 0.00028
C 12.30421 7.00379 -0.02213
C 9.73509 4.2903 -0.03113
C 10.97393 4.89939 0.0351
C 11.05022 6.29427 0.00422
C 9.902 6.99217 0.00798
C 8.5499 2.12615 0.03542
C 8.55663 0.68026 0.02299
C 7.27039 0.0231 0.00244
C 9.79584 32.67804 -0.01717
C 10.97211 31.93893 0.05265
C 9.89509 30.06937 -0.01952
C 9.82399 19.8378 -0.02813
C 11.02764 19.18098 0.00374
C 13.53612 6.36781 0.03698
C 11.09054 17.75825 0.00052
C 9.7997 15.68355 0.01965
C 11.03218 14.87716 0.02058
C 11.1034 13.41577 -0.01957
C 9.89142 12.73813 -0.0108
C 9.94233 11.30111 -0.00368
C 11.17168 10.58604 -0.02696
C 11.10985 9.21675 -0.00114
C 9.92213 8.54061 0.00228
C 9.82763 17.19051 -0.03682
C 7.35434 2.87942 0.01416
C 13.58795 4.89169 -0.00109
C 12.29552 2.86961 0.03338
C 14.66839 0.02156 0.00654
C 17.18604 32.80003 -0.00703
C 18.4462 32.08833 -0.04076
C 18.3014 30.65959 -0.00652
C 18.42161 19.04663 0.0058
C 18.45232 17.70298 -0.00865
C 17.22442 17.05214 0.00675
C 17.19392 15.59918 -0.00311
C 18.45831 14.99616 0.00742
C 18.30307 13.58413 -0.01594
C 17.29139 12.6565 0.0106
C 17.17322 11.34747 -0.01154
C 17.23438 8.53429 -0.01721
C 17.07745 7.143 -0.02422
C 17.17563 4.23144 0.01277
C 17.21272 2.85063 0.00096
C 18.36321 2.1266 -0.01527
C 15.969 0.72444 -0.04422
C 16.02715 2.16477 -0.02957
C 14.72008 2.78338 -0.00831
C 14.74507 4.23388 0.00364
C 13.52123 2.11192 -0.0258
C 13.51588 0.70419 -0.0331
C 12.27028 0.05113 -0.00316
C 14.80674 32.60362 0.02188
C 16.07803 32.13217 -0.01979
C 16.0176 17.67199 0.02691
C 14.71898 17.21397 -0.01581
C 14.71738 15.68551 0.01452
C 12.26462 4.27108 -0.00491
C 15.9813 14.92201 0.04892
C 14.80496 12.75193 -0.03557
C 14.85725 11.37846 0.03754
C 16.03532 10.62611 0.01739
C 16.09473 9.23087 0.00755
C 14.84433 8.49413 -0.0054
C 14.72653 7.05986 0.00667
C 16.05242 6.35658 0.00143
C 16.01301 4.9046 -0.017
C 16.09221 13.53153 -0.00111
C 7.34467 4.26886 0.01945
C 8.57722 4.96569 -0.01454
C 8.57311 6.39363 0.01241
C 2.44545 7.15276 0.00393
C 3.70052 6.39706 0.00895
C 3.66622 5.02543 0.00685
C 2.46301 4.19913 0.02888
C 2.43367 2.80245 -0.00482
C 3.7112 2.1741 -0.01384
C 3.67327 0.74513 0.03693
C 2.40819 34.02766 0.01745
C 4.88224 32.62245 0.00488
C 6.06032 31.98303 -0.01004
C 6.12241 30.56295 -0.02896
C 4.86099 29.86871 -0.00131
C 4.88207 28.37764 -0.01118
C 6.11737 27.70765 -0.014
C 6.2098 26.23593 0.02147
C 4.94453 25.53355 0.00373
C 4.96045 24.08502 -0.00191
C 2.41691 8.52646 0.0288
C 3.67617 9.24021 -0.0008
C 3.68296 10.68595 -0.01362
C 2.46002 11.33644 -0.00892
C 3.57881 30.54572 0.01227
C 2.39683 29.87007 0.00873
C 2.42498 28.40082 -0.00049
C 3.59391 27.74128 0.00848
C 3.66728 26.34304 -0.01303
C 2.42358 25.58687 -0.01378
C 2.42625 24.07188 0.02635
C 3.5926 23.45108 0.0127
C 6.18422 23.38924 0.00438
C 3.61898 21.99289 0.01396
C 2.42348 19.86208 -0.01142
C 3.66889 19.18584 -0.00562
C 3.6846 17.75918 -0.00494
C 2.41636 17.04431 0.00054
C 2.40765 15.61986 0.03007
C 3.63708 14.97462 -0.00095
C 3.73172 13.51897 0.01572
C 2.4483 12.76103 -0.04848
C 2.41 21.2665 0.01849
C 6.13388 22.04499 0.01291
C 4.9696 21.35055 0.00093
C 4.9611 19.87267 0.00057
C 7.3651 29.82501 -0.01536
C 7.27051 28.48519 -0.02689
C 7.30668 25.54305 -0.01046
C 7.32842 24.12622 -0.00891
C 7.46779 21.37753 0.02819
C 7.39191 19.9958 0.00165
C 8.58537 19.26206 -0.02971
C 8.55899 17.84572 0.02894
C 8.61973 30.60533 0.03101
C 7.34988 17.06103 -0.01789
C 8.64486 14.90698 -0.00925
C 8.69577 13.52322 0.01877
C 7.43819 12.85442 0.01363
C 7.43139 11.40924 -0.02162
C 8.66154 10.673 0.00415
C 8.67281 9.26953 -0.0014
C 7.3977 8.61328 0.02162
C 7.37655 7.15413 0.0076
C 7.42578 15.63656 0.00444
C 18.50159 0.7002 0.01087
C 8.58109 31.99323 -0.00428
C 4.87365 0.01762 0.00985
C 6.1916 19.22876 -0.01634
C 6.12614 17.72053 -0.00334
C 4.87883 17.0636 0.02339
C 4.84531 15.67274 0.01641
C 6.16886 14.90025 -0.00719
C 6.11388 13.46465 0.01364
C 4.95963 12.76127 -0.01062
C 4.95051 11.37692 -0.00033
C 7.32127 32.74663 -0.02245
C 6.19367 10.71134 0.03589
C 4.97292 8.56502 0.0402
C 4.95912 7.0909 0.00572
C 6.14489 6.49685 0.03592
C 6.1409 5.00584 0.00406
C 4.89019 4.32517 0.00943
C 4.89863 2.94304 0.02841
C 6.10333 2.13998 -0.01111
C 6.04366 0.80991 -0.01275
C 6.19179 9.31196 -0.02759
C 3.63634 31.9401 -0.03337
C 17.24877 0.07161 0.00199
C 20.89219 31.8778 -0.00478
C 31.93988 29.85697 -0.02142
C 31.92224 28.38255 0.0544
C 33.13462 27.67155 0.00026
C 33.17287 26.26618 0.00682
C 32.00847 25.61174 -0.01779
C 31.95452 24.20045 0.03794
C 33.11673 23.45087 0.01927
C 33.11402 22.03591 0.01574
C 31.94652 21.30704 -0.02383
C 31.9905 19.89496 -0.01429
C 33.17436 19.17526 -0.0136
C 33.14018 17.81419 0.00594
C 31.96005 17.093 -0.02474
C 31.95107 15.65127 0.00369
C 33.1248 14.95357 0.00455
C 33.15854 13.48902 -0.00644
C 31.96868 12.74575 -0.01839
C 33.22558 30.5426 0.01428
C 33.21582 31.98505 -0.01694
C 31.98368 32.66766 0.01713
C 29.54906 0.01764 0.00346
C 29.539 25.56682 0.03531
C 29.49063 24.1899 -0.00669
C 30.68817 23.4878 0.0101
C 30.63851 22.03516 0.01705
C 29.44078 21.33226 -0.0405
C 29.49752 19.89012 -0.01303
C 30.75042 19.24253 -0.01461
C 30.7575 17.77761 -0.02155
C 31.89368 11.29087 0.00137
C 29.53615 16.9632 -0.00944
C 30.66047 14.86534 -0.00971
C 30.75561 13.46585 0.01518
C 29.61012 12.60998 0.01908
C 30.59069 10.75074 0.07705
C 30.71139 5.05869 0.0103
C 29.52299 2.75187 0.02108
C 30.71513 2.1587 0.00716
C 30.77489 0.76221 0.00307
C 29.4816 15.55383 -0.03735
C 30.7543 26.2678 0.01836
C 33.11411 10.59957 0.00199
C 31.92322 8.47462 0.02806
C 1.17129 17.73659 0.01223
C 34.41305 17.02451 0.00648
C 34.41869 15.63127 0.02114
C 1.26324 14.8485 -0.02957
C 1.18417 13.46714 0.00343
C 34.3701 12.76337 -0.02656
C 34.36607 11.31638 -0.02442
C 1.18995 10.65247 -0.00027
C 1.20593 9.19388 -0.00583
C 34.43014 8.45691 -0.02302
C 0.01525 7.10119 -0.02849
C 1.22318 6.38602 0.02931
C 1.24935 4.95987 0.00628
C 34.41969 4.27302 -0.0345
C 0.02464 2.90279 -0.00931
C 1.23452 2.08345 -0.00939
C 1.24386 0.64811 -0.00468
C 1.23556 19.19015 -0.01678
C 34.42966 19.92014 0.01951
C 34.40116 21.32048 -0.02213
C 1.21325 21.99678 0.02712
C 32.01851 7.05604 0.01504
C 33.27647 6.35166 -0.00069
C 33.17028 4.92035 0.04926
C 31.93878 4.30286 -0.03838
C 31.91186 2.88812 0.00349
C 33.19078 2.18213 -0.00323
C 33.20807 0.70386 -0.00841
C 31.96982 0.04127 0.0001
C 33.18848 9.18655 0.04381
C 34.35244 32.68301 -0.02927
C 1.1457 30.53373 0.01027
C 34.36409 29.76485 0.01831
C 34.35442 28.47091 -0.01037
C 1.19181 27.71556 -0.00439
C 1.18609 26.27279 -0.00598
C 34.35807 25.55281 -0.05239
C 34.36768 24.1429 0.03076
C 1.19333 23.40594 0.00723
C 1.12542 31.99173 -0.01404
C 30.70903 27.7397 -0.03039
C 29.45298 28.45321 -0.01415
C 29.48399 29.80119 -0.01854
C 22.14043 28.29831 -0.00178
C 23.33419 27.61992 0.00768
C 23.30289 26.22192 -0.0276
C 22.04483 25.55627 0.03005
C 22.12879 24.0644 -0.04078
C 23.40456 23.46592 0.02117
C 23.3265 22.07485 0.02737
C 22.08468 21.40964 -0.00498
C 22.13764 19.95151 0.00135
C 23.36764 19.23968 0.03102
C 23.38432 17.79585 0.02555
C 22.20007 17.05266 0.01423
C 22.03695 15.52124 -0.00285
C 23.319 15.20873 -0.009
C 23.39616 0.71697 -0.01199
C 22.1603 34.04421 -0.00229
C 24.59879 32.82105 -0.00938
C 22.05619 29.82587 0.00733
C 23.28169 30.5211 -0.02118
C 23.31031 31.95783 -0.01971
C 22.10586 32.6455 -0.01586
C 20.76447 30.45019 -0.01662
C 19.38663 29.79986 -0.01185
C 19.80319 28.488 0.01126
C 20.78197 27.60408 0.01852
C 20.79639 26.19288 -0.00381
C 20.89242 23.46087 0.03046
C 20.73733 22.07299 0.0296
C 19.79132 21.15787 0.03374
C 25.73487 31.92772 -0.0264
C 19.50149 19.87271 -0.02845
C 20.88973 17.76891 0.02239
C 19.68871 16.98915 0.01153
C 19.68932 15.60912 0.02734
C 20.81825 14.80529 -0.0055
C 19.63973 2.68119 0.01515
C 20.77888 2.00934 -0.00225
C 20.99508 0.69748 0.00071
C 19.74648 0.03109 -0.01107
C 20.89619 19.1313 -0.03213
C 25.72136 30.5172 -0.01154
C 24.47331 29.8101 0.00684
C 24.53255 28.41093 -0.01052
C 27.17496 25.56069 0.02611
C 27.05519 24.11524 0.02198
C 28.25797 23.43103 0.01094
C 28.26444 21.98335 0.00235
C 27.04533 21.24181 0.01495
C 27.05199 19.83616 0.01259
C 28.30934 19.19375 0.01799
C 28.27796 17.79561 0.01699
C 28.31927 26.30704 -0.00621
C 27.06005 17.01452 -0.00416
C 28.30742 14.73851 0.04266
C 28.42095 13.45646 0.01324
C 28.31285 2.07885 0.0014
C 28.2853 0.69217 0.00924
C 27.07817 34.02902 0.02326
C 29.50935 32.7089 0.00261
C 30.79736 32.0205 0.03265
C 30.71418 30.5477 -0.02049
C 27.04148 15.54728 0.01177
C 19.71924 32.70067 0.01511
C 28.21253 27.7045 0.00194
C 26.96459 29.92608 0.02316
C 25.85748 27.73587 -0.01679
C 25.84714 26.31777 0.00367
C 24.5986 25.59463 0.04306
C 24.63698 24.12838 0.00996
C 25.84934 23.40522 0.00195
C 25.82652 22.04184 -0.00802
C 24.59065 21.30046 -0.00218
C 24.60888 19.85877 -0.01654
C 27.06603 28.45079 0.04185
C 25.83763 19.08167 -0.00037
C 24.58057 17.08239 0.00622
C 24.62305 15.5953 -0.02815
C 25.82334 14.95725 -0.00942
C 25.90307 0.69747 0.00487
C 24.66448 0.2806 0.00826
C 27.05175 32.61228 -0.00294
C 28.3189 31.90837 0.00152
C 28.23127 30.53695 0.01257
C 25.83381 17.73288 -0.0032
C 2.41239 32.67462 -0.00966
