258
Graphene
C 0.0477 0.12334 0.01295
C 17.30218 25.47917 0.0296
C 18.46571 26.27419 0.03046
C 18.41968 27.74147 -0.00381
C 17.20167 28.394 0.01852
C 17.17403 29.78707 0.01126
C 18.44567 30.52003 -0.01185
C 18.43853 31.99415 -0.01662
C 17.23384 32.77001 -0.00478
C 14.71992 34.01211 0.01511
C 15.9202 0.66207 0.00199
C 15.7989 2.0885 0.01087
C 14.47838 2.77656 -0.01527
C 15.94682 18.37005 0.00096
C 17.56706 24.01251 0.03374
C 15.40149 19.56319 0.01277
C 15.54763 22.15174 -0.01721
C 16.52429 23.13221 -0.01154
C 14.77293 29.81044 0.0106
C 15.95351 30.47946 -0.01594
C 16.02038 31.91435 0.00742
C 14.75677 32.54256 -0.00311
C 12.22823 34.00051 0.00675
C 13.48485 0.60525 -0.00865
C 13.53169 1.99673 0.0058
C 12.20205 21.85453 -0.00652
C 13.30918 21.14898 -0.04076
C 12.19878 29.76638 -0.00703
C 13.45035 30.29184 0.00654
C 14.71383 20.80096 -0.02422
C 13.49158 31.89679 -0.04422
C 19.01862 23.68375 -0.02845
C 17.32501 4.19949 0.02239
C 23.41378 27.6183 -0.00938
C 22.16649 28.47344 -0.00229
C 22.12244 29.87791 -0.01199
C 23.38368 30.54436 -0.009
C 23.31064 31.9273 -0.00285
C 22.05747 32.66889 0.01423
C 19.65427 0.01221 0.02555
C 20.8531 0.78257 0.03102
C 20.85542 2.23198 0.00135
C 19.70661 2.83992 -0.00498
C 19.63987 4.2847 0.02737
C 20.84883 4.99936 0.02117
C 20.91459 6.30905 -0.04078
C 18.30357 4.85416 -0.03213
C 19.9001 7.46969 0.03005
C 20.11627 24.19169 0.00768
C 19.77804 25.75128 -0.00178
C 20.98506 26.43733 0.00733
C 20.94426 27.73486 -0.02118
C 19.66305 28.42576 -0.01971
C 19.67954 29.82159 -0.01586
C 20.91739 30.48087 -0.01107
C 20.84785 31.88108 0.00071
C 19.67887 32.66481 -0.00225
C 17.2139 0.05634 0.01515
C 18.46596 0.78586 -0.0055
C 18.39986 2.15189 0.02734
C 17.08912 2.8183 0.01153
C 19.21941 8.46812 -0.0276
C 12.268 32.58406 -0.02957
C 9.80225 34.06418 -0.00831
C 10.99196 0.80833 0.00364
C 4.71766 24.01706 -0.00481
C 4.74871 25.53503 0.00889
C 5.99528 26.28637 -0.02162
C 6.02045 27.71556 -0.00619
C 4.7879 28.39834 0.01848
C 4.87483 29.84074 0.02098
C 6.07267 30.6328 -0.03113
C 6.04262 32.00231 0.0351
C 4.87616 32.75311 0.00422
C 2.37463 0.06199 0.00798
C 3.59476 0.83601 0.00228
C 3.73838 2.20202 -0.00114
C 2.52334 2.88987 -0.02696
C 5.99562 23.53955 0.00979
C 2.57189 4.34072 -0.00368
C 3.69876 6.51727 -0.01957
C 2.618 7.32282 0.02058
C 2.49203 8.76552 0.01965
C 2.34481 11.52207 -0.03682
C 2.41456 12.73387 0.00052
C 3.468 23.37726 0.00374
C 2.27175 24.18689 -0.02813
C 2.31276 25.60598 -0.01952
C 3.58966 26.28211 0.05265
C 3.59961 27.69821 -0.01717
C 2.4135 28.42664 0.00244
C 2.47874 29.80701 0.02299
C 3.64712 30.51907 0.03542
C 3.91242 5.1075 -0.0108
C 5.00593 4.27965 0.01443
C 5.03196 2.83669 0.03505
C 6.23975 2.23218 -0.02815
C 10.80757 2.15043 -0.017
C 9.69554 19.75742 0.00143
C 9.45595 21.13129 0.00667
C 10.76339 22.12786 -0.0054
C 10.82664 23.47684 0.00755
C 9.84204 24.36836 0.01739
C 9.6998 25.69734 0.03754
C 9.7781 28.44481 -0.03557
C 9.76112 29.83877 -0.00111
C 10.96814 30.47876 0.04892
C 11.0542 31.85663 0.01452
C 9.79895 32.67036 -0.01581
C 7.3238 34.03207 0.02691
C 8.59008 0.6353 -0.01979
C 8.76899 2.10124 0.02188
C 7.53796 2.73419 -0.00316
C 8.44508 21.95744 -0.0331
C 8.51964 23.40655 -0.0258
C 7.20786 24.18246 0.03338
C 7.21435 25.61138 -0.00491
C 8.45908 26.37637 -0.00109
C 8.53515 27.85021 0.03698
C 7.31166 28.40826 -0.02213
C 7.30659 29.85929 0.00028
C 8.50296 30.54032 -0.00289
C 8.54117 31.94703 -0.00066
C 7.29422 32.62503 0.00213
C 4.8677 0.10283 -0.05302
C 6.1656 0.76535 -0.04147
C 23.37159 26.14671 -0.0264
C 22.18982 25.59394 -0.01154
C 21.36746 8.54311 0.00684
C 22.09141 7.12269 -0.01052
C 32.03497 4.27931 -0.00323
C 33.26432 4.98604 0.00349
C 33.24947 6.40916 -0.03838
C 32.04938 7.13435 0.04926
C 31.84912 8.56058 -0.00069
C 33.12058 9.20824 0.01504
C 33.09882 10.62349 0.02806
C 31.81702 11.42336 0.04381
C 32.01369 12.70796 0.00199
C 33.12443 13.51405 0.00137
C 33.02019 14.83767 -0.01839
C 31.837 15.51231 -0.00644
C 31.90085 16.73382 0.00455
C 32.05237 2.91003 -0.00841
C 33.11503 17.6397 0.00369
C 32.39887 20.261 0.00594
C 31.84603 21.51256 -0.0136
C 33.02978 22.36063 -0.01429
C 33.00702 23.61501 -0.02383
C 31.60275 24.2445 0.01574
C 31.76063 25.6184 0.01927
C 33.0299 26.38482 0.03794
C 33.01482 27.73645 -0.01779
C 31.85162 28.4598 0.00682
C 31.88681 29.87454 0.00026
C 33.13406 30.6246 0.0544
C 33.19561 32.04057 -0.02142
C 32.00357 32.76474 0.01428
C 33.1286 18.99143 -0.02474
C 33.28922 2.22114 0.0001
C 33.23107 0.77799 -0.02927
C 31.98475 0.08381 -0.01404
C 1.26605 0.84101 -0.00468
C 1.30465 2.24967 -0.00939
C 0.06906 2.96634 -0.00931
C 0.12373 4.34875 -0.0345
C 1.38539 5.06161 0.00628
C 1.29032 6.51085 0.02931
C 0.04792 7.11635 -0.02849
C 0.0578 8.59661 -0.02302
C 1.28226 9.34642 -0.00583
C 1.26391 10.67923 -0.00027
C 34.38466 11.38377 -0.02442
C 34.34076 12.78674 -0.02656
C 1.29939 13.57853 0.00343
C 1.21386 14.96054 -0.02957
C 34.42827 15.60592 0.02114
C 34.34974 16.8931 0.00648
C 33.80061 20.22445 0.01223
C 34.35916 21.53104 -0.01678
C 1.10289 22.12839 0.01951
C 1.01684 23.50084 -0.02213
C 34.26481 24.29991 0.02712
C 34.34063 25.69029 0.00723
C 1.09018 26.4234 0.03076
C 1.15396 27.82387 -0.05239
C 34.3255 28.47904 -0.00598
C 34.37068 29.88944 -0.00439
C 1.19878 30.59893 -0.01037
C 1.18328 32.02577 0.01831
C 0.00861 32.76113 0.01027
C 29.52119 0.01119 -0.01694
C 3.69865 32.01175 0.01416
C 30.70932 0.80644 0.01713
C 29.57489 2.91198 0.00307
C 27.02257 29.9073 0.01259
C 28.2584 30.60728 0.01495
C 28.26632 32.03779 0.00235
C 27.01848 32.70757 0.01094
C 24.56721 0.00229 0.02198
C 25.79464 0.73754 0.02611
C 25.85364 2.13805 -0.00621
C 24.60986 2.8372 0.00194
C 24.54341 4.2669 0.04185
C 25.78759 4.89388 0.02316
C 25.82897 6.32504 0.01257
C 24.71998 7.2548 0.00152
C 25.35201 8.63336 -0.00294
C 27.0452 28.47427 0.01799
C 24.67012 25.59956 0.00826
C 25.86021 27.6931 -0.00942
C 24.60689 28.37794 -0.02815
C 24.60375 29.82118 0.00622
C 25.78193 30.56659 -0.0032
C 25.77494 31.99721 -0.00037
C 24.50977 32.67412 -0.01654
C 22.06282 0.07746 -0.00218
C 23.33233 0.73068 -0.00802
C 23.31355 2.12591 0.00195
C 22.09879 2.87432 0.00996
C 22.21275 4.33092 0.04306
C 23.39926 5.15743 0.00367
C 23.42586 6.68817 -0.01679
C 25.85205 26.22082 0.00487
C 28.27021 27.76056 0.01699
C 28.30158 26.40486 -0.00416
C 27.06926 25.57028 0.01177
C 29.55409 4.34097 0.00716
C 30.84393 5.00145 0.02108
C 30.7307 6.44166 0.0103
C 29.46897 7.06607 0.07705
C 29.37586 8.61054 0.01908
C 30.60536 9.31779 0.01518
C 30.55363 10.74595 -0.00971
C 30.59924 22.14221 -0.03735
C 30.31121 23.50694 -0.00944
C 29.0225 24.20334 -0.02155
C 29.36453 25.64391 -0.01461
C 30.57361 26.3147 -0.01303
C 30.67014 27.75818 -0.0405
C 29.4835 28.48852 0.01705
C 29.46338 29.90443 0.0101
C 30.75972 30.62005 -0.00669
C 30.73808 32.07372 0.03531
C 29.52799 32.67974 0.01836
C 27.02959 0.05925 -0.03039
C 28.2642 0.76535 -0.01415
C 28.32977 2.16262 -0.01854
C 27.06633 2.79671 -0.02049
C 27.06833 4.2312 0.03265
C 28.27437 4.96262 0.00261
C 28.28817 6.34085 0.02326
C 27.01485 6.99573 0.00924
C 26.71554 8.49911 0.0014
C 28.03071 9.01022 0.01324
C 27.76638 24.23793 0.04266
C 30.80246 2.21847 0.00346
C 2.43965 32.71224 0.01945
