328
Graphene
C 34.40013 0.00585 0.01295
C 13.59031 31.9756 -0.05302
C 11.6997 19.79653 0.00213
C 13.01695 19.40009 -0.00066
C 13.4115 18.08899 -0.00289
C 12.26946 17.18832 0.00028
C 12.41415 15.74873 -0.02213
C 13.6627 15.10835 0.03698
C 12.29167 32.51277 -0.04147
C 13.51465 13.67383 -0.00109
C 12.24731 11.57471 0.03338
C 13.44604 10.80424 -0.0258
C 13.46077 9.33877 -0.0331
C 12.2722 8.60783 -0.00316
C 12.25489 6.98335 0.02188
C 13.56266 6.34113 -0.01979
C 13.55886 4.97111 0.02691
C 12.24896 13.04908 -0.00491
C 9.86983 33.92207 -0.02815
C 11.08309 0.64336 0.03505
C 11.12864 2.08051 0.01443
C 9.31807 21.14614 -0.01957
C 9.34793 19.79088 -0.0108
C 10.46249 18.94391 -0.00368
C 10.79439 17.61925 -0.02696
C 10.16268 16.44601 -0.00114
C 11.08301 15.28229 0.00228
C 11.00716 13.81271 0.00798
C 9.81944 12.98652 0.00422
C 9.90511 11.48406 0.0351
C 11.12777 10.76388 -0.03113
C 11.15067 9.33896 0.02098
C 9.95821 8.5345 0.01848
C 9.85538 7.09135 -0.00619
C 11.01214 6.31095 -0.02162
C 11.10531 4.84728 0.00889
C 9.83882 4.21906 -0.00481
C 9.88284 2.73809 0.00979
C 12.36421 4.19394 -0.01581
C 10.75193 21.95209 0.02058
C 12.33863 2.72603 0.01452
C 13.52717 0.69006 -0.00111
C 17.52929 15.82211 -0.01594
C 18.65142 14.96808 0.0106
C 18.48904 13.52005 -0.01154
C 17.24364 12.81914 -0.01721
C 17.19085 11.33569 -0.02422
C 18.40608 10.59695 0.01277
C 18.40232 9.21662 0.00096
C 17.18955 17.13091 0.00742
C 17.16395 8.57205 -0.01527
C 18.45793 6.47186 0.00199
C 18.39136 5.0516 0.01511
C 17.21994 4.28497 -0.00478
C 17.2767 2.80311 -0.01662
C 18.47034 2.09903 -0.01185
C 18.44895 0.59 0.01126
C 17.15888 0.01857 0.01852
C 17.22303 7.1247 0.01087
C 14.77985 34.00239 -0.00311
C 16.03363 0.67244 0.00675
C 16.00206 2.07695 -0.00865
C 12.30428 34.00374 -0.03557
C 14.55991 32.57195 0.03754
C 16.05056 17.84968 0.01739
C 14.69745 17.32108 0.00755
C 14.91945 15.77709 -0.0054
C 16.14414 15.10673 0.00667
C 16.05782 13.62609 0.00143
C 14.76863 12.93408 -0.017
C 14.62575 11.51995 0.00364
C 15.90469 10.72434 -0.00831
C 15.87584 9.23333 -0.02957
C 14.6332 8.55226 -0.04422
C 14.72857 7.11529 0.00654
C 15.96995 6.37199 -0.00703
C 15.98787 4.9252 -0.04076
C 14.80432 4.28106 -0.00652
C 14.77999 2.83483 0.0058
C 13.56139 2.06694 0.04892
C 19.92386 14.95062 -0.00381
C 11.03558 23.26933 0.01965
C 9.73842 25.58747 0.00052
C 3.69031 2.18897 -0.00191
C 3.74947 0.73185 0.00438
C 2.41997 0.02283 0.01291
C 4.96053 32.71476 0.00093
C 6.19246 31.945 0.00057
C 6.10033 30.56755 -0.01634
C 4.88155 29.86884 -0.00334
C 2.41392 2.82327 0.00373
C 4.82679 28.45485 0.02339
C 6.12412 26.33851 -0.00719
C 4.88586 25.56713 0.01364
C 4.94734 24.04814 -0.01062
C 6.39457 23.43725 -0.00033
C 4.77823 12.80981 0.03589
C 4.91111 11.36999 -0.02759
C 6.16512 10.7008 0.0402
C 6.0596 27.751 0.01641
C 2.46722 4.31601 0.02147
C 3.74123 5.04856 -0.014
C 3.71213 6.41851 -0.01118
C 3.66531 30.58654 -0.04848
C 2.45959 29.88286 -0.00892
C 2.34345 28.46506 -0.01362
C 3.6044 27.73907 -0.0008
C 3.63446 26.31403 0.0288
C 2.34797 25.65754 0.00393
C 2.36115 24.27529 0.00895
C 3.68319 23.37207 0.00685
C 3.39026 22.061 0.02888
C 2.35773 21.55181 -0.00482
C 3.71416 13.38992 -0.01384
C 2.48142 12.7845 0.03693
C 2.43275 11.36592 0.01745
C 3.6622 10.66116 0.00488
C 3.67585 9.17578 -0.01004
C 2.38125 8.52566 -0.02896
C 2.364 7.15643 -0.00131
C 6.10937 9.27579 0.00572
C 10.10167 24.17875 -0.03682
C 4.98306 8.47982 0.03592
C 6.24813 6.37642 0.00943
C 8.55319 9.25758 0.00415
C 7.38895 8.54395 -0.0014
C 7.42927 7.08835 0.02162
C 8.68279 6.38346 0.0076
C 8.60647 4.89584 0.01241
C 7.43449 4.18221 -0.01454
C 7.46051 2.7637 0.01945
C 8.66861 10.71288 -0.02162
C 8.67541 2.0793 0.01416
C 7.47321 34.04925 0.02299
C 9.90176 32.49568 0.00244
C 11.04061 31.7299 -0.01717
C 11.0441 30.37333 0.05265
C 9.92567 29.55191 -0.01952
C 9.85507 28.16639 -0.02813
C 10.74363 27.11185 0.00374
C 8.67759 0.62544 0.03542
C 7.34339 11.40814 0.01363
C 7.38291 12.79414 0.01877
C 8.49392 13.3917 -0.00925
C 6.16222 5.00343 0.02841
C 4.96138 4.25844 -0.01111
C 4.94262 2.82665 -0.01275
C 6.2343 2.07375 0.00985
C 6.12017 0.7089 -0.02245
C 4.86769 0.02357 -0.00428
C 7.41052 32.6716 0.03101
C 8.57858 31.85703 -0.01536
C 8.62408 30.44666 -0.02689
C 7.37449 29.84222 -0.01046
C 7.2684 28.38981 -0.00891
C 8.49015 27.61486 0.02819
C 8.40742 26.27112 0.00165
C 7.19801 25.628 -0.02971
C 7.43588 24.30668 0.02894
C 8.69038 23.67427 -0.01789
C 8.65697 22.29586 0.00444
C 4.94096 7.06028 0.00406
C 20.77977 13.65109 0.03046
C 19.66992 12.82805 0.0296
C 19.66102 11.30022 0.03374
C 33.08406 26.26549 0.00682
C 31.87246 25.51535 -0.01779
C 31.83722 24.11419 0.03794
C 33.10521 23.49809 0.01927
C 33.13809 22.05855 0.01574
C 31.91156 21.42954 -0.02383
C 32.05911 20.02063 -0.01429
C 33.08293 27.65039 0.00026
C 33.24627 19.28273 -0.0136
C 31.94342 17.23834 -0.02474
C 31.98474 15.68832 0.00369
C 33.24218 14.92585 0.00455
C 33.19529 13.5044 -0.00644
C 31.94652 12.80067 -0.01839
C 31.91741 11.35276 0.00137
C 33.08996 10.61162 0.00199
C 33.19796 17.91154 0.00594
C 31.89902 28.3523 0.0544
C 31.92269 29.76863 -0.02142
C 33.14568 30.52663 0.01428
C 30.75274 14.97596 -0.0405
C 30.77588 13.48044 -0.01303
C 29.49941 12.72272 -0.01461
C 29.51593 11.30135 -0.02155
C 30.70422 10.58032 -0.00944
C 30.69354 9.23089 -0.03735
C 29.4592 8.52686 -0.00971
C 29.43537 7.04198 0.01518
C 30.6849 6.39406 0.01908
C 30.66131 4.88972 0.07705
C 29.40464 4.16172 0.0103
C 29.43343 2.76373 0.02108
C 30.70881 2.10699 0.00716
C 30.66254 0.70504 0.00307
C 29.44111 33.95797 0.00346
C 31.9057 32.66034 0.01713
C 33.1696 31.90652 -0.01694
C 33.10159 9.22938 0.04381
C 29.51359 15.71858 0.01705
C 31.91875 8.48779 0.02806
C 33.15876 6.39115 -0.00069
C 0.07688 17.10078 0.00648
C 0.01261 15.72326 0.02114
C 1.19547 14.90463 -0.02957
C 1.27738 13.42745 0.00343
C 34.35993 12.75482 -0.02656
C 34.39387 11.37009 -0.02442
C 1.19452 10.66157 -0.00027
C 1.14243 17.96061 0.01223
C 1.22072 9.19909 -0.00583
C 34.37671 7.16647 -0.02849
C 1.10762 6.4106 0.02931
C 1.1851 4.99524 0.00628
C 0.00344 4.2611 -0.0345
C 0.03103 2.85131 -0.00931
C 1.1885 2.15491 -0.00939
C 1.22116 0.6551 -0.00468
C 34.41946 8.55743 -0.02302
C 1.27767 19.1566 -0.01678
C 0.03096 20.02733 0.01951
C 34.35694 21.45494 -0.02213
C 33.13255 4.91458 0.04926
C 31.89932 4.24998 -0.03838
C 31.94724 2.82968 0.00349
C 33.18227 2.16978 -0.00323
C 33.19294 0.68056 -0.00841
C 31.87062 0.01903 0.0001
C 34.38185 32.74261 -0.02927
C 1.15345 31.98214 -0.01404
C 1.16683 30.56892 0.01027
C 34.38042 29.78226 0.01831
C 34.32304 28.39836 -0.01037
C 1.11871 27.63793 -0.00439
C 1.09595 26.29723 -0.00598
C 34.29331 25.58865 -0.05239
C 34.36402 24.22146 0.03076
C 1.13245 23.57801 0.00723
C 1.13031 22.17002 0.02712
C 31.8725 7.06447 0.01504
C 29.53499 17.10944 0.0101
C 30.60543 17.98035 -0.00669
C 30.83074 19.3236 0.03531
C 23.39762 4.97571 -0.00498
C 22.13368 4.29742 0.00135
C 22.08537 2.88624 0.03102
C 23.32677 2.10937 0.02555
C 23.3932 0.7051 0.01423
C 22.15606 34.04857 -0.00285
C 24.48767 32.52405 -0.009
C 23.29823 6.32104 0.02737
C 25.65775 31.87741 -0.01199
C 25.83753 14.91414 -0.00938
C 25.71755 13.4994 -0.0264
C 24.52607 12.85649 -0.01154
C 24.45164 11.36467 0.00684
C 25.71152 10.57627 -0.01052
C 25.76107 9.13372 -0.01679
C 24.45417 8.45765 0.00367
C 25.69005 30.53127 -0.00229
C 22.10573 7.06253 0.02117
C 22.09772 8.43155 -0.04078
C 23.29062 9.1841 0.03005
C 20.92264 10.69141 -0.02845
C 20.84767 9.21253 -0.03213
C 19.64226 8.54208 0.02239
C 19.71919 7.09243 0.01153
C 20.88105 6.32411 0.02734
C 20.83916 4.90088 -0.0055
C 19.60807 4.26975 0.01515
C 19.64231 2.82334 -0.00225
C 20.85732 2.19111 0.00071
C 20.90091 0.78133 -0.01107
C 19.72354 0.0916 -0.01586
C 22.27969 32.75045 -0.01971
C 23.21462 31.92905 -0.02118
C 23.34512 13.55539 0.00733
C 22.05089 13.06576 -0.00178
C 22.03093 11.50896 0.00768
C 23.23724 10.66279 -0.0276
C 24.52039 7.02838 0.04306
C 25.78131 6.35396 0.00996
C 25.8128 4.9291 0.00195
C 24.58658 4.22014 -0.00802
C 28.23483 4.89335 0.01259
C 27.04817 4.23712 0.01799
C 26.99884 2.79499 0.01699
C 28.18047 2.06237 -0.00416
C 28.19212 0.61231 0.01177
C 26.99273 33.96672 0.04266
C 29.44767 32.64323 0.01324
C 30.65276 31.86272 0.0014
C 30.70404 30.44436 0.00924
C 29.4866 29.76981 0.02326
C 29.45586 28.31849 0.00261
C 30.68676 27.60544 0.03265
C 30.71073 26.22239 -0.02049
C 29.40228 25.48921 -0.01854
C 29.51472 24.19967 -0.01415
C 30.49092 23.24897 -0.03039
C 30.65224 21.95579 0.01836
C 28.23892 6.3343 0.01495
C 3.67094 31.98425 0.01572
C 27.03059 7.06697 0.00235
C 28.2143 9.18906 0.02198
C 24.56208 2.85972 -0.00218
C 25.72026 2.10514 -0.01654
C 25.75718 0.64825 -0.00037
C 24.53803 33.97065 -0.0032
C 26.94011 32.56898 0.00622
C 28.20881 31.90999 -0.02815
C 28.24791 30.49463 -0.00942
C 27.00109 29.72462 0.00487
C 26.93012 28.36604 0.00826
C 28.15764 27.67975 -0.00294
C 28.22425 26.20918 0.00152
C 26.86603 15.56485 0.01257
C 28.2432 14.96222 0.02316
C 28.19987 13.46342 0.04185
C 26.93052 12.70048 0.00194
C 26.95455 11.29928 -0.00621
C 28.29011 10.65523 0.02611
C 27.03923 8.48686 0.01094
C 2.46265 32.66035 -0.00095
