372
Graphene
C 34.40567 0.01882 0.01295
C 11.07227 9.20916 0.00244
C 9.81639 8.60424 -0.01717
C 9.8233 7.18493 0.05265
C 11.12577 6.43226 -0.01952
C 11.14834 4.98017 -0.02813
C 9.86794 4.28639 0.00374
C 9.77774 2.80459 0.00052
C 10.95861 2.04558 -0.03682
C 11.00231 0.61058 0.01965
C 9.78221 34.07435 0.02058
C 12.41938 32.66392 -0.01957
C 13.58847 31.90567 -0.0108
C 13.55066 30.50054 -0.00368
C 12.35944 29.8653 -0.02696
C 12.28461 28.42609 -0.00114
C 13.51484 27.60651 0.00228
C 13.46897 26.18041 0.00798
C 12.27719 25.45693 0.00422
C 12.2666 24.10496 0.0351
C 11.06758 10.61756 0.02299
C 13.558 23.44666 -0.03113
C 9.83295 11.32642 0.03542
C 10.94004 13.60134 0.01945
C 7.29561 0.07788 -0.02689
C 9.8576 32.61115 -0.01046
C 11.12431 31.98624 -0.00891
C 11.13325 30.5649 0.02819
C 9.89355 29.85061 0.00165
C 9.85687 28.43525 -0.02971
C 11.07354 27.75139 0.02894
C 11.08196 26.30274 -0.01789
C 9.85174 25.66771 0.00444
C 9.84087 24.21165 -0.00925
C 11.04647 23.45527 0.01877
C 11.07495 21.97594 0.01363
C 9.87194 21.3229 -0.02162
C 9.94264 19.87983 0.00415
C 11.16727 19.10206 -0.0014
C 11.05009 17.69994 0.02162
C 9.87948 17.05449 0.0076
C 9.84658 15.58983 0.01241
C 10.91938 14.80706 -0.01454
C 9.87302 12.71681 0.01416
C 13.57288 22.0576 0.02098
C 12.36702 21.35125 0.01848
C 12.34927 19.87164 -0.00619
C 14.57063 19.98191 -0.01581
C 15.96551 9.19882 0.01452
C 14.73658 8.52992 0.04892
C 14.73916 7.02357 -0.00111
C 15.9662 6.39592 -0.03557
C 15.96402 4.92577 0.03754
C 14.71802 4.28882 0.01739
C 14.77353 2.8647 0.00755
C 15.99472 2.1499 -0.0054
C 16.06179 0.7163 0.00667
C 14.75474 0.00882 0.00143
C 17.23488 32.66055 -0.017
C 18.46106 31.85228 0.00364
C 18.46549 30.46673 -0.00831
C 17.18134 29.80102 -0.02957
C 17.19907 28.36579 -0.04422
C 18.55642 27.55599 0.00654
C 18.49317 26.18312 -0.00703
C 17.20346 25.58396 -0.04076
C 14.78756 21.30792 0.02691
C 15.90086 22.10157 -0.01979
C 15.93517 23.48538 0.02188
C 14.71607 24.12903 -0.00316
C 13.65358 19.30854 -0.02162
C 12.35116 11.23589 0.00889
C 13.52336 9.23315 -0.00481
C 12.37554 8.54466 0.00979
C 12.31673 7.09735 0.01443
C 13.5612 6.4157 0.03505
C 13.53064 4.9842 -0.02815
C 12.3022 4.2035 -0.04147
C 12.26496 2.77308 -0.05302
C 8.55954 0.70173 -0.01536
C 13.54546 2.13848 0.00213
C 12.27312 34.05608 -0.00289
C 14.71658 32.65371 0.00028
C 15.95946 31.96021 -0.02213
C 15.93761 30.5165 0.03698
C 14.7408 29.8174 -0.00109
C 14.74373 28.38426 -0.00491
C 16.02424 27.64957 0.03338
C 15.93062 26.23694 -0.0258
C 14.72908 25.5451 -0.0331
C 13.51523 0.69922 -0.00066
C 17.16795 24.13016 -0.00652
C 8.50938 2.0785 0.03101
C 7.42189 4.29929 -0.02245
C 3.65687 6.39864 0.03368
C 3.64282 5.03536 -0.02929
C 2.46058 4.23696 -0.00966
C 2.41859 2.81574 -0.03337
C 3.62855 2.18363 0.01227
C 3.65027 0.72443 0.00873
C 2.49607 34.04332 -0.00049
C 4.8458 32.68241 0.00848
C 6.05411 32.01008 -0.01303
C 6.09546 30.56214 -0.01378
C 4.89778 29.8618 0.02635
C 4.91095 28.42762 0.0127
C 6.17843 27.7234 0.01396
C 6.17489 26.25101 0.01849
C 4.91009 25.62189 -0.01142
C 4.90819 24.23243 -0.00562
C 6.11982 23.53012 -0.00494
C 6.14819 22.06868 0.00054
C 4.9581 21.29318 0.03007
C 2.42971 7.04609 -0.00077
C 4.83171 19.87902 -0.00095
C 2.48311 8.47353 0.01305
C 3.76103 10.73229 0.00988
C 3.70736 30.52828 0.03828
C 2.47703 29.82604 0.01226
C 2.46854 28.36967 -0.00279
C 3.62443 27.74444 0.01996
C 3.6837 26.34553 -0.03996
C 2.48092 25.56844 0.01465
C 2.45484 24.12086 -0.00074
C 3.68316 23.42299 -0.00518
C 3.70464 21.99372 0.0086
C 2.50172 21.28166 -0.00643
C 2.43716 19.83787 0.017
C 3.60506 19.17289 -0.03113
C 3.62113 17.76557 -0.02566
C 2.43872 17.0723 -0.00094
C 2.48512 15.68774 0.02322
C 3.66591 14.94921 -0.00725
C 3.7215 13.45792 -0.05697
C 2.47579 12.79638 0.01087
C 2.48967 11.43223 -0.01343
C 3.72439 9.27078 0.0276
C 6.11696 19.1517 0.01572
C 6.14169 17.70828 -0.04848
C 4.82172 17.05513 -0.00892
C 7.39927 24.12978 -0.01634
C 8.61181 23.43001 -0.00334
C 8.65676 22.02386 0.02339
C 7.39773 21.37359 0.01641
C 7.31308 19.90892 -0.00719
C 8.68059 19.18906 0.01364
C 8.64506 17.74909 -0.01062
C 7.40853 17.06892 -0.00033
C 7.37969 15.56912 0.03589
C 8.58402 14.87103 -0.02759
C 8.53596 13.44606 0.0402
C 7.31285 12.76728 0.00572
C 7.35907 11.34349 0.03592
C 8.57173 10.68029 0.00406
C 8.56294 9.29758 0.00943
C 7.38152 8.50398 0.02841
C 7.35298 7.11463 -0.01111
C 8.61012 6.42182 -0.01275
C 8.65876 5.03144 0.00985
C 7.40342 25.57303 0.00057
C 8.59615 26.32384 0.00093
C 8.66184 27.74129 0.01291
C 7.33702 28.46105 0.00438
C 4.90224 15.6461 -0.01362
C 6.13303 14.9 -0.0008
C 6.12675 13.54417 0.0288
C 4.93726 12.84038 0.00393
C 4.93726 11.48039 0.00895
C 6.11639 10.71828 0.00685
C 6.11119 9.32161 0.02888
C 4.90795 8.56098 -0.00482
C 4.91948 7.1537 -0.01384
C 7.35829 2.88291 -0.00428
C 6.10701 6.38651 0.03693
C 4.90331 4.29324 0.00488
C 4.87123 2.90042 -0.01004
C 6.08337 2.21863 -0.02896
C 6.06609 0.79111 -0.00131
C 4.85677 0.05591 -0.01118
C 7.32075 32.72573 -0.014
C 8.61548 31.9653 0.02147
C 8.61833 30.53913 0.00373
C 7.32574 29.87009 -0.00191
C 6.14812 4.99218 0.01745
C 18.50447 23.48051 0.0058
C 18.49419 21.98032 -0.00865
C 17.18837 21.28183 0.00675
C 30.70392 2.11508 0.00716
C 30.73077 0.70487 0.00307
C 29.47903 0.06739 0.00346
C 31.89978 32.66035 0.01713
C 33.1014 31.95466 -0.01694
C 33.15449 30.50828 0.01428
C 31.92225 29.83875 -0.02142
C 31.84308 28.36485 0.0544
C 33.19215 27.71435 0.00026
C 33.19896 26.26492 0.00682
C 31.99048 25.64567 -0.01779
C 31.90221 24.20666 0.03794
C 33.20462 23.46941 0.01927
C 33.22823 22.05787 0.01574
C 31.96547 21.31597 -0.02383
C 31.9662 19.90848 -0.01429
C 33.18235 19.21537 -0.0136
C 33.17824 17.81184 0.00594
C 32.00145 17.0028 -0.02474
C 29.50351 2.81758 0.02108
C 32.08675 15.57655 0.00369
C 29.56306 4.30239 0.0103
C 30.77673 6.42646 0.01908
C 30.70377 30.50539 0.00261
C 29.49728 29.83755 0.03265
C 30.78418 27.59254 -0.02049
C 30.75383 23.49511 -0.01854
C 30.73714 22.11819 -0.01415
C 29.62691 21.14855 -0.03039
C 29.5138 19.85548 0.01836
C 30.81222 19.14986 0.03531
C 30.74437 17.76538 -0.00669
C 29.56132 16.98014 0.0101
C 29.52168 15.60096 0.01705
C 30.79232 14.82978 -0.0405
C 30.7072 13.44133 -0.01303
C 29.44113 12.78255 -0.01461
C 29.43029 11.37439 -0.02155
C 30.65689 10.70107 -0.00944
C 30.69776 9.21789 -0.03735
C 29.55507 8.48326 -0.00971
C 29.54357 7.09925 0.01518
C 30.72127 5.02583 0.07705
C 33.28594 14.82323 0.00455
C 33.19778 13.41041 -0.00644
C 31.97819 12.71181 -0.01839
C 0.01993 19.86521 0.01951
C 1.21275 19.13211 -0.01678
C 1.18932 17.75512 0.01223
C 34.37369 17.09805 0.00648
C 0.01963 15.65609 0.02114
C 1.2365 14.98524 -0.02957
C 1.25757 13.54191 0.00343
C 0.0438 12.83325 -0.02656
C 34.39657 11.37115 -0.02442
C 1.23159 10.66279 -0.00027
C 1.25717 9.26892 -0.00583
C 0.04514 8.54342 -0.02302
C 0.02022 7.10561 -0.02849
C 1.20944 6.37162 0.02931
C 1.24029 4.95618 0.00628
C 34.43289 4.31452 -0.0345
C 0.01692 2.84125 -0.00931
C 1.165 2.04136 -0.00939
C 1.21313 0.63853 -0.00468
C 0.03557 21.29512 -0.02213
C 1.27706 21.99221 0.02712
C 1.17398 23.40618 0.00723
C 34.40658 24.18413 0.03076
C 31.92479 11.34613 0.00137
C 33.1619 10.62758 0.00199
C 33.23774 9.19634 0.04381
C 31.93055 8.61664 0.02806
C 32.00107 7.16902 0.01504
C 33.20234 6.40738 -0.00069
C 33.18143 4.95041 0.04926
C 31.90746 4.26402 -0.03838
C 31.89884 2.78543 0.00349
C 30.6583 31.96881 0.02326
C 33.22481 2.10947 -0.00323
C 31.93559 34.04539 0.0001
C 34.3551 32.71082 -0.02927
C 1.18134 31.98862 -0.01404
C 1.21683 30.60217 0.01027
C 0.00688 29.86775 0.01831
C 34.39987 28.399 -0.01037
C 1.21043 27.75966 -0.00439
C 1.24904 26.2875 -0.00598
C 0.0157 25.56584 -0.05239
C 33.19202 0.69052 -0.00841
C 29.49653 32.68623 0.00924
C 27.11528 0.02711 0.0014
C 28.29538 0.78331 0.01324
C 19.70593 8.41363 0.02239
C 19.56072 7.04419 0.01153
C 20.88234 6.40417 0.02734
C 20.91971 4.97888 -0.0055
C 19.68215 4.22118 0.01515
C 19.60813 2.79782 -0.00225
C 20.8011 2.08491 0.00071
C 20.85479 0.73716 -0.01107
C 19.66414 34.0004 -0.01586
C 22.1019 32.6416 -0.01971
C 23.32494 31.9279 -0.02118
C 21.94758 16.89169 0.00733
C 22.23826 15.74346 -0.00178
C 23.32544 14.85818 0.00768
C 23.32248 13.39897 -0.0276
C 22.14449 12.7314 0.03005
C 21.98014 11.39955 -0.04078
C 23.37101 10.64055 0.02117
C 23.4383 9.23061 0.02737
C 20.91833 9.27502 -0.03213
C 20.75034 10.61117 -0.02845
C 20.98494 17.75532 0.03374
C 20.66386 18.95706 0.0296
C 17.10988 19.9332 -0.00311
C 18.54364 9.14596 0.00742
C 17.23859 8.63738 -0.01594
C 17.1281 7.11766 0.0106
C 18.34595 6.31924 -0.01154
C 18.45534 4.92598 -0.01721
C 17.25476 4.18668 -0.02422
C 17.25341 2.78174 0.01277
C 18.46456 2.06192 0.00096
C 22.18764 8.51628 -0.00498
C 18.49052 0.62859 -0.01527
C 19.66156 32.6015 0.00199
C 20.91665 31.90638 0.01511
C 20.85058 30.58956 -0.00478
C 19.8611 29.66538 -0.01662
C 19.77165 28.30088 -0.01185
C 19.68991 24.07209 0.01126
C 20.87358 21.98021 0.01852
C 19.69666 21.28706 -0.00381
C 19.79604 19.85945 0.03046
C 17.24835 0.02598 0.01087
C 3.64862 31.90937 0.0174
C 22.1116 7.09679 0.00135
C 23.42995 4.95174 0.02555
C 27.09403 32.57937 0.00826
C 28.34833 32.00582 -0.00294
C 28.31204 19.15559 0.00152
C 28.23406 17.68625 0.01257
C 26.98814 17.02123 0.02316
C 27.01111 15.66634 0.04185
C 28.25613 14.96625 0.00194
C 28.24352 13.5403 -0.00621
C 27.03317 12.78467 0.02611
C 27.02779 11.3883 0.02198
C 28.24522 10.65335 0.01094
C 28.31506 9.22944 0.00235
C 27.10679 8.56058 0.01495
C 27.07137 7.09719 0.01259
C 28.3141 6.44006 0.01799
C 28.34073 4.99364 0.01699
C 27.11846 4.23863 -0.00416
C 27.02745 2.82022 0.01177
C 28.24279 2.20462 0.04266
C 24.60549 0.01007 0.00487
C 25.91121 0.75535 -0.00942
C 25.75931 2.15561 -0.02815
C 24.53771 2.84379 0.00622
C 22.13806 4.23406 0.01423
C 21.98695 2.87013 -0.00285
C 23.24568 2.13922 -0.009
C 23.29476 0.7202 -0.01199
C 22.10978 34.06037 -0.00229
C 24.54939 32.54384 -0.00938
C 25.79443 31.8822 -0.0264
C 24.66997 17.04966 -0.01154
C 24.54921 15.68892 0.00684
C 23.31862 6.36961 0.03102
C 25.77705 14.92441 -0.01052
C 24.59587 12.73012 0.00367
C 24.54226 11.35104 0.04306
C 25.81847 10.64181 0.00996
C 25.83843 9.1912 0.00195
C 24.63563 8.46079 -0.00802
C 24.55393 7.04377 -0.00218
C 25.84547 6.41695 -0.01654
C 25.95946 5.03656 -0.00037
C 24.65138 4.26221 -0.0032
C 25.75107 13.47676 -0.01679
C 2.44414 32.62408 0.0073
