327
Graphene
C 0.08219 34.0602 0.01295
C 9.72168 4.29832 0.00213
C 9.84571 2.82132 -0.00066
C 11.0895 2.14783 -0.00289
C 11.11425 0.7707 0.00028
C 9.79985 0.05367 -0.02213
C 12.31088 32.62469 0.03698
C 13.48603 31.84611 -0.00109
C 11.08739 4.86467 -0.05302
C 13.42432 30.51754 -0.00491
C 12.30558 28.29729 -0.0258
C 13.52106 27.65115 -0.0331
C 13.63051 26.29783 -0.00316
C 12.36565 25.60543 0.02188
C 12.25887 24.18046 -0.01979
C 13.59306 23.37978 0.02691
C 13.63072 21.92262 -0.01581
C 12.22498 29.71564 0.03338
C 11.1807 6.30239 -0.04147
C 9.8279 7.12289 -0.02815
C 9.67637 8.36257 0.03505
C 7.34501 2.7921 -0.0108
C 8.55757 2.20789 -0.00368
C 8.59365 0.72742 -0.02696
C 7.38845 0.02743 -0.00114
C 9.88473 32.70374 0.00228
C 11.10648 31.95556 0.00798
C 11.09551 30.50741 0.00422
C 9.87196 29.87054 0.0351
C 9.84604 28.45761 -0.03113
C 11.04896 27.68899 0.02098
C 11.09864 26.27127 0.01848
C 9.81855 25.63796 -0.00619
C 9.84203 24.226 -0.02162
C 11.07576 23.4336 0.00889
C 11.22031 22.00396 -0.00481
C 10.0115 21.2215 0.00979
C 9.81312 19.91906 0.01443
C 12.36527 21.34743 0.01452
C 7.37265 4.30981 -0.01957
C 12.14474 7.08227 0.04892
C 12.48437 2.9264 -0.03557
C 17.19721 28.36299 0.0106
C 18.44186 27.71564 -0.01154
C 18.50443 26.29802 -0.01721
C 17.3102 25.65408 -0.02422
C 17.19408 24.29198 0.01277
C 18.4205 23.48866 0.00096
C 18.41574 22.10842 -0.01527
C 17.13484 29.83181 -0.01594
C 17.22408 21.36034 0.01087
C 18.34986 19.05618 0.01511
C 18.45937 17.66426 -0.00478
C 18.4087 0.68491 -0.01662
C 17.1584 0.1454 -0.01185
C 19.64379 32.72359 0.01126
C 20.88179 31.94208 0.01852
C 20.93343 30.60588 -0.00381
C 17.20737 19.9308 0.00199
C 18.40811 30.46836 0.00742
C 18.41716 31.94807 -0.00311
C 17.18693 32.62968 0.00675
C 13.44859 1.98272 0.03754
C 13.53763 0.65733 0.01739
C 12.31928 34.05619 0.00755
C 14.64872 32.51675 -0.0054
C 15.91651 31.9453 0.00667
C 15.9242 30.5232 0.00143
C 14.7159 29.80256 -0.017
C 14.74853 28.42414 0.00364
C 15.92278 27.65201 -0.00831
C 16.01931 26.30863 -0.02957
C 14.84971 25.55284 -0.04422
C 14.78844 24.13754 0.00654
C 16.02173 23.50202 -0.00703
C 16.01439 22.07802 -0.04076
C 14.8956 21.41086 -0.00652
C 15.86689 0.55637 0.0058
C 14.70377 33.97566 -0.00865
C 12.24147 4.20442 -0.00111
C 19.65264 29.83553 0.03046
C 8.56935 5.03063 0.02058
C 7.33927 7.11601 -0.03682
C 2.38645 8.496 0.00438
C 2.41177 7.13071 0.01291
C 3.68836 6.44082 0.00093
C 3.68243 4.99358 0.00057
C 2.47212 4.20708 -0.01634
C 2.4599 2.77864 -0.00334
C 3.69525 2.15918 0.02339
C 3.61776 9.20154 -0.00191
C 3.7137 0.68941 0.01641
C 4.97262 32.6188 0.01364
C 6.14669 31.95282 -0.01062
C 6.1538 30.51949 -0.00033
C 4.94549 29.84444 0.03589
C 4.85139 28.49602 -0.02759
C 6.04679 27.6376 0.0402
C 6.12137 26.21379 0.00572
C 2.49551 34.0351 -0.00719
C 3.61103 10.65266 0.00373
C 2.44972 11.36767 0.02147
C 2.46401 12.79169 -0.014
C 3.67289 30.56315 -0.00892
C 2.42868 29.83874 -0.01362
C 2.4825 28.42085 -0.0008
C 3.65307 27.76818 0.0288
C 3.67309 26.26697 0.00393
C 2.39116 25.6378 0.00895
C 2.3776 24.23805 0.00685
C 3.67294 23.46777 0.02888
C 3.63577 22.07598 -0.00482
C 2.42693 21.35639 -0.01384
C 2.39862 19.90301 0.03693
C 3.72069 19.14227 0.01745
C 3.74162 17.76166 0.00488
C 2.47572 17.02284 -0.01004
C 2.54881 15.60838 -0.02896
C 3.66707 14.88067 -0.00131
C 3.6782 13.44492 -0.01118
C 4.92758 25.54525 0.03592
C 8.59005 6.37401 0.01965
C 4.91689 24.13176 0.00406
C 6.16928 22.08292 0.02841
C 7.40079 32.67951 -0.0014
C 8.61789 31.97984 0.02162
C 8.65373 30.5615 0.0076
C 7.33807 29.82165 0.01241
C 7.30638 28.43173 -0.01454
C 8.55443 27.78066 0.01945
C 8.62111 26.40199 0.01416
C 4.92911 34.01616 0.00415
C 7.37402 25.60139 0.03542
C 8.66328 23.48549 0.00244
C 8.72615 21.95732 -0.01717
C 7.43951 21.30597 0.05265
C 7.46314 19.91111 -0.01952
C 8.59582 19.31616 -0.02813
C 8.5151 9.01105 0.00374
C 7.27162 8.55296 0.00052
C 7.4147 24.19721 0.02299
C 6.05551 0.79174 -0.02162
C 6.07268 2.14736 0.01363
C 4.87575 2.85479 0.01877
C 4.96755 21.33649 -0.01111
C 4.90209 19.8777 -0.01275
C 6.20029 19.15918 0.00985
C 6.09861 17.73838 -0.02245
C 5.04258 17.0402 -0.00428
C 4.96714 15.56149 0.03101
C 6.01139 14.79469 -0.01536
C 5.99334 13.44197 -0.02689
C 4.88299 12.69946 -0.01046
C 4.87804 11.26274 -0.00891
C 6.0994 10.6122 0.02819
C 6.07276 9.32653 0.00165
C 4.87994 8.51382 -0.02971
C 4.87593 7.11762 0.02894
C 6.0687 6.39476 -0.01789
C 6.15566 5.01453 0.00444
C 4.903 4.33717 -0.00925
C 6.17211 23.45661 0.00943
C 3.70568 31.94977 -0.04848
C 19.72321 28.40881 0.0296
C 20.88258 26.36294 -0.02845
C 33.18576 26.39402 0.00682
C 31.9635 25.66351 -0.01779
C 31.91149 24.23835 0.03794
C 33.24038 23.56703 0.01927
C 33.14606 22.15881 0.01574
C 31.91829 21.33006 -0.02383
C 31.95779 19.8771 -0.01429
C 33.10432 27.79802 0.00026
C 33.12246 19.12943 -0.0136
C 31.8637 17.06364 -0.02474
C 31.7973 15.57467 0.00369
C 33.16821 14.91455 0.00455
C 33.07994 13.54304 -0.00644
C 31.91997 12.87061 -0.01839
C 31.95416 11.47443 0.00137
C 33.08865 10.68269 0.00199
C 33.17372 17.69779 0.00594
C 31.86732 28.44458 0.0544
C 31.92268 29.90605 -0.02142
C 33.15853 30.54438 0.01428
C 30.73818 23.4705 -0.0405
C 30.69413 21.97103 -0.01303
C 29.49266 21.30562 -0.01461
C 29.45857 19.90677 -0.02155
C 30.66872 19.15778 -0.00944
C 30.68895 17.6927 -0.03735
C 29.41495 17.02716 -0.00971
C 30.76399 14.74506 0.01518
C 30.75314 6.38672 0.01908
C 30.73966 5.04857 0.07705
C 29.44322 4.3207 0.0103
C 29.50383 2.8751 0.02108
C 30.76767 2.12391 0.00716
C 30.8134 0.7047 0.00307
C 29.56475 0.05394 0.00346
C 31.91589 32.57709 0.01713
C 33.2426 32.01329 -0.01694
C 33.1348 9.18791 0.04381
C 29.50682 24.03779 0.01705
C 31.84196 8.62616 0.02806
C 33.15255 6.36461 -0.00069
C 0.03162 17.04849 0.00648
C 34.40091 15.62833 0.02114
C 1.28291 14.89925 -0.02957
C 1.21536 13.50161 0.00343
C 34.34895 12.81864 -0.02656
C 34.37076 11.36032 -0.02442
C 1.19228 10.67168 -0.00027
C 1.23526 17.74806 0.01223
C 1.10112 9.193 -0.00583
C 0.0357 7.05542 -0.02849
C 1.25777 6.34802 0.02931
C 1.28419 4.90856 0.00628
C 0.0192 4.2555 -0.0345
C 34.41851 2.90467 -0.00931
C 1.23441 2.096 -0.00939
C 1.23775 0.73939 -0.00468
C 34.42653 8.46549 -0.02302
C 1.1322 19.18295 -0.01678
C 34.3188 19.95623 0.01951
C 34.37564 21.37489 -0.02213
C 33.17037 4.9394 0.04926
C 31.92826 4.2568 -0.03838
C 31.96859 2.80555 0.00349
C 33.24284 2.07293 -0.00323
C 33.23848 0.7099 -0.00841
C 32.02253 0.05784 0.0001
C 0.05627 32.6775 -0.02927
C 1.24139 31.97981 -0.01404
C 1.24553 30.55911 0.01027
C 34.39632 29.86709 0.01831
C 34.40589 28.46831 -0.01037
C 1.2421 27.80087 -0.00439
C 1.2149 26.37631 -0.00598
C 0.0307 25.72739 -0.05239
C 34.4142 24.25948 0.03076
C 1.22024 23.47551 0.00723
C 1.18514 22.05699 0.02712
C 31.90149 7.21122 0.01504
C 20.92077 27.72906 0.03374
C 29.3573 25.45589 0.0101
C 30.66832 27.68351 0.03531
C 22.11073 24.12625 0.00135
C 23.3951 23.46331 0.03102
C 23.36238 21.96516 0.02555
C 22.13288 21.37407 0.01423
C 22.13624 19.86111 -0.00285
C 23.42138 19.09596 -0.009
C 23.37 17.72654 -0.01199
C 22.12463 25.57407 -0.00498
C 22.27878 17.24074 -0.00229
C 23.40346 0.59936 -0.0264
C 22.11318 34.03088 -0.01154
C 24.5995 32.6218 0.00684
C 25.83213 31.91747 -0.01052
C 25.80607 30.548 -0.01679
C 24.59429 29.81605 0.00367
C 24.65292 28.42202 0.04306
C 23.05479 1.95178 -0.00938
C 23.30752 26.25958 0.02737
C 23.4231 27.67921 0.02117
C 22.18278 28.44294 -0.04078
C 19.73923 25.61316 -0.03213
C 19.6843 24.18553 0.02239
C 20.86267 23.47474 0.01153
C 20.89841 22.05946 0.02734
C 19.6515 21.396 -0.0055
C 19.6176 19.95195 0.01515
C 20.8371 19.15032 -0.00225
C 20.9796 17.73135 0.00071
C 19.7054 17.01835 -0.01107
C 19.56146 15.68343 -0.01586
C 21.00529 2.16772 -0.01971
C 20.9154 0.76869 -0.02118
C 19.62416 0.07887 0.00733
C 22.18107 32.70029 -0.00178
C 23.37539 31.88635 0.00768
C 23.39332 30.46816 -0.0276
C 22.12502 29.76895 0.03005
C 25.82435 27.73034 0.00996
C 30.70186 26.28002 -0.00669
C 25.73875 26.33312 0.00195
C 24.60795 24.17139 -0.00218
C 28.24154 21.98771 0.01799
C 27.04124 21.21004 0.01699
C 27.09685 19.8481 -0.00416
C 28.28434 19.16776 0.01177
C 28.32508 17.79315 0.04266
C 28.21072 4.81976 0.01324
C 27.09357 4.09368 0.0014
C 28.27465 23.3714 0.01259
C 27.01647 2.75456 0.00924
C 28.35724 0.68645 0.00261
C 27.16911 34.03461 0.03265
C 29.44792 32.68682 -0.02049
C 30.67558 31.9367 -0.01854
C 30.65849 30.51676 -0.01415
C 29.43793 29.74452 -0.03039
C 29.44902 28.26503 0.01836
C 28.24095 2.10181 0.02326
C 27.03237 24.10283 0.01495
C 26.95728 25.50381 0.00235
C 28.17174 26.20804 0.01094
C 25.83816 23.40032 -0.01654
C 25.80847 21.97969 -0.00037
C 24.56607 21.25008 -0.0032
C 24.60614 19.80982 0.00622
C 25.87664 19.06398 -0.02815
C 25.75147 17.69783 -0.00942
C 24.71531 4.07612 0.00487
C 24.41168 2.74353 0.00826
C 25.81856 1.97787 -0.00294
C 25.90497 0.63582 0.00152
C 24.61698 33.9954 0.01257
C 27.09378 32.64685 0.02316
C 28.27954 31.93254 0.04185
C 28.27194 30.4833 0.00194
C 27.05446 29.85306 -0.00621
C 27.05876 28.39493 0.02611
C 28.24749 27.58251 0.02198
C 24.4911 25.58534 -0.00802
C 2.47735 32.67169 0.01572
