431
Graphene
C 0.08724 34.06161 0.01295
C 13.43282 5.04901 -0.01062
C 12.26319 4.3321 -0.00033
C 12.31533 2.92293 0.03589
C 13.53197 2.15477 -0.02759
C 13.49159 0.69443 0.0402
C 12.26789 0.04059 0.00572
C 14.70831 32.77358 0.03592
C 15.93704 31.98414 0.00406
C 16.05463 30.5441 0.00943
C 14.78925 29.82773 0.02841
C 14.75866 28.45251 -0.01111
C 16.00274 27.67984 -0.01275
C 16.00333 26.16667 0.00985
C 14.67657 25.51081 -0.02245
C 14.64527 24.04709 -0.00428
C 15.96337 23.37841 0.03101
C 16.00322 22.01705 -0.01536
C 14.66675 21.28183 -0.02689
C 14.58336 19.85635 -0.01046
C 15.83847 19.1875 -0.00891
C 15.83825 17.72152 0.02819
C 14.66815 17.00472 0.00165
C 14.68067 15.57566 -0.02971
C 13.5349 6.42046 0.01364
C 15.82726 14.9132 0.02894
C 12.22452 7.14366 -0.00719
C 13.49644 9.31843 0.02339
C 10.9958 2.26991 0.00393
C 10.98827 0.79814 0.00895
C 9.79641 0.11424 0.00685
C 12.28806 32.66732 0.02888
C 13.51824 31.89268 -0.00482
C 13.57872 30.57383 -0.01384
C 12.32727 29.81018 0.03693
C 12.3809 28.40879 0.01745
C 13.59466 27.68652 0.00488
C 13.57376 26.25031 -0.01004
C 12.30035 25.58415 -0.02896
C 12.23624 24.20497 -0.00131
C 13.27504 23.38958 -0.01118
C 13.3494 21.91848 -0.014
C 13.3745 19.14079 0.02147
C 13.46407 17.74711 0.00373
C 12.15292 17.02978 -0.00191
C 12.20531 15.60442 0.00438
C 13.50816 14.92094 0.01291
C 13.55405 13.49765 0.00093
C 12.22634 12.94551 0.00057
C 12.21588 11.43049 -0.01634
C 13.43954 10.7521 -0.00334
C 12.26689 8.52754 0.01641
C 9.8123 3.00913 0.0288
C 15.94082 13.51017 -0.01789
C 14.72584 11.38645 -0.00925
C 17.15403 15.58292 -0.00114
C 18.4206 14.85108 0.00228
C 18.40935 13.50999 0.00798
C 17.15818 12.72181 0.00422
C 17.13154 11.35403 0.0351
C 18.40424 10.69068 -0.03113
C 18.41637 9.24505 0.02098
C 17.17893 8.55404 0.01848
C 17.20217 7.11302 -0.00619
C 18.39417 6.3881 -0.02162
C 18.39969 4.97271 0.00889
C 17.24671 4.20478 -0.00481
C 17.24855 2.82196 0.00979
C 18.40451 2.02286 0.01443
C 18.42002 0.6945 0.03505
C 17.18768 0.02264 -0.02815
C 19.58132 32.6784 -0.04147
C 20.77272 31.96238 -0.05302
C 20.85453 30.53477 0.00213
C 19.63958 29.79551 -0.00066
C 19.6558 28.29485 -0.00289
C 20.92746 27.64521 0.00028
C 20.91064 26.24203 -0.02213
C 17.13636 17.07465 -0.02696
C 14.76171 12.79659 0.00444
C 18.38387 17.73437 -0.00368
C 17.14306 19.84753 -0.01957
C 15.9025 10.64729 0.01877
C 15.9476 9.22766 0.01363
C 14.71201 8.62175 -0.02162
C 14.72645 7.19511 0.00415
C 15.95439 6.43364 -0.0014
C 15.94299 5.01289 0.02162
C 14.73249 4.32516 0.0076
C 14.7495 2.88984 0.01241
C 16.01061 2.24235 -0.01454
C 15.92584 0.79259 0.01945
C 14.7426 0.06574 0.01416
C 17.21902 32.69893 0.03542
C 18.37742 31.92884 0.02299
C 18.41654 30.49682 0.00244
C 17.22116 29.77329 -0.01717
C 17.23972 28.35621 0.05265
C 18.44122 27.62329 -0.01952
C 18.45273 26.18674 -0.02813
C 17.22468 25.51621 0.00374
C 17.26268 24.0436 0.00052
C 18.4354 23.33238 -0.03682
C 18.42309 21.97293 0.01965
C 17.21577 21.24608 0.02058
C 18.36504 19.16466 -0.0108
C 19.70754 25.52627 0.03698
C 9.77423 4.32903 -0.0008
C 11.00355 6.42252 -0.00892
C 3.79574 0.93801 0.00081
C 2.61337 0.09315 0.00245
C 4.84331 32.74559 0.02728
C 6.11891 32.04084 -0.00039
C 6.2147 30.61979 0.0064
C 5.02326 29.86489 0.00211
C 4.97144 28.46621 -0.00449
C 6.19921 27.67117 -0.01979
C 6.22233 26.11541 0.02784
C 4.9626 25.40926 -0.01977
C 4.91084 23.95895 -0.00561
C 5.70174 22.82023 0.00208
C 5.09301 21.57447 0.01707
C 5.22658 20.03233 0.02769
C 6.16509 19.11424 -0.03291
C 6.12165 17.77131 -0.04999
C 4.84967 17.14651 0.04505
C 4.81492 15.67704 0.03284
C 5.97365 14.86282 -0.04307
C 6.05423 13.45643 0.03189
C 4.82954 12.73686 0.00031
C 4.7791 11.32462 -0.003
C 6.01981 10.58648 0.01402
C 3.9089 2.52197 -0.02805
C 6.00946 9.08875 0.02379
C 2.56319 3.17598 -0.01386
C 3.31481 6.10137 0.00558
C 3.77915 30.54284 -0.03672
C 2.4578 29.7951 0.01913
C 2.45185 28.44083 0.00267
C 3.70387 27.69331 0.00787
C 3.75869 26.28127 0.02426
C 2.41302 25.57477 0.01218
C 2.41492 24.11519 -0.01471
C 3.61859 23.41458 -0.02827
C 3.69471 22.06911 0.01078
C 2.49644 21.3456 -0.00112
C 2.51246 19.97597 0.03345
C 3.83744 19.41813 0.00748
C 3.69793 17.87845 0.00662
C 2.49249 17.14339 -0.0154
C 2.4496 15.66306 -0.01299
C 3.57091 14.83745 -0.00407
C 3.65838 13.41532 0.01138
C 2.37051 12.7744 0.03278
C 2.35876 11.36083 -0.00177
C 3.56862 10.62534 0.04421
C 3.63995 9.20494 0.00088
C 2.37657 8.49159 0.00828
C 2.30011 7.02456 -0.02375
C 2.56676 4.70505 -0.0059
C 10.97315 5.063 -0.01362
C 4.76374 8.40158 0.00907
C 5.94642 6.06425 -0.01509
C 7.52031 2.84573 -0.00077
C 8.67156 2.20144 0.03368
C 8.59242 0.79028 -0.02929
C 7.39488 0.15319 -0.00966
C 9.83154 32.79392 -0.03337
C 11.05651 31.9957 0.01227
C 10.99837 30.53934 0.00873
C 9.81762 29.81533 -0.00049
C 9.84228 28.39124 0.00848
C 11.01721 27.77119 -0.01303
C 11.15964 26.36564 -0.01378
C 10.06379 25.52262 0.02635
C 11.03804 17.93106 0.0127
C 9.74506 17.26767 0.01396
C 9.75519 15.80775 0.01849
C 10.9245 15.03983 -0.01142
C 10.95488 13.6306 -0.00562
C 9.77783 12.87512 -0.00494
C 9.76874 11.43416 0.00054
C 11.00024 10.71263 0.03007
C 10.9826 9.32682 -0.00095
C 9.67824 8.54322 0.01572
C 9.75904 7.13676 -0.04848
C 7.39404 4.25687 0.01305
C 4.66611 6.82402 0.00643
C 8.58517 5.0353 0.0276
C 7.16906 7.02637 -0.01343
C 5.99909 4.58314 0.03267
C 5.18417 3.25839 0.02374
C 6.1679 2.34612 0.00402
C 6.14455 0.81989 0.0073
C 4.96808 0.14459 0.0174
C 7.33558 32.7628 0.03828
C 8.5873 32.12486 0.01226
C 8.67556 30.56657 -0.00279
C 7.39671 29.82007 0.01996
C 7.43315 28.37638 -0.03996
C 8.6307 27.60273 0.01465
C 8.76004 26.13192 -0.00074
C 7.41601 25.54996 -0.00518
C 8.38899 17.87816 0.0086
C 7.34299 17.15046 -0.00643
C 7.25287 15.62592 0.017
C 8.55189 15.11603 -0.03113
C 8.54451 13.62808 -0.02566
C 7.30901 12.80026 -0.00094
C 7.36387 11.39077 0.02322
C 8.57312 10.68405 -0.00725
C 8.41867 9.22684 -0.05697
C 7.20615 8.38147 0.01087
C 8.44412 6.39745 0.00988
C 3.67646 31.9669 -0.04306
C 19.60625 24.16312 -0.00109
C 20.88233 21.96986 0.03338
C 30.69293 13.46429 -0.01303
C 29.39405 12.6921 -0.01461
C 29.40152 11.26465 -0.02155
C 30.68541 10.62504 -0.00944
C 30.68281 9.16507 -0.03735
C 29.47125 8.47565 -0.00971
C 29.48048 6.98168 0.01518
C 30.69958 6.27552 0.01908
C 30.74068 4.85472 0.07705
C 29.48716 4.25747 0.0103
C 29.53528 2.74678 0.02108
C 30.70921 1.9765 0.00716
C 30.69333 0.5724 0.00307
C 29.45066 33.99417 0.00346
C 31.96262 32.66587 0.01713
C 33.1787 31.87978 -0.01694
C 33.25972 30.49086 0.01428
C 32.01006 29.83026 -0.02142
C 31.93455 28.36342 0.0544
C 33.22521 27.62084 0.00026
C 33.17355 26.23158 0.00682
C 31.90877 25.55522 -0.01779
C 31.97408 24.11102 0.03794
C 30.63594 14.91402 -0.0405
C 33.20299 23.41556 0.01927
C 29.50689 15.68245 0.01705
C 30.71737 17.79564 -0.00669
C 26.95336 8.51236 0.02611
C 27.08137 7.07087 0.02198
C 28.25968 6.38363 0.01094
C 28.2165 4.93648 0.00235
C 27.08846 4.19999 0.01495
C 27.02298 2.76683 0.01259
C 28.29089 2.13699 0.01799
C 28.24624 0.69438 0.01699
C 27.08413 34.03603 -0.00416
C 29.4872 32.59434 0.01177
C 30.70861 31.96836 0.04266
C 30.72224 30.54931 0.01324
C 29.48029 29.90265 0.0014
C 29.49955 28.4694 0.00924
C 30.67933 27.73939 0.02326
C 30.71644 26.2493 0.00261
C 29.49521 25.57622 0.03265
C 29.47326 24.229 -0.02049
C 30.73321 23.45882 -0.01854
C 30.79124 22.10324 -0.01415
C 29.5735 21.35764 -0.03039
C 29.43819 19.93793 0.01836
C 30.7062 19.24465 0.03531
C 29.53043 17.07651 0.0101
C 28.22442 9.21275 -0.00621
C 33.17722 21.99806 0.01574
C 31.93799 19.88672 -0.01429
C 34.40583 24.15711 0.03076
C 1.14614 23.44518 0.00723
C 1.19351 22.00166 0.02712
C 34.40347 21.30247 -0.02213
C 34.43035 19.86554 0.01951
C 1.21695 19.20307 -0.01678
C 1.22276 17.82866 0.01223
C 0.01797 17.1221 0.00648
C 34.34536 15.57564 0.02114
C 1.18534 14.98651 -0.02957
C 1.10397 13.45267 0.00343
C 34.27732 12.81505 -0.02656
C 34.27219 11.31481 -0.02442
C 1.09323 10.5765 -0.00027
C 1.12078 9.19032 -0.00583
C 34.31994 8.46781 -0.02302
C 34.23331 7.1004 -0.02849
C 1.04697 6.45713 0.02931
C 1.21908 5.01695 0.00628
C 34.41813 4.31023 -0.0345
C 0.01838 2.85748 -0.00931
C 1.2875 2.22605 -0.00939
C 1.32289 0.77054 -0.00468
C 34.4023 25.56968 -0.05239
C 31.89692 21.39139 -0.02383
C 1.23346 26.28499 -0.00598
C 0.03271 28.3691 -0.01037
C 33.21095 19.21079 -0.0136
C 33.25121 17.74232 0.00594
C 31.97079 17.05391 -0.02474
C 31.92081 15.6723 0.00369
C 33.05044 14.90157 0.00455
C 33.03655 13.43866 -0.00644
C 31.91326 12.69122 -0.01839
C 31.87077 11.35431 0.00137
C 33.11915 10.50989 0.00199
C 33.16152 9.15025 0.04381
C 31.90199 8.48454 0.02806
C 31.84339 7.04819 0.01504
C 33.01886 6.37476 -0.00069
C 33.14702 4.93446 0.04926
C 31.94351 4.12484 -0.03838
C 31.94408 2.64798 0.00349
C 33.20451 2.10108 -0.00323
C 33.29693 0.73351 -0.00841
C 31.99364 34.02716 0.0001
C 34.42359 32.68854 -0.02927
C 1.2124 31.94809 -0.01404
C 1.27074 30.5604 0.01027
C 0.0846 29.78919 0.01831
C 1.22703 27.73744 -0.00439
C 20.87518 23.42705 -0.00491
C 28.17318 10.58484 0.00194
C 27.00234 12.81941 0.02316
C 23.35844 26.28923 -0.00865
C 22.14016 25.52604 0.00675
C 22.14756 24.09608 -0.00311
C 23.36305 23.38616 0.00742
C 23.33922 22.03953 -0.01594
C 22.13089 21.37532 0.0106
C 22.13056 19.88991 -0.01154
C 23.31088 19.16445 -0.01721
C 23.38396 17.76024 -0.02422
C 22.14159 17.08537 0.01277
C 22.08749 15.67304 0.00096
C 23.31129 14.90469 -0.01527
C 23.31085 13.54269 0.01087
C 22.07024 12.78609 0.00199
C 22.08731 11.3328 0.01511
C 23.2711 10.68517 -0.00478
C 23.2958 9.26507 -0.01662
C 22.1102 8.53808 -0.01185
C 22.04336 7.10345 0.01126
C 23.45496 6.42589 0.01852
C 23.35596 4.99848 -0.00381
C 22.14239 4.3098 0.03046
C 22.12583 2.84198 0.0296
C 23.37309 27.66929 0.0058
C 23.34631 2.13199 0.03374
C 22.14019 28.39443 -0.00652
C 23.33866 30.51743 -0.00703
C 19.64027 21.22038 -0.0258
C 19.60873 19.87824 -0.0331
C 20.95632 19.18528 -0.00316
C 20.89764 17.77525 0.02188
C 19.6946 17.06921 -0.01979
C 19.61095 15.63538 0.02691
C 20.83396 14.94715 -0.01581
C 20.84572 13.54236 0.01452
C 19.60346 12.76734 0.04892
C 19.59738 11.34911 -0.00111
C 20.82105 10.71462 -0.03557
C 20.84074 9.20455 0.03754
C 19.59474 8.56313 0.01739
C 19.63062 7.1033 0.00755
C 20.81323 6.37977 -0.0054
C 20.85983 4.92478 0.00667
C 19.59832 4.26306 0.00143
C 19.61173 2.8172 -0.017
C 20.89457 2.09443 0.00364
C 20.87192 0.69486 -0.00831
C 19.66636 34.07913 -0.02957
C 22.04231 32.66578 -0.04422
C 23.28623 31.93403 0.00654
C 22.01996 29.78896 -0.04076
C 27.03981 11.43242 0.04185
C 23.33089 0.69339 -0.02845
C 24.52733 32.63615 0.02239
C 24.5123 2.77761 -0.00938
C 25.76511 2.08681 -0.0264
C 25.82096 0.62697 -0.01154
C 24.56797 0.01427 0.00684
C 27.0454 32.70702 -0.01052
C 28.20284 31.90017 -0.01679
C 28.21324 30.47805 0.00367
C 27.0023 29.80707 0.04306
C 26.99464 28.3946 0.00996
C 28.2118 27.72859 0.00195
C 28.31322 26.29455 -0.00802
C 27.0581 25.57075 -0.00218
C 27.03049 24.16985 -0.01654
C 28.23329 23.46273 -0.00037
C 28.29688 22.03278 -0.0032
C 27.14427 21.33106 0.00622
C 27.01231 19.93329 -0.02815
C 28.24899 19.15798 -0.00942
C 28.25812 17.7168 0.00487
C 27.00997 17.03298 0.00826
C 26.9922 15.61244 -0.00294
C 28.22154 14.97678 0.00152
C 28.1806 13.49485 0.01257
C 24.58785 4.22672 -0.00229
C 22.10215 0.04452 -0.03213
C 25.89201 4.90905 -0.01199
C 24.57502 7.16823 -0.00285
C 25.78842 31.97474 0.01153
C 25.78915 30.54186 0.02734
C 24.52033 29.79124 -0.0055
C 24.51926 28.34432 0.01515
C 25.78054 27.72564 -0.00225
C 25.82492 26.22793 0.00071
C 24.56372 25.57281 -0.01107
C 24.53117 24.11179 -0.01586
C 25.80442 23.48316 -0.01971
C 25.84355 22.06859 -0.02118
C 24.58071 21.21793 0.00733
C 24.58224 19.82482 -0.00178
C 25.8698 19.22329 0.00768
C 25.8414 17.82828 -0.0276
C 24.62226 17.07663 0.03005
C 24.58905 15.65742 -0.04078
C 25.76343 14.86464 0.02117
C 25.79885 13.51154 0.02737
C 24.54294 12.80811 -0.00498
C 24.46901 11.40529 0.00135
C 25.77441 10.74229 0.03102
C 25.74004 9.32165 0.02555
C 24.52196 8.58387 0.01423
C 25.84422 6.35925 -0.009
C 2.50608 32.65606 -0.00012
