346
Graphene
C 0.01183 0.07336 0.01295
C 9.7773 17.06729 -0.03113
C 9.98015 15.57514 0.02098
C 11.22778 14.8092 0.01848
C 11.1144 13.37259 -0.00619
C 9.84016 12.71007 -0.02162
C 9.78779 11.38889 0.00889
C 11.07751 10.69138 -0.00481
C 11.09285 9.24855 0.00979
C 9.88842 8.59757 0.01443
C 9.85168 7.13541 0.03505
C 11.0797 6.4501 -0.02815
C 11.17923 4.99518 -0.04147
C 9.89819 4.30565 -0.05302
C 9.84762 2.86361 0.00213
C 11.11386 2.10222 -0.00066
C 11.01089 0.75544 -0.00289
C 9.81887 0.12717 0.00028
C 11.08282 17.70245 0.0351
C 11.02947 19.16543 0.00422
C 9.80717 19.83628 0.00798
C 9.81538 21.2627 0.00228
C 8.62648 6.46812 0.01416
C 8.63565 4.98918 0.03542
C 7.46854 4.29843 0.02299
C 7.4014 2.87051 0.00244
C 8.63831 2.1679 -0.01717
C 8.60349 0.73261 0.05265
C 7.33098 0.04067 -0.01952
C 9.74733 32.78315 -0.02813
C 12.2161 32.59291 -0.02213
C 10.90476 32.04476 0.00374
C 9.76155 29.84514 -0.03682
C 9.73204 28.46244 0.01965
C 11.03761 27.79628 0.02058
C 11.12816 26.47571 -0.01957
C 9.93659 25.59851 -0.0108
C 9.97417 24.1376 -0.00368
C 10.99783 23.29367 -0.02696
C 11.07799 21.94678 -0.00114
C 10.97868 30.61197 0.00052
C 7.37889 7.13508 0.01945
C 13.53657 31.94578 0.03698
C 12.19423 29.95673 -0.00491
C 14.68098 32.66534 -0.04422
C 15.93146 31.9274 0.00654
C 15.87874 30.55193 -0.00703
C 14.69151 29.79435 -0.04076
C 14.59292 28.28745 -0.00652
C 15.88241 27.6033 0.0058
C 15.95543 26.23554 -0.00865
C 15.91914 23.47234 0.00675
C 15.87259 22.09806 -0.00311
C 14.64361 21.27943 0.00742
C 14.70966 19.88185 -0.01594
C 15.91208 19.20951 0.0106
C 15.88271 17.71469 -0.01154
C 14.77329 17.00393 -0.01721
C 14.83767 15.59391 -0.02422
C 15.16467 2.14345 0.01277
C 15.83205 0.90421 0.00096
C 12.17308 33.97865 -0.02957
C 13.4205 0.6525 -0.00831
C 13.64128 2.0504 0.00364
C 12.38068 2.82936 -0.017
C 12.20366 28.49804 0.03338
C 13.33089 27.72502 -0.0258
C 13.43357 21.98626 -0.0331
C 12.25277 21.2343 -0.00316
C 12.32901 19.81774 0.02188
C 13.51875 19.16104 -0.01979
C 13.43648 17.76434 0.02691
C 12.24232 17.01168 -0.01581
C 13.47127 30.50823 -0.00109
C 12.42211 15.5877 0.01452
C 13.44139 13.40776 -0.00111
C 12.33184 12.6013 -0.03557
C 12.37977 11.06088 0.03754
C 12.3809 8.65501 0.01739
C 12.34715 7.17044 0.00755
C 13.51272 6.32267 -0.0054
C 13.55073 5.02151 0.00667
C 12.46255 4.22479 0.00143
C 13.72367 14.77462 0.04892
C 7.35901 8.51283 -0.01454
C 8.63151 9.23229 0.01241
C 8.62164 10.68841 0.0076
C 2.45277 7.13063 0.0288
C 3.69648 6.37287 0.00393
C 3.75464 5.00679 0.00895
C 2.51125 4.2996 0.00685
C 2.42395 2.88146 0.02888
C 3.63944 2.15705 -0.00482
C 3.60987 0.69829 -0.01384
C 2.40622 0.06912 0.03693
C 4.87801 32.60079 0.01745
C 6.05237 32.00964 0.00488
C 6.0972 30.56432 -0.01004
C 4.91594 29.86417 -0.02896
C 4.80465 28.39631 -0.00131
C 6.09615 27.72164 -0.01118
C 6.25241 26.21297 -0.014
C 4.99986 25.57229 0.02147
C 4.90959 24.21126 0.00373
C 2.50004 8.51804 -0.0008
C 3.69388 9.21245 -0.01362
C 3.71399 10.71764 -0.00892
C 2.56055 11.40355 -0.04848
C 3.64776 30.54403 -0.03337
C 2.45356 29.79212 0.01227
C 2.41469 28.39353 0.00873
C 3.56261 27.64753 -0.00049
C 3.66278 26.2979 0.00848
C 2.41627 25.56074 -0.01303
C 2.42045 24.11777 -0.01378
C 3.61221 23.51569 0.02635
C 6.09724 23.49732 -0.00191
C 3.67154 22.07301 0.0127
C 2.35143 19.91655 0.01849
C 3.61462 19.18471 -0.01142
C 3.61256 17.82743 -0.00562
C 2.401 16.99699 -0.00494
C 2.40477 15.62358 0.00054
C 3.60772 14.90585 0.03007
C 3.66753 13.48544 -0.00095
C 2.43117 12.83773 0.01572
C 2.45175 21.37442 0.01396
C 6.09127 22.05281 0.00438
C 4.9078 21.33255 0.01291
C 4.83035 19.8178 0.00093
C 7.36772 29.87269 0.03101
C 7.33811 28.44509 -0.01536
C 8.53202 27.5982 -0.02689
C 8.63583 26.25617 -0.01046
C 7.39138 25.49515 -0.00891
C 7.38933 24.11256 0.02819
C 8.66255 23.47085 0.00165
C 8.63293 22.07175 -0.02971
C 8.56495 30.64875 -0.00428
C 7.42434 21.34803 0.02894
C 8.46725 19.1602 0.00444
C 8.62031 17.78878 -0.00925
C 7.42355 16.99901 0.01877
C 7.395 15.55848 0.01363
C 8.73284 14.87522 -0.02162
C 8.64475 13.4836 0.00415
C 7.37631 12.80396 -0.0014
C 7.3438 11.37241 0.02162
C 7.31369 19.99452 -0.01789
C 14.64581 0.01263 -0.01527
C 8.62635 31.99091 -0.02245
C 4.86296 0.04745 -0.01275
C 6.01582 19.23505 0.00057
C 6.15202 17.77859 -0.01634
C 4.83506 17.06365 -0.00334
C 4.84247 15.68951 0.02339
C 6.1502 14.93015 0.01641
C 6.15388 13.51295 -0.00719
C 4.8258 12.8023 0.01364
C 4.92763 11.41582 -0.01062
C 7.31351 32.66507 0.00985
C 6.13061 10.66483 -0.00033
C 4.96607 8.58307 -0.02759
C 4.97966 7.07763 0.0402
C 6.16979 6.378 0.00572
C 6.15485 4.96721 0.03592
C 4.95352 4.27906 0.00406
C 4.82058 2.82983 0.00943
C 6.16247 2.14997 0.02841
C 6.11245 0.69634 -0.01111
C 6.14728 9.30963 0.03589
C 17.05384 32.82602 0.01087
C 18.2743 32.0641 0.00199
C 18.37191 30.58286 0.01511
C 33.04938 30.55992 0.01428
C 31.90382 29.79176 -0.02142
C 31.89704 28.37481 0.0544
C 33.12434 27.74559 0.00026
C 33.18008 26.3236 0.00682
C 31.94099 25.54527 -0.01779
C 31.89566 24.13848 0.03794
C 33.10329 23.47316 0.01927
C 33.13079 22.02711 0.01574
C 31.91632 21.36194 -0.02383
C 31.85166 19.92319 -0.01429
C 33.07718 19.20983 -0.0136
C 33.16719 17.74107 0.00594
C 32.04106 16.94858 -0.02474
C 31.9678 15.52448 0.00369
C 33.12046 14.70187 0.00455
C 33.19564 13.33344 -0.00644
C 33.1841 31.98196 -0.01694
C 31.94886 32.6905 0.01713
C 29.54921 34.04837 0.00346
C 30.81507 0.70426 0.00307
C 30.68612 26.27222 0.01836
C 29.44334 25.61808 0.03531
C 29.38689 24.13443 -0.00669
C 30.61473 23.43335 0.0101
C 30.66349 22.07299 0.01705
C 29.45079 21.33856 -0.0405
C 29.4647 19.92665 -0.01303
C 30.71303 19.22699 -0.01461
C 31.90285 12.56402 -0.01839
C 30.79816 17.70357 -0.02155
C 29.41351 15.63022 -0.03735
C 30.61345 14.74915 -0.00971
C 30.71646 13.33498 0.01518
C 30.77635 6.44416 0.01908
C 30.69159 5.04585 0.07705
C 29.54545 4.1874 0.0103
C 29.41609 2.85677 0.02108
C 30.74709 2.14883 0.00716
C 29.45171 16.99904 -0.00944
C 32.00942 11.17872 0.00137
C 33.27695 10.66136 0.00199
C 33.34751 9.27464 0.04381
C 1.17727 19.15351 -0.01678
C 1.14687 17.7411 0.01223
C 34.3739 17.10773 0.00648
C 34.27611 15.61061 0.02114
C 1.06209 15.00697 -0.02957
C 1.26708 13.59682 0.00343
C 0.05242 12.78048 -0.02656
C 0.12454 11.40156 -0.02442
C 34.3455 19.85847 0.01951
C 1.38477 10.63993 -0.00027
C 0.07282 8.51299 -0.02302
C 34.40372 7.0929 -0.02849
C 1.22309 6.37525 0.02931
C 1.15854 4.99783 0.00628
C 34.37139 4.32221 -0.0345
C 34.39041 2.84093 -0.00931
C 1.16555 2.22445 -0.00939
C 1.29571 0.7883 -0.00468
C 1.28145 9.21982 -0.00583
C 30.63445 27.72191 -0.03039
C 34.37288 21.34504 -0.02213
C 1.14019 23.47286 0.00723
C 32.16282 8.6123 0.02806
C 31.88527 7.17646 0.01504
C 33.17514 6.45659 -0.00069
C 33.14123 5.04342 0.04926
C 31.96705 4.29367 -0.03838
C 31.89811 2.83141 0.00349
C 33.14155 2.18835 -0.00323
C 33.20935 0.82471 -0.00841
C 1.15149 22.11805 0.02712
C 32.00721 0.00937 0.0001
C 1.21775 31.90366 -0.01404
C 1.21863 30.55508 0.01027
C 34.32845 29.85876 0.01831
C 34.34874 28.48551 -0.01037
C 1.0754 27.76557 -0.00439
C 1.18072 26.37807 -0.00598
C 34.4081 25.59777 -0.05239
C 34.33259 24.22749 0.03076
C 34.41899 32.64339 -0.02927
C 3.69245 32.03744 -0.00966
C 29.38391 28.39466 -0.01415
C 30.69366 30.49764 -0.02049
C 19.61686 25.53943 0.00733
C 19.60925 24.09188 -0.00178
C 20.90768 23.37478 0.00768
C 20.92675 21.91547 -0.0276
C 19.61783 21.27061 0.03005
C 19.60206 19.89883 -0.04078
C 20.81376 19.08681 0.02117
C 19.46923 0.07068 0.02737
C 22.24641 32.8877 -0.00498
C 23.43856 31.90418 0.00135
C 23.3075 30.51286 0.03102
C 22.04617 29.86591 0.02555
C 22.03111 28.42704 0.01423
C 23.28484 27.72097 -0.00285
C 23.26588 26.2718 -0.009
C 22.07047 25.59115 -0.01199
C 22.04545 24.09372 -0.00229
C 20.84827 26.34372 -0.02118
C 20.77288 27.75059 -0.01971
C 19.57215 28.55383 -0.01586
C 19.71085 29.94632 -0.01107
C 17.16975 29.82501 -0.00478
C 17.1611 28.38013 -0.01662
C 18.35447 27.72387 -0.01185
C 18.38124 26.32153 0.01126
C 17.1505 25.57447 0.01852
C 17.15148 24.20483 -0.00381
C 18.31309 23.44945 0.03046
C 18.37709 21.97313 0.0296
C 23.2596 23.39614 -0.00938
C 17.09806 21.33693 0.03374
C 18.31203 19.16087 -0.03213
C 18.29824 17.73772 0.02239
C 17.09471 17.19139 0.01153
C 18.34377 0.67733 0.02734
C 17.04235 0.38657 -0.0055
C 19.68641 32.77778 0.01515
C 20.97082 32.1699 -0.00225
C 20.94842 30.66787 0.00071
C 17.1466 19.90061 -0.02845
C 23.30639 22.02145 -0.0264
C 22.08193 21.18998 -0.01154
C 22.10947 19.72088 0.00684
C 26.94607 29.82107 -0.00621
C 26.8623 28.4435 0.02611
C 28.19923 27.73609 0.02198
C 28.23542 26.35104 0.01094
C 26.90187 25.57197 0.00235
C 26.94564 24.17964 0.01495
C 28.10577 23.48892 0.01259
C 28.20631 22.08295 0.01799
C 28.1916 30.49475 0.00194
C 27.01117 21.38881 0.01699
C 28.17854 19.21522 0.01177
C 28.26223 17.75143 0.04266
C 27.02348 17.18516 0.01324
C 28.14451 2.22073 0.0014
C 28.18073 0.78577 0.00924
C 27.04572 0.12329 0.02326
C 29.59178 32.63674 0.00261
C 30.77968 31.93685 0.03265
C 27.10009 19.95413 -0.00416
C 29.43668 29.852 -0.01854
C 28.34682 31.94368 0.04185
C 24.4768 0.00634 0.01257
C 23.35393 19.12713 -0.01052
C 22.75031 0.14051 -0.01679
C 24.59526 32.6514 0.00367
C 25.84912 31.93852 0.04306
C 25.76664 30.57762 0.00996
C 24.55606 29.82146 0.00195
C 24.53237 28.40521 -0.00802
C 25.7404 27.65876 -0.00218
C 27.09864 32.70878 0.02316
C 25.70316 26.28892 -0.01654
C 24.50454 24.08467 -0.0032
C 25.73471 23.49791 0.00622
C 25.74466 22.10485 -0.02815
C 24.55977 21.31429 -0.00942
C 24.58284 19.90427 0.00487
C 25.80623 19.14466 0.00826
C 25.9339 17.75549 -0.00294
C 25.71813 0.63191 0.00152
C 24.55904 25.53918 -0.00037
C 2.46027 32.67341 -0.02929
