393
Graphene
C 0.04139 0.03804 0.01295
C 15.98739 14.94445 0.01877
C 15.96352 13.49247 0.01363
C 14.72811 12.8451 -0.02162
C 14.76366 11.40274 0.00415
C 15.94184 10.6392 -0.0014
C 15.95733 9.22114 0.02162
C 14.76231 8.51276 0.0076
C 14.76084 7.06132 0.01241
C 15.9359 6.37947 -0.01454
C 14.81172 15.62083 -0.00925
C 15.96631 4.86086 0.01945
C 14.82164 2.8436 0.03542
C 16.03582 2.08772 0.02299
C 16.03349 0.69391 0.00244
C 14.77088 0.07224 -0.01717
C 17.23256 32.63232 0.05265
C 18.48044 31.86349 -0.01952
C 18.46784 30.43149 -0.02813
C 17.18025 29.72077 0.00374
C 17.27059 28.3042 0.00052
C 14.78552 4.20256 0.01416
C 14.76388 17.05421 0.00444
C 15.94053 17.78847 -0.01789
C 15.93213 19.22436 0.02894
C 12.2723 7.19623 0.03589
C 13.46372 6.44639 -0.02759
C 13.49244 4.99875 0.0402
C 12.25091 4.30797 0.00572
C 12.29069 2.84342 0.03592
C 13.55037 2.20928 0.00406
C 13.51959 0.8312 0.00943
C 12.26685 0.07352 0.02841
C 14.70565 32.78329 -0.01111
C 15.96363 31.9195 -0.01275
C 16.01927 30.50227 0.00985
C 14.78476 29.83879 -0.02245
C 14.78644 28.39281 -0.00428
C 15.94187 27.61824 0.03101
C 15.92957 26.27223 -0.01536
C 14.6428 25.56341 -0.02689
C 14.72047 24.14307 -0.01046
C 15.97534 23.37519 -0.00891
C 16.05873 22.00274 0.02819
C 14.80328 21.32139 0.00165
C 14.67976 19.96675 -0.02971
C 18.42733 27.66209 -0.03682
C 12.28416 8.57 -0.00033
C 18.40981 26.26032 0.01965
C 17.19542 24.11914 -0.01957
C 20.93053 30.52447 -0.02213
C 19.68646 29.7905 0.03698
C 19.67551 28.48989 -0.00109
C 20.91337 27.72486 -0.00491
C 20.88835 26.32013 0.03338
C 19.65478 25.62776 -0.0258
C 19.71065 24.16508 -0.0331
C 20.94746 23.41094 -0.00316
C 20.91869 21.97746 0.02188
C 20.9615 31.90088 0.00028
C 19.69386 21.31374 -0.01979
C 20.8557 19.13046 -0.01581
C 20.87834 17.68648 0.01452
C 19.65585 16.98744 0.04892
C 19.6369 15.55995 -0.00111
C 20.97601 14.8714 -0.03557
C 20.82247 13.48317 0.03754
C 19.55002 12.85224 0.01739
C 19.62838 11.42031 0.00755
C 20.83818 10.71804 -0.0054
C 19.61023 19.81191 0.02691
C 19.7028 32.5755 -0.00289
C 17.30831 34.05171 -0.00066
C 18.49164 0.72983 0.00213
C 18.4978 23.45899 -0.0108
C 18.52033 22.02758 -0.00368
C 17.32905 21.30168 -0.02696
C 17.16689 19.87436 -0.00114
C 18.41469 19.1068 0.00228
C 18.48705 17.71645 0.00798
C 17.20019 17.06932 0.00422
C 17.21479 15.71142 0.0351
C 18.40963 14.94055 -0.03113
C 18.34893 13.53383 0.02098
C 17.12964 12.83143 0.01848
C 17.21527 11.3921 -0.00619
C 18.40115 10.62346 -0.02162
C 18.43533 9.19505 0.00889
C 17.23387 8.45366 -0.00481
C 17.14837 7.03304 0.00979
C 18.39538 6.30802 0.01443
C 18.44151 4.9349 0.03505
C 17.26516 4.20292 -0.02815
C 17.26704 2.78858 -0.04147
C 18.51579 2.11988 -0.05302
C 17.18653 25.54527 0.02058
C 13.47917 9.23176 -0.01062
C 13.52486 10.66229 0.01364
C 12.18871 11.44603 -0.00719
C 4.91142 11.34224 -0.03996
C 6.10695 10.67299 0.01465
C 6.15094 9.20086 -0.00074
C 4.85856 8.5618 -0.00518
C 4.90199 7.18876 0.0086
C 6.15585 6.49711 -0.00643
C 6.12432 5.01832 0.017
C 4.91394 4.30195 -0.03113
C 4.88776 2.78982 -0.02566
C 4.91315 12.76605 0.01996
C 6.16494 2.14144 -0.00094
C 4.93533 0.0001 -0.00725
C 7.50504 32.69651 -0.05697
C 8.51234 31.96296 0.01087
C 8.66992 17.63664 -0.01343
C 7.37119 17.20203 0.00988
C 7.42789 15.61543 0.0276
C 8.61752 14.90072 0.01305
C 8.6132 13.5178 -0.00077
C 7.33157 12.75949 0.03368
C 6.13562 0.74319 0.02322
C 6.22552 13.51476 -0.00279
C 6.13759 14.99632 0.01226
C 4.88606 15.70362 0.03828
C 3.60123 17.68553 0.00208
C 2.46484 17.05086 0.01707
C 2.49456 15.56526 0.02769
C 3.71299 14.8752 -0.03291
C 3.60155 13.43953 -0.04999
C 2.35607 12.83083 0.04505
C 2.37846 11.36515 0.03284
C 3.66876 10.76165 -0.04307
C 3.67043 9.34466 0.03189
C 2.44271 8.46264 0.00031
C 2.47681 7.04516 -0.003
C 3.72872 6.38525 0.01402
C 3.75353 4.97435 0.02379
C 2.4864 4.28643 0.00907
C 2.45326 2.87789 0.00643
C 3.68415 2.13805 -0.01509
C 3.67962 0.71399 0.03267
C 2.47128 34.03567 0.02374
C 4.90115 32.62956 0.00402
C 6.14053 17.80819 0.0073
C 4.93306 17.24173 0.0174
C 7.35821 11.33043 -0.02929
C 8.54493 10.64511 -0.00966
C 8.64633 9.27209 -0.03337
C 7.42011 8.55013 0.01227
C 9.7467 2.78648 -0.00482
C 11.00914 2.13951 -0.01384
C 10.96062 0.68076 0.03693
C 9.73825 34.07877 0.01745
C 12.25768 32.7749 0.00488
C 13.50908 32.03565 -0.01004
C 13.4672 30.52501 -0.02896
C 12.38594 29.71663 -0.00131
C 13.58518 27.71959 -0.01118
C 13.53274 26.44879 -0.014
C 13.61808 23.42211 0.02147
C 13.46865 22.11352 0.00373
C 12.41565 21.28523 -0.00191
C 12.14032 19.98947 0.00438
C 13.54604 19.21723 0.01291
C 13.55466 17.78124 0.00093
C 12.32583 17.10914 0.00057
C 12.27634 15.63282 -0.01634
C 13.51351 14.97085 -0.00334
C 13.49813 13.56473 0.02339
C 12.29059 12.85563 0.01641
C 9.73377 4.22306 0.02888
C 20.8411 9.27274 0.00667
C 10.99314 4.97357 0.00685
C 9.81772 7.14799 0.00393
C 7.3857 7.13338 0.00873
C 8.63082 6.46879 -0.00049
C 8.58571 5.0264 0.00848
C 7.32087 4.34715 -0.01303
C 7.30662 2.90701 -0.01378
C 8.49462 2.11643 0.02635
C 8.48983 0.6436 0.0127
C 7.27863 34.05888 0.01396
C 9.76275 32.46339 0.01849
C 11.09354 32.01413 -0.01142
C 11.06603 19.20386 -0.00562
C 11.11179 17.83462 -0.00494
C 9.85814 17.09309 0.00054
C 9.85602 15.64314 0.03007
C 11.05798 14.96146 -0.00095
C 11.0194 13.54563 0.01572
C 9.80851 12.82769 -0.04848
C 9.77613 11.44886 -0.00892
C 11.00051 10.71058 -0.01362
C 11.04386 9.30966 -0.0008
C 9.8422 8.52767 0.0288
C 11.04279 6.4377 0.00895
C 3.73875 32.18783 -0.00561
C 19.67357 8.51471 0.00143
C 20.83495 6.32484 0.00364
C 30.79701 9.18746 0.07705
C 29.54244 8.57404 0.0103
C 29.50068 7.08591 0.02108
C 30.71121 6.38189 0.00716
C 30.73772 4.95336 0.00307
C 29.51358 4.25035 0.00346
C 29.49316 2.79005 0.01713
C 30.6321 2.07172 -0.01694
C 30.72868 0.68374 0.01428
C 30.74423 10.61532 0.01908
C 29.46196 0.04677 -0.02142
C 33.18141 31.97628 0.00026
C 33.19056 30.59699 0.00682
C 32.0184 29.81692 -0.01779
C 31.97375 28.39367 0.03794
C 33.25068 27.78939 0.01927
C 33.27475 26.3516 0.01574
C 32.04123 25.48306 -0.02383
C 32.01641 24.04609 -0.01429
C 33.28437 23.39492 -0.0136
C 31.90529 32.62476 0.0544
C 29.51223 11.32449 0.01518
C 29.4926 12.73251 -0.00971
C 30.68451 13.4313 -0.03735
C 28.24066 2.14153 0.04266
C 28.20663 0.67477 0.01324
C 26.97705 0.00587 0.0014
C 29.5186 32.73526 0.00924
C 30.68273 31.95811 0.02326
C 30.792 30.52306 0.00261
C 29.56461 29.8381 0.03265
C 29.55911 28.41153 -0.02049
C 30.77184 27.60298 -0.01854
C 30.86804 26.16903 -0.01415
C 29.59382 25.47168 -0.03039
C 29.5297 24.10178 0.01836
C 30.79981 23.35995 0.03531
C 30.71849 21.96726 -0.00669
C 29.43426 21.30935 0.0101
C 29.47099 19.91443 0.01705
C 30.72418 19.24392 -0.0405
C 30.76369 17.87043 -0.01303
C 29.51897 17.07114 -0.01461
C 29.49174 15.6598 -0.02155
C 30.70821 14.94304 -0.00944
C 33.26796 22.02845 0.00594
C 27.07187 2.86138 0.01177
C 32.00477 21.28423 -0.02474
C 33.22841 19.15848 0.00455
C 34.38531 21.32059 -0.02213
C 0.13344 19.96274 0.01951
C 1.25698 19.13308 -0.01678
C 1.16812 17.76268 0.01223
C 34.34714 17.00875 0.00648
C 0.04836 15.5686 0.02114
C 1.27747 14.89011 -0.02957
C 1.14378 13.48934 0.00343
C 34.35438 12.79429 -0.02656
C 34.36465 24.25929 0.02712
C 34.40406 11.3506 -0.02442
C 1.23919 9.24937 -0.00583
C 34.38365 8.58622 -0.02302
C 34.37887 7.16419 -0.02849
C 1.18262 6.39677 0.02931
C 1.18017 4.96197 0.00628
C 34.38667 4.2736 -0.0345
C 34.34417 2.79857 -0.00931
C 1.16735 2.12419 -0.00939
C 1.2607 0.74489 -0.00468
C 1.18046 10.60998 -0.00027
C 34.32919 25.46174 0.00723
C 34.35996 28.52802 0.03076
C 0.0863 29.83488 -0.05239
C 33.12014 17.70838 -0.00644
C 31.93003 17.06617 -0.01839
C 31.95723 15.65281 0.00137
C 33.20723 14.9138 0.00199
C 33.12866 13.50201 0.04381
C 31.95965 12.7625 0.02806
C 31.96805 11.35635 0.01504
C 33.16288 10.70571 -0.00069
C 33.15184 9.27357 0.04926
C 31.97483 8.5126 -0.03838
C 31.92175 7.033 0.00349
C 33.21024 6.41339 -0.00323
C 33.18445 4.9889 -0.00841
C 31.93566 4.22241 0.0001
C 31.94165 2.83141 -0.02927
C 33.11727 2.07559 -0.01404
C 33.1968 0.70666 0.01027
C 32.00461 0.0028 0.01831
C 0.01174 32.67493 -0.01037
C 1.26415 31.9772 -0.00439
C 1.26456 30.57205 -0.00598
C 32.02559 19.91483 0.00369
C 27.06675 4.28682 -0.00416
C 28.26962 4.96648 0.01699
C 28.3257 6.3429 0.01799
C 22.1045 12.77565 -0.01185
C 22.1078 11.37318 0.01126
C 23.39049 10.66154 0.01852
C 23.2947 9.20066 -0.00381
C 22.0782 8.52716 0.03046
C 22.07861 7.07608 0.0296
C 23.31388 6.38448 0.03374
C 23.39049 4.93103 -0.02845
C 22.09614 4.29 -0.03213
C 23.36343 13.41841 -0.01662
C 22.12461 2.8153 0.02239
C 23.3685 0.73477 0.02734
C 22.0872 34.03368 -0.0055
C 24.71677 32.62766 0.01515
C 25.89805 31.88331 -0.00225
C 25.91335 30.44681 0.00071
C 24.65239 29.80965 -0.01107
C 24.62539 28.37603 -0.01586
C 25.84335 27.6819 -0.01971
C 25.89202 26.26419 -0.02118
C 23.27338 2.13228 0.01153
C 23.50768 14.85942 -0.00478
C 22.2343 15.53471 0.01511
C 22.13749 16.96993 0.00199
C 20.90106 4.96005 -0.00831
C 19.69244 4.24022 -0.02957
C 19.74668 2.85545 -0.04422
C 20.86003 2.07373 0.00654
C 20.90796 0.72062 -0.00703
C 19.64664 34.04096 -0.04076
C 22.17238 32.60529 -0.00652
C 23.4544 31.95918 0.0058
C 23.45496 30.5464 -0.00865
C 22.19007 29.77934 0.00675
C 22.13317 28.38777 -0.00311
C 23.39593 27.67847 0.00742
C 23.33733 26.31453 -0.01594
C 22.10401 25.63321 0.0106
C 22.11968 24.17991 -0.01154
C 23.36246 23.48991 -0.01721
C 23.32008 22.03634 -0.02422
C 22.12289 21.33339 0.01277
C 22.09053 19.90161 0.00096
C 23.32569 19.10072 -0.01527
C 23.29082 17.7433 0.01087
C 24.60211 25.52607 0.00733
C 24.64038 24.18385 -0.00178
C 25.8473 23.38508 0.00768
C 25.65605 21.93251 -0.0276
C 27.08329 28.36467 -0.01654
C 28.36028 27.74329 -0.00037
C 28.33219 26.25732 -0.0032
C 27.13558 25.56773 0.00622
C 27.09161 24.17457 -0.02815
C 28.28428 23.4238 -0.00942
C 28.1729 22.01016 0.00487
C 26.89391 21.28979 0.00826
C 26.99706 19.88815 -0.00294
C 28.218 19.16346 0.00152
C 28.19967 17.72417 0.01257
C 26.99903 17.07078 0.02316
C 27.01482 15.62901 0.04185
C 28.25397 14.93066 0.00194
C 28.21373 13.50414 -0.00621
C 26.96296 12.76866 0.02611
C 27.05136 11.3646 0.02198
C 28.24919 10.63841 0.01094
C 28.26243 9.17852 0.00235
C 27.05887 8.47547 0.01495
C 27.05866 6.98096 0.01259
C 27.17911 29.81213 -0.00218
C 19.61468 7.0625 -0.017
C 28.3589 30.56191 -0.00802
C 27.05199 32.63939 0.00996
C 24.42927 21.25922 0.03005
C 24.53392 19.87686 -0.04078
C 25.76274 19.1776 0.02117
C 25.74979 17.78427 0.02737
C 24.53646 17.03282 -0.00498
C 24.66898 15.5896 0.00135
C 25.83884 14.90215 0.03102
C 25.76658 13.51189 0.02555
C 24.57569 12.75516 0.01423
C 24.62779 11.3087 -0.00285
C 25.83571 10.61491 -0.009
C 25.77637 9.19313 -0.01199
C 24.54639 8.44798 -0.00229
C 24.52104 7.02434 -0.00938
C 25.83287 6.35307 -0.0264
C 25.7912 4.95316 -0.01154
C 24.60571 4.28785 0.00684
C 24.60765 2.86928 -0.01052
C 25.79521 2.18489 -0.01679
C 25.78736 0.72711 0.00367
C 24.52471 34.04644 0.04306
C 28.3078 32.02226 0.00195
C 2.52123 32.62462 -0.01977
