358
Graphene
C 0.00897 0.03543 0.01295
C 11.08078 9.22063 -0.01957
C 9.8316 8.50074 -0.0108
C 9.86908 7.12138 -0.00368
C 11.05556 6.40647 -0.02696
C 10.98189 4.94474 -0.00114
C 9.71406 4.30653 0.00228
C 9.74191 2.86001 0.00798
C 10.9675 2.18395 0.00422
C 11.08011 10.69103 0.02058
C 10.99608 0.73342 0.0351
C 12.16133 32.69033 0.02098
C 13.42043 31.91354 0.01848
C 13.53138 30.518 -0.00619
C 12.2695 29.80098 -0.02162
C 12.37275 28.3003 0.00889
C 13.63014 27.63832 -0.00481
C 13.57737 26.16013 0.00979
C 12.18159 25.62315 0.01443
C 9.70833 0.02217 -0.03113
C 12.17996 24.21444 0.03505
C 9.84708 11.38461 0.01965
C 11.10339 13.53665 0.00052
C 9.6973 32.62787 0.01363
C 10.99437 31.91658 -0.02162
C 10.96954 30.47845 0.00415
C 9.72603 29.63986 -0.0014
C 9.79776 28.27795 0.02162
C 11.10673 27.6488 0.0076
C 10.95319 26.28412 0.01241
C 9.51463 25.92794 -0.01454
C 9.93349 12.80343 -0.03682
C 9.13943 24.55696 0.01945
C 10.87067 22.24674 0.03542
C 9.761 21.44932 0.02299
C 9.86153 19.97285 0.00244
C 11.12383 19.15115 -0.01717
C 11.11469 17.72574 0.05265
C 9.81998 17.069 -0.01952
C 9.912 15.65319 -0.02813
C 11.1329 14.91793 0.00374
C 10.77427 23.71781 0.01416
C 13.3989 23.43136 -0.02815
C 13.29036 22.03303 -0.04147
C 12.03934 21.35165 -0.05302
C 14.78871 29.7243 -0.0054
C 14.84714 28.33883 0.00667
C 16.127 27.49729 0.00143
C 16.26233 26.06805 -0.017
C 14.9964 25.30743 0.00364
C 14.79234 23.72785 -0.00831
C 15.61912 22.27276 -0.02957
C 14.55133 21.36222 -0.04422
C 15.91826 30.43463 0.00755
C 14.54564 19.99055 0.00654
C 16.08897 17.95531 -0.04076
C 14.89955 17.10133 -0.00652
C 14.92265 15.69555 0.0058
C 15.94947 14.77831 -0.00865
C 15.97074 13.56518 0.00675
C 14.8332 12.82167 -0.00311
C 14.88533 11.41324 0.00742
C 16.12371 10.62052 -0.01594
C 15.80981 19.36062 -0.00703
C 15.83983 31.881 0.01739
C 14.67176 32.66454 0.03754
C 12.18577 0.00997 -0.03557
C 12.2769 19.88671 0.00213
C 13.48043 19.19006 -0.00066
C 13.5922 17.78828 -0.00289
C 12.37718 17.08123 0.00028
C 12.31455 15.66588 -0.02213
C 13.58646 15.01899 0.03698
C 13.62047 13.50379 -0.00109
C 12.35929 12.77528 -0.00491
C 12.2803 11.33051 0.03338
C 13.62275 10.60457 -0.0258
C 13.53432 9.20889 -0.0331
C 12.34707 8.52342 -0.00316
C 12.29561 7.13682 0.02188
C 13.47115 6.4694 -0.01979
C 13.45871 5.12891 0.02691
C 12.28084 4.24096 -0.01581
C 12.26115 2.79594 0.01452
C 13.44884 2.15172 0.04892
C 13.44912 0.76323 -0.00111
C 7.34037 34.03064 0.01877
C 8.53521 0.70438 -0.00925
C 8.52319 2.13044 0.00444
C 7.2499 2.9292 -0.01789
C 3.70938 6.4658 -0.01142
C 3.60118 5.0367 -0.00562
C 2.39759 4.35092 -0.00494
C 2.42831 2.92064 0.00054
C 3.60255 2.13375 0.03007
C 3.64414 0.68182 -0.00095
C 2.39366 0.06471 0.01572
C 4.90802 32.65666 -0.04848
C 2.36868 7.16359 0.01849
C 6.2019 31.78118 -0.00892
C 4.90085 29.65755 -0.0008
C 4.84576 28.27306 0.0288
C 5.92813 27.25329 0.00393
C 5.23129 25.992 0.00895
C 5.46367 24.5498 0.00685
C 6.62027 23.53501 0.02888
C 6.21521 22.14289 -0.00482
C 4.96336 21.44815 -0.01384
C 6.13028 30.26262 -0.01362
C 2.36038 8.47934 0.01396
C 3.65323 9.19865 0.0127
C 3.66102 10.59841 0.02635
C 3.6797 30.53389 0.02322
C 2.46505 29.84285 -0.00725
C 2.42537 28.45255 -0.05697
C 3.60424 27.78074 0.01087
C 3.75037 26.37391 -0.01343
C 2.61178 25.65113 0.00988
C 2.52142 24.21315 0.0276
C 3.93159 23.66214 0.01305
C 3.8274 22.23302 -0.00077
C 2.55114 21.36603 0.03368
C 2.52146 19.97365 -0.02929
C 3.72631 19.25774 -0.00966
C 3.67569 17.79604 -0.03337
C 2.41241 17.0743 0.01227
C 2.47364 15.69835 0.00873
C 3.68806 14.94474 -0.00049
C 3.72619 13.53095 0.00848
C 2.51651 12.73586 -0.01303
C 2.46601 11.35977 -0.01378
C 4.98203 19.93868 0.03693
C 16.12539 9.20067 0.0106
C 6.16023 19.16339 0.01745
C 4.94032 17.0407 -0.01004
C 8.43405 22.10135 0.03592
C 7.35935 21.26813 0.00406
C 7.3742 19.82674 0.00943
C 8.66795 19.22919 0.02841
C 8.65303 17.78585 -0.01111
C 7.39935 17.07766 -0.01275
C 7.4365 15.65766 0.00985
C 8.69886 14.95423 -0.02245
C 8.10746 23.59669 0.00572
C 8.69931 13.43949 -0.00428
C 7.34005 11.38114 -0.01536
C 8.55909 10.62431 -0.02689
C 8.53677 9.25643 -0.01046
C 7.34638 8.58419 -0.00891
C 7.2846 7.14395 0.02819
C 8.55571 6.45363 0.00165
C 8.53361 5.06456 -0.02971
C 7.23491 4.35875 0.02894
C 7.44599 12.7528 0.03101
C 8.77537 27.27038 0.0402
C 7.38801 27.70408 -0.02759
C 7.38187 29.50865 0.03589
C 4.94868 15.64444 -0.02896
C 6.19467 14.97555 -0.00131
C 6.18518 13.46739 -0.01118
C 4.93172 12.84802 -0.014
C 4.81132 11.38751 0.02147
C 6.1492 10.68205 0.00373
C 6.14095 9.32264 -0.00191
C 4.93283 8.53805 0.00438
C 4.85394 7.14322 0.01291
C 6.08399 6.42795 0.00093
C 5.99421 5.00312 0.00057
C 4.87824 4.28598 -0.01634
C 4.86705 2.8798 -0.00334
C 6.03837 2.20651 0.02339
C 6.05773 0.75993 0.01641
C 4.84745 34.07422 -0.00719
C 7.34462 32.57909 0.01364
C 8.53532 31.83969 -0.01062
C 8.51482 30.33798 -0.00033
C 6.16 17.7169 0.00488
C 14.79167 8.46402 -0.01154
C 14.84494 7.06079 -0.01721
C 16.0547 6.30746 -0.02422
C 29.4549 2.85208 0.01713
C 30.71315 2.2067 -0.01694
C 30.71672 0.76604 0.01428
C 29.47147 0.05645 -0.02142
C 31.92354 32.69313 0.0544
C 33.19207 31.97482 0.00026
C 33.18185 30.5292 0.00682
C 31.9766 29.80679 -0.01779
C 29.47091 4.2537 0.00346
C 31.92226 28.38876 0.03794
C 33.18145 26.19928 0.01574
C 31.99613 25.4995 -0.02383
C 31.93553 24.10598 -0.01429
C 33.21703 23.43122 -0.0136
C 33.25245 22.00847 0.00594
C 31.98102 21.28488 -0.02474
C 31.68266 19.86915 0.00369
C 32.94413 19.19006 0.00455
C 33.17035 27.64366 0.01927
C 30.69448 4.97001 0.00307
C 30.53797 6.32541 0.00716
C 30.22796 19.83704 0.02108
C 27.00974 21.26917 -0.01854
C 28.31387 5.09776 -0.01415
C 27.05172 4.45404 -0.03039
C 26.94315 2.93572 0.01836
C 28.18838 2.18812 0.03531
C 28.23483 0.82087 -0.00669
C 27.02439 0.12834 0.0101
C 29.43366 32.75659 0.01705
C 30.68074 32.0422 -0.0405
C 30.71558 30.61173 -0.01303
C 29.50555 29.87014 -0.01461
C 29.45157 28.40706 -0.02155
C 30.63259 27.66128 -0.00944
C 30.69158 26.29014 -0.03735
C 29.43647 25.50416 -0.00971
C 29.43507 24.01828 0.01518
C 30.66373 23.36318 0.01908
C 30.7292 22.03973 0.07705
C 29.62478 20.9836 0.0103
C 33.13152 17.79579 -0.00644
C 28.26085 21.52753 -0.02049
C 33.33442 14.87279 -0.01839
C 33.17681 10.68681 0.00199
C 1.26183 19.28986 -0.01678
C 1.21469 17.81381 0.01223
C 34.35158 17.1533 0.00648
C 34.37769 15.70491 0.02114
C 1.24676 14.94417 -0.02957
C 1.19734 13.59405 0.00343
C 34.40112 12.88986 -0.02656
C 34.39198 11.41289 -0.02442
C 34.32636 19.89238 0.01951
C 1.24782 10.73327 -0.00027
C 34.3118 8.64416 -0.02302
C 34.28831 7.22259 -0.02849
C 1.09026 6.48669 0.02931
C 1.14829 5.09411 0.00628
C 34.38696 4.36808 -0.0345
C 34.2997 2.94202 -0.00931
C 1.16754 2.27699 -0.00939
C 1.27736 0.85468 -0.00468
C 1.2001 9.33438 -0.00583
C 0.0123 21.29935 -0.02213
C 1.25901 21.97474 0.02712
C 1.3117 23.43839 0.00723
C 32.95679 9.33435 0.04381
C 31.9177 8.4377 0.02806
C 31.73452 7.10676 0.01504
C 33.10695 6.47386 -0.00069
C 33.22824 5.05977 0.04926
C 32.00506 4.27613 -0.03838
C 31.93926 2.91216 0.00349
C 33.18803 2.16682 -0.00323
C 33.22263 0.72926 -0.00841
C 31.91689 0.09228 0.0001
C 0.0142 32.70947 -0.02927
C 1.17553 32.00028 -0.01404
C 1.18898 30.58245 0.01027
C 34.40791 29.84387 0.01831
C 34.36174 28.51595 -0.01037
C 1.14529 27.72012 -0.00439
C 1.24117 26.32752 -0.00598
C 34.42305 25.5345 -0.05239
C 0.02014 24.05875 0.03076
C 33.21594 13.58945 0.00137
C 3.66844 31.96821 -0.00094
C 28.29816 23.15359 0.03265
C 27.05186 25.48493 0.02326
C 18.30152 1.97057 0.00071
C 18.36299 0.60773 -0.01107
C 17.11663 34.00562 -0.01586
C 19.63273 32.59966 -0.01971
C 20.83791 31.85085 -0.02118
C 20.88903 30.43875 0.00733
C 19.64602 29.77297 -0.00178
C 19.60062 28.27038 0.00768
C 17.11043 2.74922 -0.00225
C 20.89526 27.52854 -0.0276
C 19.59911 25.39956 -0.04078
C 20.80837 23.4424 0.02117
C 20.78102 22.04558 0.02737
C 20.02438 20.64859 -0.00498
C 19.30544 19.67962 0.00135
C 20.62053 5.00229 0.03102
C 19.48601 4.13941 0.02555
C 19.49673 2.75503 0.01423
C 20.89886 26.15932 0.03005
C 17.11077 4.14909 0.01515
C 18.28972 4.86156 -0.0055
C 18.52346 6.22296 0.02734
C 15.93871 4.88618 0.01277
C 14.65055 4.30486 0.00096
C 14.63889 2.91644 -0.01527
C 15.86824 2.10729 0.01087
C 15.93214 0.70992 0.00199
C 14.65549 0.03298 0.01511
C 17.01898 32.62365 -0.00478
C 18.34954 31.84008 -0.01662
C 18.3954 30.42867 -0.01185
C 17.20597 29.67526 0.01126
C 17.22221 28.29973 0.01852
C 18.4596 27.48842 -0.00381
C 18.32378 26.10711 0.03046
C 16.83592 21.55493 0.0296
C 16.95813 20.24506 0.03374
C 18.2937 18.9288 -0.02845
C 17.53082 17.96651 -0.03213
C 17.24057 8.45132 0.02239
C 17.39169 7.02156 0.01153
C 20.74034 2.12351 -0.00285
C 27.02011 24.02217 0.00261
C 20.84236 0.67547 -0.009
C 22.00741 32.7248 -0.00229
C 25.83047 26.27286 0.02316
C 24.63844 25.56522 0.04185
C 24.54929 24.2029 0.00194
C 25.71506 23.45406 -0.00621
C 25.85052 22.12684 0.02611
C 25.77527 4.99409 0.02198
C 24.47651 4.43435 0.01094
C 24.42858 2.92654 0.00235
C 25.7961 27.72111 0.01257
C 25.72785 2.25819 0.01495
C 24.53939 0.05513 0.01799
C 26.95602 32.81786 0.01699
C 28.18023 32.02285 -0.00416
C 28.24612 30.59531 0.01177
C 27.0544 29.86499 0.04266
C 26.97199 28.49196 0.01324
C 28.2511 27.65829 0.0014
C 28.24613 26.19286 0.00924
C 25.82425 0.77269 0.01259
C 24.58447 28.39259 0.00152
C 24.5382 29.806 -0.00294
C 25.74398 30.50824 0.00826
C 23.26136 31.9398 -0.00938
C 23.28867 30.49493 -0.0264
C 22.21918 29.7291 -0.01154
C 22.13444 28.39773 0.00684
C 23.35314 27.72898 -0.01052
C 23.34623 26.30307 -0.01679
C 22.1232 25.54916 0.00367
C 22.12108 24.13059 0.04306
C 23.31839 23.42924 0.00996
C 23.44162 22.06881 0.00195
C 22.19748 21.61888 -0.00802
C 23.1908 4.97464 -0.00218
C 21.90457 4.39188 -0.01654
C 21.92168 2.91114 -0.00037
C 23.28372 2.21134 -0.0032
C 23.3541 0.79742 0.00622
C 22.16494 0.00618 -0.02815
C 24.47812 32.6833 -0.00942
C 25.72717 32.02061 0.00487
C 19.66149 34.05382 -0.01199
C 2.37254 32.65642 -0.02566
