401
Graphene
C 0.01392 0.01449 0.01295
C 14.79123 17.04276 0.00165
C 14.73575 15.67135 -0.02971
C 15.98058 14.92204 0.02894
C 15.98796 13.49997 -0.01789
C 14.77363 12.79775 0.00444
C 14.76083 11.37401 -0.00925
C 15.96108 10.63216 0.01877
C 15.98581 9.22084 0.01363
C 14.74641 8.44357 -0.02162
C 14.72614 7.09473 0.00415
C 16.02727 6.41398 -0.0014
C 16.01261 4.96293 0.02162
C 14.77828 4.22942 0.0076
C 14.77523 2.82346 0.01241
C 15.98116 2.14272 -0.01454
C 15.9811 0.70579 0.01945
C 14.74436 34.07883 0.01416
C 17.17556 32.64204 0.03542
C 18.5222 31.91363 0.02299
C 18.43201 30.50937 0.00244
C 17.21333 29.84159 -0.01717
C 16.00976 17.71711 0.02819
C 17.21977 28.40816 0.05265
C 15.98636 19.1913 -0.00891
C 14.75972 21.31638 -0.02689
C 13.55128 9.25812 0.02339
C 12.32019 8.54969 0.01641
C 12.33784 7.11712 -0.00719
C 13.51193 6.41724 0.01364
C 13.5546 5.00855 -0.01062
C 12.30314 4.27752 -0.00033
C 12.29032 2.87996 0.03589
C 13.51087 2.12174 -0.02759
C 13.52193 0.75505 0.0402
C 12.29654 34.04252 0.00572
C 14.73671 32.68152 0.03592
C 15.98786 31.97594 0.00406
C 16.01499 30.51058 0.00943
C 14.73279 29.81242 0.02841
C 14.73931 28.41001 -0.01111
C 16.00135 27.71196 -0.01275
C 15.96256 26.26769 0.00985
C 14.76062 25.5629 -0.02245
C 14.78279 24.15881 -0.00428
C 15.98154 23.44574 0.03101
C 15.98541 21.99876 -0.01536
C 14.76458 19.95014 -0.01046
C 13.5427 10.67652 -0.00334
C 18.42125 27.63399 -0.01952
C 17.22432 25.5283 0.00374
C 20.90597 32.00207 -0.05302
C 20.89682 30.50445 0.00213
C 19.64818 29.81593 -0.00066
C 19.66827 28.4141 -0.00289
C 20.96144 27.68032 0.00028
C 20.95421 26.29919 -0.02213
C 19.67463 25.55223 0.03698
C 19.68257 24.09502 -0.00109
C 20.90568 23.39845 -0.00491
C 20.90258 21.97906 0.03338
C 19.66227 21.30261 -0.0258
C 19.65666 19.85421 -0.0331
C 20.88499 19.17408 -0.00316
C 20.91587 17.73552 0.02188
C 19.696 17.05286 -0.01979
C 19.66261 15.64992 0.02691
C 20.89204 14.91815 -0.01581
C 20.87618 13.51403 0.01452
C 19.6734 12.7784 0.04892
C 19.69187 11.3765 -0.00111
C 20.90861 10.61142 -0.03557
C 19.7033 32.68224 -0.04147
C 18.43869 26.26753 -0.02813
C 17.2095 0.0099 -0.02815
C 18.48308 2.16052 0.01443
C 17.19585 24.1338 0.00052
C 18.47671 23.42376 -0.03682
C 18.4413 22.00037 0.01965
C 17.21738 21.2695 0.02058
C 17.2269 19.89516 -0.01957
C 18.43052 19.17503 -0.0108
C 18.44334 17.75751 -0.00368
C 17.20195 17.01888 -0.02696
C 17.21581 15.60535 -0.00114
C 18.41821 14.93007 0.00228
C 18.44231 13.49249 0.00798
C 17.20122 12.80013 0.00422
C 17.2128 11.33109 0.0351
C 18.43069 10.59485 -0.03113
C 18.42395 9.20819 0.02098
C 17.22818 8.48702 0.01848
C 17.20504 7.0994 -0.00619
C 18.45218 6.40077 -0.02162
C 18.46606 4.99068 0.00889
C 17.17924 4.30041 -0.00481
C 17.20953 2.81051 0.00979
C 18.41916 0.696 0.03505
C 12.28996 11.38545 -0.01634
C 12.30947 12.79732 0.00057
C 13.55578 13.46277 0.00093
C 4.93116 17.06908 0.02374
C 4.94421 15.6313 0.00402
C 6.14234 14.91331 0.0073
C 6.13929 13.49804 0.0174
C 4.89881 12.79628 0.03828
C 4.94385 11.31819 0.01226
C 6.10795 10.70136 -0.00279
C 6.17325 9.24593 0.01996
C 4.92392 8.52561 -0.03996
C 4.89892 7.13313 0.01465
C 6.1547 6.40303 -0.00074
C 6.16455 4.96228 -0.00518
C 4.94207 4.26204 0.0086
C 4.89219 2.85181 -0.00643
C 6.16053 2.12904 0.017
C 6.1934 0.71532 -0.03113
C 4.91703 34.07757 -0.02566
C 7.40772 32.6509 -0.00094
C 8.59458 31.92322 0.02322
C 8.60069 17.70137 -0.00725
C 7.35857 17.10611 -0.05697
C 6.15819 17.72928 0.03267
C 7.39585 15.62837 0.01087
C 6.11545 31.97065 -0.01509
C 2.49526 0.02254 0.00907
C 3.63017 30.51555 -0.00039
C 2.46726 29.80504 0.0064
C 2.43297 19.82938 0.00211
C 3.68688 19.19281 -0.00449
C 3.68546 17.74442 -0.01979
C 2.42924 17.04837 0.02784
C 2.44697 15.63853 -0.01977
C 3.68807 14.85815 -0.00561
C 3.72302 13.50079 0.00208
C 2.48366 12.81597 0.01707
C 2.47666 11.42079 0.02769
C 3.72292 10.62409 -0.03291
C 3.68624 9.19568 -0.04999
C 2.46893 8.49592 0.04505
C 2.46677 7.07683 0.03284
C 3.67732 6.35325 -0.04307
C 3.67219 4.95795 0.03189
C 2.46417 4.28806 0.00031
C 2.43378 2.8674 -0.003
C 3.6935 2.137 0.01402
C 3.715 0.72677 0.02379
C 4.93161 32.68969 0.00643
C 8.59178 14.84672 -0.01343
C 8.58825 13.48542 0.00988
C 7.32813 12.8156 0.0276
C 9.7968 7.10166 -0.0008
C 11.0827 6.38893 0.0288
C 11.07193 5.00677 0.00393
C 9.83626 4.28533 0.00895
C 9.85226 2.82997 0.00685
C 11.0638 2.12443 0.02888
C 11.06006 0.72417 -0.00482
C 9.8346 34.06372 -0.01384
C 12.30202 32.65055 0.03693
C 13.52039 31.92995 0.01745
C 13.52385 30.55684 0.00488
C 12.24505 29.83569 -0.01004
C 13.49827 27.73607 -0.02896
C 13.55752 26.30942 -0.00131
C 13.55596 22.00593 -0.01118
C 12.26777 19.88983 -0.014
C 13.53705 19.20157 0.02147
C 13.51106 17.80295 0.00373
C 12.29323 17.08824 -0.00191
C 12.34196 15.62441 0.00438
C 13.47344 14.92137 0.01291
C 9.81748 8.5426 -0.01362
C 11.08864 9.21264 -0.00892
C 11.04191 10.63278 -0.04848
C 9.79521 11.39213 0.01572
C 7.35671 11.40254 0.01305
C 8.60517 10.67626 -0.00077
C 8.58116 9.24762 0.03368
C 7.38481 8.52094 -0.02929
C 7.38329 7.09578 -0.00966
C 8.601 6.3779 -0.03337
C 8.58608 4.99981 0.01227
C 7.40145 4.29963 0.00873
C 7.41287 2.86224 -0.00049
C 8.61006 2.1001 0.00848
C 20.92504 9.24459 0.03754
C 8.61254 0.70952 -0.01303
C 9.85863 32.64832 0.02635
C 11.06276 31.98346 0.0127
C 11.03467 30.51478 0.01396
C 11.06448 19.20388 0.01849
C 11.08322 17.73524 -0.01142
C 9.82984 17.04703 -0.00562
C 9.81533 15.58009 -0.00494
C 11.08973 14.92565 0.00054
C 11.06867 13.45328 0.03007
C 9.83979 12.76293 -0.00095
C 7.38037 0.05221 -0.01378
C 3.7192 31.95161 0.02728
C 19.70025 8.52936 0.01739
C 20.91496 6.37333 -0.0054
C 29.5193 7.09899 0.01518
C 30.74549 6.41062 0.01908
C 30.72261 5.0089 0.07705
C 29.51302 4.24473 0.0103
C 29.52968 2.83487 0.02108
C 30.77304 2.09589 0.00716
C 30.74589 0.70552 0.00307
C 29.51338 34.07057 0.00346
C 31.95647 32.65456 0.01713
C 33.20253 31.94529 -0.01694
C 33.208 30.51759 0.01428
C 31.97396 29.81949 -0.02142
C 32.02359 28.41818 0.0544
C 33.21209 27.66672 0.00026
C 33.20598 26.25258 0.00682
C 31.97584 25.55505 -0.01779
C 31.97781 24.17354 0.03794
C 33.22693 23.39077 0.01927
C 33.19152 22.00241 0.01574
C 32.03035 21.28479 -0.02383
C 31.95628 19.86367 -0.01429
C 29.4842 8.53075 -0.00971
C 33.19151 19.16315 -0.0136
C 30.72444 9.2836 -0.03735
C 29.52619 11.3669 -0.02155
C 27.06568 34.03958 -0.00416
C 29.49944 32.65111 0.01177
C 30.76879 31.94616 0.04266
C 30.76816 30.5227 0.01324
C 29.51465 29.7724 0.0014
C 29.52154 28.3861 0.00924
C 30.79088 27.65211 0.02326
C 30.70049 26.25454 0.00261
C 29.51369 25.52515 0.03265
C 29.51092 24.08847 -0.02049
C 30.74459 23.44971 -0.01854
C 30.75037 22.06816 -0.01415
C 29.5442 21.31941 -0.03039
C 29.5415 19.88495 0.01836
C 30.7156 19.17044 0.03531
C 30.75926 17.73091 -0.00669
C 29.49721 17.03138 0.0101
C 29.54101 15.63078 0.01705
C 30.7995 14.91817 -0.0405
C 30.73216 13.47097 -0.01303
C 29.50025 12.80729 -0.01461
C 30.757 10.63138 -0.00944
C 28.29264 0.73011 0.01699
C 33.15914 17.71947 0.00594
C 31.98134 15.58061 0.00369
C 1.19798 22.03671 0.02712
C 0.02687 21.29633 -0.02213
C 34.39549 19.86763 0.01951
C 1.22062 19.1953 -0.01678
C 1.21513 17.71804 0.01223
C 34.4209 17.00818 0.00648
C 34.41493 15.58191 0.02114
C 1.22512 14.93656 -0.02957
C 1.23717 13.52447 0.00343
C 0.0057 12.74612 -0.02656
C 34.41423 11.36591 -0.02442
C 1.19672 10.66985 -0.00027
C 1.20675 9.22903 -0.00583
C 34.42406 8.53351 -0.02302
C 0.01376 7.07773 -0.02849
C 1.21559 6.35897 0.02931
C 1.19988 4.97165 0.00628
C 0.00604 4.23929 -0.0345
C 0.00398 2.85957 -0.00931
C 1.2448 2.15204 -0.00939
C 1.24266 0.70556 -0.00468
C 1.22708 23.45743 0.00723
C 31.98637 17.05239 -0.02474
C 34.43196 24.1508 0.03076
C 1.23202 26.26819 -0.00598
C 33.20899 14.88141 0.00455
C 33.22218 13.48167 -0.00644
C 31.94707 12.82489 -0.01839
C 31.96715 11.30635 0.00137
C 33.18355 10.6263 0.00199
C 33.15006 9.23455 0.04381
C 31.98375 8.51899 0.02806
C 31.97444 7.12272 0.01504
C 33.16465 6.36633 -0.00069
C 33.18687 4.96947 0.04926
C 31.98619 4.26445 -0.03838
C 31.97468 2.84704 0.00349
C 33.18143 2.12729 -0.00323
C 33.21456 0.66571 -0.00841
C 31.98473 34.07957 0.0001
C 0.01102 32.66344 -0.02927
C 1.22058 31.95912 -0.01404
C 1.24481 30.49095 0.01027
C 34.41028 29.80238 0.01831
C 34.42447 28.41977 -0.01037
C 1.23199 27.64359 -0.00439
C 0.0233 25.57448 -0.05239
C 28.28448 2.13871 0.01799
C 27.02111 2.8529 0.01259
C 27.00822 4.24098 0.01495
C 22.14512 12.73013 0.00199
C 22.09919 11.35462 0.01511
C 23.38986 10.64324 -0.00478
C 23.36383 9.22767 -0.01662
C 22.07836 8.51706 -0.01185
C 22.13641 7.04608 0.01126
C 23.35911 6.35923 0.01852
C 23.37195 4.94304 -0.00381
C 22.15639 4.22291 0.03046
C 22.17227 2.81781 0.0296
C 23.37413 2.10513 0.03374
C 23.35957 0.70102 -0.02845
C 22.14457 34.03298 -0.03213
C 24.58103 32.70109 0.02239
C 25.84065 31.96005 0.01153
C 25.80871 30.47725 0.02734
C 24.62224 29.79082 -0.0055
C 24.57703 28.39076 0.01515
C 25.80703 27.69154 -0.00225
C 25.80952 26.30871 0.00071
C 24.5917 25.5318 -0.01107
C 23.40121 13.46862 0.01087
C 24.58703 24.12557 -0.01586
C 23.3514 14.92728 -0.01527
C 22.15984 17.01815 0.01277
C 20.92692 4.98473 0.00667
C 19.70496 4.26583 0.00143
C 19.68416 2.85284 -0.017
C 20.93566 2.13162 0.00364
C 20.91908 0.72197 -0.00831
C 19.69329 0.02454 -0.02957
C 22.11901 32.70538 -0.04422
C 23.35031 31.97945 0.00654
C 23.35086 30.51158 -0.00703
C 22.13896 29.82798 -0.04076
C 22.17162 28.40736 -0.00652
C 23.39119 27.69354 0.0058
C 23.35028 26.29379 -0.00865
C 22.15426 25.54265 0.00675
C 22.13892 24.16835 -0.00311
C 23.39435 23.4263 0.00742
C 23.41221 21.95476 -0.01594
C 22.11417 21.26223 0.0106
C 22.14149 19.91093 -0.01154
C 23.34109 19.15613 -0.01721
C 23.40579 17.77004 -0.02422
C 22.08829 15.60789 0.00096
C 25.82603 23.44025 -0.01971
C 25.81305 21.99259 -0.02118
C 24.53176 21.31222 0.00733
C 28.25645 26.28957 -0.00802
C 27.04084 25.58709 -0.00218
C 27.03402 24.1468 -0.01654
C 28.29854 23.39402 -0.00037
C 28.26581 22.00207 -0.0032
C 27.03979 21.29724 0.00622
C 27.03773 19.86374 -0.02815
C 28.27075 19.14566 -0.00942
C 28.25472 17.74842 0.00487
C 27.03537 17.03914 0.00826
C 27.03908 15.62824 -0.00294
C 28.27678 14.90148 0.00152
C 28.30206 13.45761 0.01257
C 27.05047 12.75716 0.02316
C 27.05964 11.33301 0.04185
C 28.29205 10.64767 0.00194
C 28.32624 9.28161 -0.00621
C 27.07228 8.53915 0.02611
C 27.03129 7.06797 0.02198
C 28.30166 6.3658 0.01094
C 28.29119 4.98688 0.00235
C 28.26478 27.70265 0.00195
C 27.04209 28.39132 0.00996
C 27.10319 29.85439 0.04306
C 28.28953 30.55212 0.00367
C 24.58292 19.85072 -0.00178
C 25.78287 19.14236 0.00768
C 25.82091 17.79725 -0.0276
C 24.59295 17.05651 0.03005
C 24.54527 15.59228 -0.04078
C 25.79048 14.91228 0.02117
C 25.84418 13.49148 0.02737
C 24.61925 12.80652 -0.00498
C 24.6047 11.38103 0.00135
C 25.84072 10.62349 0.03102
C 19.65476 7.12085 0.00755
C 25.82911 9.21939 0.02555
C 24.58265 7.07944 -0.00285
C 25.83198 6.37418 -0.009
C 25.84677 4.95256 -0.01199
C 24.5721 4.31099 -0.00229
C 24.63246 2.84812 -0.00938
C 25.803 2.11895 -0.0264
C 25.89838 0.72826 -0.01154
C 24.56538 0.03128 0.00684
C 27.05418 32.62699 -0.01052
C 28.32428 31.95352 -0.01679
C 24.59547 8.51834 0.01423
C 2.46738 32.62104 0.00245
