348
Graphene
C 0.01579 0.01963 0.01295
C 11.13977 0.64467 0.00422
C 9.77179 0.09591 0.0351
C 12.32735 32.68142 -0.03113
C 13.54808 31.92076 0.02098
C 13.57091 30.51464 0.01848
C 12.32232 29.89189 -0.00619
C 12.10552 12.77262 -0.02162
C 12.25539 11.33901 0.00889
C 13.4746 10.537 -0.00481
C 13.54391 9.18983 0.00979
C 12.33963 8.49486 0.01443
C 12.35213 7.04836 0.03505
C 13.59063 6.36885 -0.02815
C 13.58076 4.9383 -0.04147
C 12.28046 4.33903 -0.05302
C 12.29356 2.8136 0.00213
C 13.5234 2.06296 -0.00066
C 11.02718 2.07649 0.00798
C 9.86853 2.76715 0.00228
C 9.78307 4.21628 -0.00114
C 11.00691 4.99968 -0.02696
C 7.34431 2.81095 -0.01454
C 8.59005 2.18545 0.01945
C 8.51082 0.79478 0.01416
C 7.38676 0.05747 0.03542
C 9.85302 32.69528 0.02299
C 11.10827 31.97665 0.00244
C 11.11175 30.52172 -0.01717
C 9.83041 29.82099 0.05265
C 13.55634 0.66453 -0.00289
C 9.85509 28.45027 -0.01952
C 11.13408 13.56206 0.00374
C 9.81529 12.85536 0.00052
C 9.84326 11.42541 -0.03682
C 11.07681 10.58609 0.01965
C 11.10617 9.21253 0.02058
C 9.88791 8.53552 -0.01957
C 9.92352 7.09371 -0.0108
C 11.05315 6.32365 -0.00368
C 9.80209 15.6733 -0.02813
C 12.31171 34.03017 0.00028
C 14.68722 32.61714 -0.02213
C 16.04162 31.90387 0.03698
C 18.53563 6.40734 -0.00831
C 18.44568 5.01121 -0.02957
C 17.24446 4.33067 -0.04422
C 17.16569 2.93004 0.00654
C 18.41482 2.17501 -0.00703
C 18.43992 0.64715 -0.04076
C 17.22215 34.03003 -0.00652
C 19.67371 32.69866 0.0058
C 17.26116 7.05637 0.00364
C 20.84617 31.95503 -0.00865
C 19.53221 29.96202 -0.00311
C 19.74342 11.28643 0.00742
C 20.95934 10.70422 -0.01594
C 20.93611 9.17028 0.0106
C 19.70197 8.52558 -0.01154
C 19.72509 7.10543 -0.01721
C 20.93273 6.31243 -0.02422
C 20.81998 4.94572 0.01277
C 20.89921 30.4155 0.00675
C 7.39503 4.20052 0.01241
C 17.24187 8.50644 -0.017
C 18.43574 10.76587 0.00667
C 15.82676 30.48515 -0.00109
C 14.81564 29.87734 -0.00491
C 14.61586 11.39461 0.03338
C 15.93764 10.75824 -0.0258
C 15.9648 9.24292 -0.0331
C 14.79666 8.47033 -0.00316
C 14.79039 7.09753 0.02188
C 16.01125 6.44355 -0.01979
C 18.45247 9.27455 0.00143
C 16.04293 4.99912 0.02691
C 14.75659 2.82216 0.01452
C 15.9891 2.10128 0.04892
C 15.96251 0.6437 -0.00111
C 14.76147 34.06509 -0.03557
C 17.26575 32.68054 0.03754
C 18.40788 31.93752 0.01739
C 18.47697 30.49672 0.00755
C 17.14915 11.35575 -0.0054
C 14.78895 4.24599 -0.01581
C 19.59818 4.27178 0.00096
C 8.58897 4.99033 0.0076
C 7.41053 7.06879 -0.0014
C 2.43201 7.08413 -0.01362
C 3.67096 6.32197 -0.0008
C 3.64667 4.96651 0.0288
C 2.46333 4.20425 0.00393
C 2.42205 2.81364 0.00895
C 3.70819 2.1214 0.00685
C 3.75174 0.75374 0.02888
C 2.47006 0.07134 -0.00482
C 4.94638 32.62337 -0.01384
C 6.12141 31.94892 0.03693
C 6.12314 30.56069 0.01745
C 4.92033 29.85122 0.00488
C 4.91363 28.35769 -0.01004
C 6.12358 27.73092 -0.02896
C 6.08758 26.32027 -0.00131
C 4.88576 25.59179 -0.01118
C 4.94717 24.16362 -0.014
C 2.42577 8.56783 -0.00892
C 3.69701 9.20412 -0.04848
C 3.72774 10.67458 0.01572
C 2.45548 11.36987 -0.00095
C 3.65822 30.57221 -0.02929
C 2.39547 29.88151 -0.00966
C 2.45718 28.43401 -0.03337
C 3.65902 27.6708 0.01227
C 3.64107 26.23968 0.00873
C 2.41577 25.59098 -0.00049
C 2.5093 24.08705 0.00848
C 3.74003 23.45146 -0.01303
C 6.14977 23.42875 0.02147
C 3.76589 22.01861 -0.01378
C 2.46325 19.88107 0.0127
C 3.63696 19.19831 0.01396
C 3.6689 17.82349 0.01849
C 2.46471 17.0358 -0.01142
C 2.49496 15.58881 -0.00562
C 3.67883 14.92992 -0.00494
C 3.73149 13.4597 0.00054
C 2.42631 12.75773 0.03007
C 2.53297 21.31409 0.02635
C 6.09777 21.97969 0.00373
C 4.90679 21.3542 -0.00191
C 4.8381 19.96291 0.00438
C 7.35444 29.84126 -0.02245
C 7.40985 28.4616 -0.00428
C 8.64908 27.5755 0.03101
C 8.64132 26.2764 -0.01536
C 7.4389 25.61864 -0.02689
C 7.33044 24.18894 -0.01046
C 7.35107 21.18069 -0.00891
C 7.3312 19.88426 0.02819
C 8.58245 30.51212 0.00985
C 8.6362 17.76124 0.00165
C 7.37383 15.61283 0.02894
C 8.64431 14.96151 -0.01789
C 8.59305 13.56073 0.00444
C 7.35591 12.79345 -0.00925
C 7.45731 11.34681 0.01877
C 8.69354 10.66062 0.01363
C 8.62447 9.27221 -0.02162
C 7.32842 8.42777 0.00415
C 7.40429 17.05094 -0.02971
C 8.60434 6.40068 0.02162
C 8.56805 31.88576 -0.01275
C 4.94013 34.03948 0.02841
C 6.13225 19.20337 0.01291
C 6.10558 17.78374 0.00093
C 4.95576 17.02741 0.00057
C 4.89051 15.63333 -0.01634
C 6.13363 14.9575 -0.00334
C 6.16802 13.53144 0.02339
C 4.94484 12.7766 0.01641
C 4.91484 11.37811 -0.00719
C 7.41423 32.71515 -0.01111
C 6.17538 10.66588 0.01364
C 4.87325 8.56326 -0.00033
C 4.95629 7.09893 0.03589
C 6.17501 6.45093 -0.02759
C 6.16007 5.00675 0.0402
C 4.94946 4.36234 0.00572
C 4.86981 2.94898 0.03592
C 6.08883 2.17775 0.00406
C 6.14638 0.75371 0.00943
C 6.04736 9.22336 -0.01062
C 19.66945 2.83581 -0.01527
C 20.89857 2.11753 0.01087
C 20.90805 0.70299 0.00199
C 33.1584 30.55178 0.01428
C 31.97049 29.85629 -0.02142
C 31.98004 28.42449 0.0544
C 33.15892 27.69729 0.00026
C 33.13581 26.31583 0.00682
C 31.96158 25.53387 -0.01779
C 31.99736 24.12952 0.03794
C 33.14793 23.48735 0.01927
C 33.19644 22.07287 0.01574
C 32.00558 21.36607 -0.02383
C 31.98823 19.84883 -0.01429
C 33.19204 19.18893 -0.0136
C 33.15388 17.75028 0.00594
C 31.96564 17.0331 -0.02474
C 31.94587 15.66629 0.00369
C 33.11472 14.89213 0.00455
C 33.11017 13.48079 -0.00644
C 33.15124 31.90485 -0.01694
C 31.99691 32.71978 0.01713
C 29.442 0.0029 0.00346
C 30.74559 0.76148 0.00307
C 29.52148 19.86129 0.01836
C 30.75287 19.1576 0.03531
C 30.73568 17.77858 -0.00669
C 29.56752 17.04169 0.0101
C 29.57378 15.67696 0.01705
C 30.72727 14.9073 -0.0405
C 30.69745 13.51855 -0.01303
C 29.48505 12.77598 -0.01461
C 31.90517 12.81414 -0.01839
C 29.55333 11.36858 -0.02155
C 30.76942 9.16882 -0.03735
C 29.57397 8.50008 -0.00971
C 29.50945 7.11649 0.01518
C 30.72469 6.41959 0.01908
C 30.76304 4.99354 0.07705
C 29.49792 4.25081 0.0103
C 29.51132 2.79451 0.02108
C 30.7265 2.18736 0.00716
C 30.78352 10.685 -0.00944
C 31.9982 11.29405 0.00137
C 33.23238 10.61485 0.00199
C 33.25739 9.23318 0.04381
C 1.20821 19.20881 -0.01678
C 1.2301 17.69883 0.01223
C 34.35823 17.04251 0.00648
C 0.01947 15.55543 0.02114
C 1.19366 14.85892 -0.02957
C 1.17871 13.46712 0.00343
C 34.37752 12.77851 -0.02656
C 34.38926 11.3604 -0.02442
C 34.42744 19.92024 0.01951
C 1.22517 10.59436 -0.00027
C 0.03568 8.51829 -0.02302
C 0.00395 7.12918 -0.02849
C 1.27193 6.34725 0.02931
C 1.2354 4.87383 0.00628
C 0.00199 4.24036 -0.0345
C 0.02953 2.78869 -0.00931
C 1.20189 2.10275 -0.00939
C 1.22675 0.70322 -0.00468
C 1.22401 9.2553 -0.00583
C 29.48828 21.31884 -0.03039
C 0.02613 21.38716 -0.02213
C 1.20742 23.43941 0.00723
C 32.00631 8.6001 0.02806
C 31.94911 7.14968 0.01504
C 33.19068 6.41254 -0.00069
C 33.22759 4.9772 0.04926
C 32.0232 4.32461 -0.03838
C 32.01625 2.83441 0.00349
C 33.18066 2.09431 -0.00323
C 33.22205 0.74151 -0.00841
C 1.26193 22.03423 0.02712
C 31.99207 0.07305 0.0001
C 1.18955 31.86424 -0.01404
C 1.15724 30.51197 0.01027
C 34.41262 29.81967 0.01831
C 0.04781 28.38962 -0.01037
C 1.173 27.67249 -0.00439
C 1.15018 26.25131 -0.00598
C 34.38121 25.52554 -0.05239
C 34.38873 24.15819 0.03076
C 34.42008 32.58904 -0.02927
C 30.77257 22.10093 -0.01415
C 30.76471 23.49302 -0.01854
C 29.5425 24.17423 -0.02049
C 24.59377 29.79513 -0.02118
C 24.51307 28.39639 0.00733
C 25.6722 27.68862 -0.00178
C 25.85348 26.28073 0.00768
C 25.90745 23.24294 -0.0276
C 25.87096 22.10822 0.03005
C 25.77145 19.1306 -0.04078
C 25.82863 17.89417 0.02117
C 25.80867 30.57659 -0.01971
C 24.60807 15.64385 0.02737
C 25.8105 13.45827 0.00135
C 24.57364 12.84384 0.03102
C 24.61947 11.36583 0.02555
C 25.83741 10.62406 0.01423
C 25.79334 9.19604 -0.00285
C 24.5777 8.49874 -0.009
C 24.55558 7.1224 -0.01199
C 25.79596 6.51304 -0.00229
C 25.79346 14.87627 -0.00498
C 24.58898 4.26127 -0.00938
C 25.77828 31.96944 -0.01586
C 22.12351 34.06466 0.00071
C 19.73073 0.00166 0.01511
C 22.04063 32.60031 -0.00478
C 23.30723 31.94602 -0.01662
C 23.36495 30.51968 -0.01185
C 22.14036 29.75452 0.01126
C 23.258 13.45732 0.01852
C 22.27777 12.73862 -0.00381
C 22.1675 11.3472 0.03046
C 24.60735 32.6917 -0.01107
C 23.34568 10.59783 0.0296
C 22.14902 8.42201 -0.02845
C 22.11207 7.04165 -0.03213
C 23.31101 6.35823 0.02239
C 23.40081 4.96879 0.01153
C 22.18485 4.24879 0.02734
C 22.10473 2.86679 -0.0055
C 23.27163 2.13098 0.01515
C 23.28836 0.70504 -0.00225
C 23.36085 9.13821 0.03374
C 3.6733 31.94802 0.03368
C 24.65344 2.86676 -0.0264
C 25.85737 0.7134 0.00684
C 28.22341 10.62751 -0.00621
C 28.21881 9.16843 0.02611
C 27.05754 8.4831 0.02198
C 27.03859 7.03256 0.01094
C 28.31788 6.27632 0.00235
C 28.3411 4.87224 0.01495
C 27.14991 2.83765 0.01259
C 28.2611 2.14469 0.01799
C 27.05261 11.302 0.00194
C 28.22328 0.6723 0.01699
C 29.51201 32.66209 0.01177
C 30.78757 31.90173 0.04266
C 30.8177 30.46735 0.01324
C 29.4943 29.76691 0.0014
C 29.51859 28.37432 0.00924
C 30.76555 27.68963 0.02326
C 30.75965 26.22988 0.00261
C 29.54065 25.56755 0.03265
C 27.00892 34.06065 -0.00416
C 25.86847 2.19154 -0.01154
C 27.07127 12.76016 0.04185
C 28.35485 14.94362 0.01257
C 24.61665 0.05502 -0.01052
C 27.04149 32.67793 -0.01679
C 28.32762 31.8765 0.00367
C 28.27837 30.50315 0.04306
C 27.07181 29.87392 0.00996
C 27.00577 28.48739 0.00195
C 28.22987 27.70442 -0.00802
C 28.2883 26.2889 -0.00218
C 28.26042 13.53688 0.02316
C 27.01941 25.55547 -0.01654
C 28.29787 23.4362 -0.0032
C 28.27208 22.08286 0.00622
C 27.02227 21.27397 -0.02815
C 27.05743 19.9072 -0.00942
C 28.32614 19.15075 0.00487
C 28.32325 17.71307 0.00826
C 26.93968 16.99591 -0.00294
C 27.12648 15.66165 0.00152
C 27.02083 24.13541 -0.00037
C 2.59273 32.73883 -0.00077
