368
Graphene
C 34.36083 0.01466 0.01295
C 15.91103 9.3928 -0.01952
C 14.7011 8.58517 -0.02813
C 14.72172 7.16113 0.00374
C 15.93528 6.38679 0.00052
C 15.86425 5.00911 -0.03682
C 14.67793 4.31602 0.01965
C 14.68928 2.88263 0.02058
C 15.99417 2.19026 -0.01957
C 15.98224 0.72421 -0.0108
C 14.77832 0.01968 -0.00368
C 17.17568 32.69165 -0.02696
C 18.46214 31.93564 -0.00114
C 18.42245 30.38827 0.00228
C 17.16733 29.78742 0.00798
C 17.13493 28.39814 0.00422
C 18.41913 27.67692 0.0351
C 18.45924 26.24379 -0.03113
C 17.17202 25.59654 0.02098
C 17.17611 24.17385 0.01848
C 15.91609 10.73113 0.05265
C 18.37504 23.37802 -0.00619
C 16.08426 13.53832 -0.01717
C 16.03819 17.70154 0.02299
C 12.25243 4.27137 0.02819
C 12.28289 2.86499 0.00165
C 13.50616 2.10068 -0.02971
C 13.57413 0.75377 0.02894
C 12.29923 0.04658 -0.01789
C 14.70616 32.68371 0.00444
C 15.91449 31.91189 -0.00925
C 15.92946 30.45948 0.01877
C 14.71622 29.79172 0.01363
C 14.73564 28.31972 -0.02162
C 15.9753 27.65796 0.00415
C 15.94789 26.19378 -0.0014
C 14.69865 25.54821 0.02162
C 14.67729 24.18708 0.0076
C 16.00502 23.41087 0.01241
C 16.00212 21.98728 -0.01454
C 14.80852 21.26246 0.01945
C 14.68743 19.83633 0.01416
C 15.90176 19.108 0.03542
C 16.15799 14.83017 0.00244
C 13.50434 5.0925 -0.00891
C 18.45592 21.88626 -0.02162
C 17.17332 19.78733 -0.00481
C 19.6792 28.33334 0.04892
C 20.88543 27.56288 -0.00111
C 20.89431 26.16549 -0.03557
C 19.64912 25.46873 0.03754
C 19.62823 24.11063 0.01739
C 20.93201 23.35551 0.00755
C 21.02215 21.93006 -0.0054
C 19.788 21.21491 0.00667
C 19.69999 19.82595 0.00143
C 20.95725 19.15302 -0.017
C 20.94058 17.66396 0.00364
C 19.68561 17.01929 -0.00831
C 19.61097 15.57913 -0.02957
C 20.86827 14.87997 -0.04422
C 20.83669 13.47258 0.00654
C 19.62977 12.8348 -0.00703
C 19.585 11.34508 -0.04076
C 20.74174 10.59203 -0.00652
C 20.78833 9.24337 0.0058
C 19.62587 29.70961 0.01452
C 17.19116 21.13609 0.00889
C 20.88136 30.42398 -0.01581
C 19.67492 32.63937 -0.01979
C 18.42106 19.17381 0.00979
C 18.51061 17.73146 0.01443
C 17.29274 17.04489 0.03505
C 17.30147 15.59397 -0.02815
C 18.42153 14.84262 -0.04147
C 18.39719 13.44796 -0.05302
C 17.18912 12.75367 0.00213
C 17.19487 11.32933 -0.00066
C 18.42187 10.613 -0.00289
C 18.33547 9.22476 0.00028
C 17.11184 8.63005 -0.02213
C 17.11871 7.11002 0.03698
C 18.37583 6.43474 -0.00109
C 18.34292 4.92266 -0.00491
C 17.10802 4.28474 0.03338
C 17.20874 2.89574 -0.0258
C 18.46315 2.14379 -0.0331
C 18.45246 0.68443 -0.00316
C 17.1629 0.02779 0.02188
C 20.9428 31.80831 0.02691
C 19.61737 8.51947 -0.00865
C 13.53039 6.45725 -0.01046
C 12.42568 8.54638 -0.01536
C 4.94383 29.86447 0.01227
C 4.8851 28.45367 0.00873
C 6.11219 27.75212 -0.00049
C 6.13634 26.27677 0.00848
C 4.84057 25.64871 -0.01303
C 4.80646 24.20115 -0.01378
C 5.91381 23.41732 0.02635
C 4.76344 7.25543 0.0127
C 6.06255 6.59477 0.01396
C 6.13789 5.20178 0.01849
C 4.92881 4.38837 -0.01142
C 4.96805 2.97164 -0.00562
C 6.16384 2.33377 -0.00494
C 6.13114 0.83288 0.00054
C 4.95936 0.1134 0.03007
C 7.41389 32.86271 -0.00095
C 8.64221 32.03176 0.01572
C 8.67 30.60307 -0.04848
C 7.38116 29.91282 -0.00892
C 6.16329 30.56376 -0.03337
C 7.31908 28.46853 -0.01362
C 6.21195 32.01583 -0.00966
C 2.43736 0.07686 0.03368
C 3.69338 30.60629 -0.03996
C 2.40655 29.87541 0.01465
C 2.35791 28.46094 -0.00074
C 3.58993 27.78438 -0.00518
C 3.56715 26.35 0.0086
C 2.44498 25.60985 -0.00643
C 2.39629 24.07713 0.017
C 3.63683 23.42156 -0.03113
C 3.84974 22.01711 -0.02566
C 2.64759 21.23525 -0.00094
C 2.33593 19.72013 0.02322
C 2.5379 8.52131 -0.00725
C 2.36826 7.079 -0.05697
C 3.63722 6.41303 0.01087
C 3.61888 4.94667 -0.01343
C 2.31192 4.24625 0.00988
C 2.37206 2.83679 0.0276
C 3.6528 2.2508 0.01305
C 3.72918 0.80588 -0.00077
C 4.93457 32.7416 -0.02929
C 12.27735 7.17396 -0.02689
C 8.49568 27.69776 -0.0008
C 7.27003 25.49644 0.00393
C 11.08897 4.9749 0.01641
C 9.82091 4.43176 -0.00719
C 9.82411 3.00668 0.01364
C 11.00104 2.20259 -0.01062
C 11.04966 0.84642 -0.00033
C 9.83845 0.09711 0.03589
C 12.27986 32.67058 -0.02759
C 13.50114 31.95645 0.0402
C 13.5301 30.54928 0.00572
C 12.20176 29.84826 0.03592
C 12.23941 28.50214 0.00406
C 13.44587 27.75019 0.00943
C 13.4455 26.25881 0.02841
C 12.27451 25.55746 -0.01111
C 12.2122 24.15538 -0.01275
C 13.38747 23.46385 0.00985
C 13.52674 21.99077 -0.02245
C 12.3083 21.42726 -0.00428
C 13.4247 9.17679 0.03101
C 11.05165 6.42343 0.02339
C 8.47582 26.31389 0.0288
C 9.96524 7.28219 -0.00334
C 11.02244 23.52973 0.00057
C 7.26152 24.03424 0.00895
C 8.56765 23.39298 0.00685
C 7.3601 7.19861 0.02888
C 8.61224 6.64628 -0.00482
C 8.54622 5.14382 -0.01384
C 7.3515 4.409 0.03693
C 7.38084 3.01377 0.01745
C 8.63364 2.25564 0.00488
C 8.68916 0.84297 -0.01004
C 7.41569 0.16461 -0.02896
C 9.81709 32.74201 -0.00131
C 11.02174 32.06827 -0.01118
C 11.05935 30.59606 -0.014
C 9.86361 29.86483 0.02147
C 9.78769 28.44021 0.00373
C 11.07216 27.68296 -0.00191
C 11.01176 26.29333 0.00438
C 9.76475 25.6494 0.01291
C 9.68801 24.14732 0.00093
C 11.09436 22.09556 -0.01634
C 19.59251 7.08023 0.00675
C 20.8067 6.3026 -0.00311
C 20.84459 4.92626 0.00742
C 29.42367 4.27509 0.00307
C 29.42769 2.89605 0.00346
C 30.68183 2.18419 0.01713
C 30.69952 0.79244 -0.01694
C 29.43307 0.04937 0.01428
C 31.97293 32.72518 -0.02142
C 33.23391 32.03316 0.0544
C 33.22337 30.57603 0.00026
C 32.00761 29.89112 0.00682
C 32.02908 28.43673 -0.01779
C 33.24676 27.68596 0.03794
C 33.22863 26.27645 0.01927
C 32.0175 25.56696 0.01574
C 32.06744 24.13431 -0.02383
C 33.33218 23.36762 -0.01429
C 33.28299 21.93781 -0.0136
C 31.94996 21.24642 0.00594
C 31.83897 19.8091 -0.02474
C 33.05347 19.15547 0.00369
C 30.64354 5.00665 0.00716
C 33.12898 17.73854 0.00455
C 30.60513 6.39965 0.02108
C 29.38192 8.58375 0.07705
C 30.73397 30.58576 0.03265
C 29.48854 29.84268 -0.02049
C 29.49099 28.3904 -0.01854
C 30.76117 27.7151 -0.01415
C 30.78149 26.29914 -0.03039
C 29.6142 25.56284 0.01836
C 29.55639 24.1136 0.03531
C 30.82402 23.46771 -0.00669
C 30.82814 22.02627 0.0101
C 29.5917 21.28777 0.01705
C 29.22506 19.94219 -0.0405
C 30.55067 19.02243 -0.01303
C 30.71595 17.67888 -0.01461
C 30.83276 14.80721 -0.02155
C 30.4743 13.54568 -0.00944
C 29.09924 12.82852 -0.03735
C 29.31814 11.37521 -0.00971
C 30.65153 10.635 0.01518
C 30.69297 9.20922 0.01908
C 29.4063 7.17705 0.0103
C 30.7634 31.97516 0.00261
C 31.91261 17.02984 -0.00644
C 33.21453 14.90392 0.00137
C 1.2077 23.33953 0.01951
C 1.37229 21.96126 -0.01678
C 0.13204 21.2399 0.01223
C 34.33282 19.79349 0.00648
C 1.16919 19.11551 0.02114
C 34.29919 16.96627 -0.02957
C 34.34595 15.79372 0.00343
C 34.28334 12.87698 -0.02656
C 0.00563 11.44168 -0.02442
C 1.13356 10.69212 -0.00027
C 1.26534 9.33907 -0.00583
C 0.0085 8.62542 -0.02302
C 34.40435 7.19414 -0.02849
C 1.18647 6.47211 0.02931
C 1.1636 5.00104 0.00628
C 34.35738 4.28614 -0.0345
C 34.42164 2.85536 -0.00931
C 1.1705 2.10755 -0.00939
C 1.13804 0.72748 -0.00468
C 0.02552 24.08098 -0.02213
C 31.93018 15.61206 -0.01839
C 34.42323 25.56689 0.02712
C 1.18098 27.69432 0.03076
C 33.04916 13.46325 0.00199
C 31.74616 12.84505 0.04381
C 31.90114 11.43307 0.02806
C 33.1674 10.79877 0.01504
C 33.21303 9.32586 -0.00069
C 31.98409 8.55609 0.04926
C 31.89375 7.14863 -0.03838
C 33.15619 6.46135 0.00349
C 33.17827 5.0165 -0.00323
C 31.95424 4.31346 -0.00841
C 31.93249 2.83797 0.0001
C 33.25246 2.20657 -0.02927
C 33.18636 0.72452 -0.01404
C 31.94133 0.05561 0.01027
C 0.07272 32.69233 0.01831
C 1.25844 31.93862 -0.01037
C 1.24038 30.59072 -0.00439
C 34.37844 29.88683 -0.00598
C 34.37743 28.4546 -0.05239
C 1.23461 26.30754 0.00723
C 29.44742 32.71915 0.02326
C 26.99137 34.05726 0.00924
C 28.20966 0.71188 0.0014
C 23.28353 13.47519 0.01153
C 22.06969 12.70433 0.02734
C 21.97686 11.27165 -0.0055
C 23.23928 10.63356 0.01515
C 23.31765 9.24642 -0.00225
C 22.01857 8.48921 0.00071
C 21.97861 7.07096 -0.01107
C 23.26307 6.34921 -0.01586
C 23.25647 4.8734 -0.01971
C 22.0606 4.24778 -0.02118
C 22.03397 2.8299 0.00733
C 23.22368 2.10611 -0.00178
C 23.31058 0.62466 0.00768
C 22.10812 33.98152 -0.0276
C 24.59458 32.61377 0.03005
C 25.77127 31.88218 -0.04078
C 25.81222 30.43128 0.02117
C 24.61626 29.71186 0.02737
C 24.52329 28.31168 -0.00498
C 23.34195 14.92043 0.02239
C 25.77118 27.59449 0.00135
C 22.13715 15.61588 -0.03213
C 23.51229 17.71208 0.03374
C 19.54347 4.20847 -0.01594
C 19.5728 2.82633 0.0106
C 20.81923 2.12269 -0.01154
C 20.82379 0.73237 -0.01721
C 19.64392 0.00279 -0.02422
C 22.22049 32.57147 0.01277
C 23.36132 31.86725 0.00096
C 23.37837 30.37239 -0.01527
C 22.17251 29.72276 0.01087
C 22.12623 28.29777 0.00199
C 23.34995 27.61486 0.01511
C 23.34157 26.20448 -0.00478
C 22.11317 25.50114 -0.01662
C 22.18321 24.08061 -0.01185
C 23.51809 23.37404 0.01126
C 23.54765 21.9272 0.01852
C 22.27232 21.26698 -0.00381
C 22.20255 19.79731 0.03046
C 23.47664 19.06452 0.0296
C 22.17086 17.04081 -0.02845
C 25.83986 26.20703 0.03102
C 24.62954 25.52318 0.02555
C 24.73353 24.04535 0.01423
C 28.28701 27.68549 -0.00294
C 28.386 26.31044 0.00152
C 27.14402 25.52747 0.01257
C 27.10617 24.0986 0.02316
C 28.3034 23.38863 0.04185
C 28.39272 22.04209 0.00194
C 27.1997 21.4326 -0.00621
C 27.48233 19.90561 0.02611
C 26.846 12.76942 0.02198
C 26.93579 11.33941 0.01094
C 28.08276 10.5959 0.00235
C 28.09281 9.26391 0.01495
C 26.94373 8.47385 0.01259
C 26.90723 7.12241 0.01799
C 28.18213 6.43186 0.01699
C 28.17973 5.00257 -0.00416
C 26.96836 4.25778 0.01177
C 26.94063 2.79003 0.04266
C 28.2268 2.16047 0.01324
C 27.04692 28.39426 0.00826
C 27.06149 29.80262 0.00487
C 28.24921 30.47857 -0.00942
C 28.19005 31.97844 -0.02815
C 25.9053 23.3308 -0.00285
C 25.99218 21.94925 -0.009
C 24.70856 21.17654 -0.01199
C 24.796 19.75829 -0.00229
C 26.30864 19.20677 -0.00938
C 25.80715 13.45831 -0.0264
C 24.47483 12.75435 -0.01154
C 24.46564 11.33745 0.00684
C 25.6589 10.63129 -0.01052
C 3.6743 32.02168 0.01996
C 25.69137 9.20773 -0.01679
C 24.4717 7.12088 0.04306
C 25.71263 6.37976 0.00996
C 25.71352 4.94796 0.00195
C 24.49266 4.24849 -0.00802
C 24.49086 2.80847 -0.00218
C 25.72459 2.07874 -0.01654
C 25.80089 0.70894 -0.00037
C 24.61209 34.00448 -0.0032
C 26.94698 32.61066 0.00622
C 24.55579 8.55504 0.00367
C 2.43816 32.71388 -0.00279
