409
Graphene
C 34.41827 34.06035 0.01295
C 14.75199 24.17255 -0.01536
C 16.03116 23.43207 -0.02689
C 15.96862 22.0504 -0.01046
C 14.76512 21.35575 -0.00891
C 14.83824 19.88783 0.02819
C 16.023 19.1391 0.00165
C 15.85485 17.69145 -0.02971
C 14.71862 16.78379 0.02894
C 14.69321 15.61365 -0.01789
C 15.89359 14.88512 0.00444
C 15.99467 13.46009 -0.00925
C 14.93012 12.71521 0.01877
C 14.79299 11.38267 0.01363
C 16.0235 10.7015 -0.02162
C 15.99084 9.18633 0.00415
C 14.72456 8.51977 -0.0014
C 14.73839 7.06539 0.02162
C 16.0289 6.3087 0.0076
C 15.97455 4.8974 0.01241
C 14.78812 4.24177 -0.01454
C 14.72256 2.76549 0.01945
C 14.74637 25.56898 0.03101
C 15.90268 26.34286 -0.00428
C 15.93692 27.79042 -0.02245
C 14.64215 28.55797 0.00985
C 12.31141 24.05772 0.00438
C 13.5963 23.39229 0.01291
C 13.53171 21.98997 0.00093
C 12.28838 21.27563 0.00057
C 12.47029 19.87864 -0.01634
C 13.61709 19.34125 -0.00334
C 12.31815 11.48794 0.02339
C 13.52012 10.79459 0.01641
C 13.49512 9.29266 -0.00719
C 12.29756 8.61681 0.01364
C 15.94745 2.09848 0.01416
C 12.28456 7.08877 -0.01062
C 13.48787 4.98493 0.03589
C 12.31521 4.32957 -0.02759
C 12.25524 2.79309 0.0402
C 13.4844 2.10183 0.00572
C 13.57831 0.65236 0.03592
C 12.24911 0.03228 0.00406
C 14.80387 32.67377 0.00943
C 16.12404 32.00957 0.02841
C 16.02477 30.61694 -0.01111
C 14.7615 29.90946 -0.01275
C 13.51993 6.3448 -0.00033
C 12.32558 25.50711 -0.00191
C 16.04394 0.74022 0.03542
C 17.29806 32.72544 0.00244
C 17.26301 4.22658 0.01443
C 17.23243 2.81371 0.03505
C 18.49423 2.18499 -0.02815
C 18.53758 0.7638 -0.04147
C 17.28349 0.04104 -0.05302
C 19.70038 32.57038 0.00213
C 20.97486 31.95191 -0.00066
C 20.95471 30.52165 -0.00289
C 19.64292 29.77244 0.00028
C 19.64231 28.32613 -0.02213
C 20.86493 27.63487 0.03698
C 20.8116 26.27934 -0.00109
C 19.59812 25.58172 -0.00491
C 19.58879 24.10985 0.03338
C 20.79102 23.41707 -0.0258
C 20.81924 22.00644 -0.0331
C 19.61163 21.30584 -0.00316
C 19.62191 19.8883 0.02188
C 20.86566 19.16747 -0.01979
C 20.90203 17.70247 0.02691
C 19.65795 17.04599 -0.01581
C 18.46757 5.00206 0.00979
C 18.48267 6.41425 -0.00481
C 17.16654 7.11217 0.00889
C 17.17701 8.53597 -0.02162
C 18.43617 31.9012 -0.01717
C 18.45953 30.47562 0.05265
C 17.2251 29.84161 -0.01952
C 17.14339 28.42307 -0.02813
C 18.38771 27.68161 0.00374
C 18.40104 26.26197 0.00052
C 17.10313 25.61876 -0.03682
C 17.12174 24.23792 0.01965
C 18.36257 23.50981 0.02058
C 18.34113 22.07353 -0.01957
C 14.7368 0.00389 0.02299
C 17.17986 21.3547 -0.0108
C 18.42855 19.17989 -0.02696
C 18.42227 17.70204 -0.00114
C 17.0939 16.95881 0.00228
C 17.16771 15.57139 0.00798
C 18.47605 14.89759 0.00422
C 18.48131 13.51206 0.0351
C 17.31526 12.7971 -0.03113
C 17.24047 11.43442 0.02098
C 18.46317 10.68696 0.01848
C 18.40589 9.26401 -0.00619
C 17.23836 19.8683 -0.00368
C 13.51705 26.2284 0.00373
C 13.50323 27.7165 0.02147
C 12.2814 28.45376 -0.014
C 4.82296 32.61563 -0.003
C 6.10804 32.04703 0.01402
C 6.07422 30.6045 0.02379
C 4.85574 29.85399 0.00907
C 4.90278 28.38632 0.00643
C 6.1494 27.72111 -0.01509
C 6.15845 26.37182 0.03267
C 6.05798 23.48554 0.02374
C 6.07071 22.09881 0.00402
C 4.96947 21.34874 0.0073
C 4.82141 20.02841 0.0174
C 4.84018 12.68546 0.03828
C 5.05569 11.435 0.01226
C 6.33723 10.55737 -0.00279
C 6.18131 9.24357 0.01996
C 4.89789 8.5416 -0.03996
C 4.90463 7.13156 0.01465
C 6.17112 6.44753 -0.00074
C 6.12439 4.9534 -0.00518
C 4.89305 4.19161 0.0086
C 4.91816 2.78151 -0.00643
C 2.43667 34.002 0.00031
C 3.66763 0.65395 0.03189
C 3.75525 2.0937 -0.04307
C 2.44338 2.76925 0.03284
C 3.68123 30.50123 -0.02375
C 2.3504 29.80145 0.00558
C 2.42202 28.28322 -0.0059
C 3.65957 27.81824 -0.01386
C 3.71597 21.91514 -0.02805
C 2.46076 21.42238 0.00081
C 2.44864 19.86919 0.00245
C 3.75327 19.12687 0.02728
C 3.58839 17.77116 -0.00039
C 2.463 17.0638 0.0064
C 6.12945 2.03011 0.017
C 2.34827 15.63673 0.00211
C 3.76423 13.62083 -0.01979
C 2.47682 12.84427 0.02784
C 2.48099 11.40049 -0.01977
C 3.70108 10.6863 -0.00561
C 3.75564 9.27897 0.00208
C 2.47598 8.53136 0.01707
C 2.47343 7.06649 0.02769
C 3.6933 6.32678 -0.03291
C 3.67416 4.90982 -0.04999
C 2.41914 4.19312 0.04505
C 3.53088 14.9508 -0.00449
C 6.13729 0.65238 -0.03113
C 4.87108 33.99893 -0.02566
C 7.38827 32.70597 -0.00094
C 11.10105 27.62714 0.00054
C 11.07743 26.26341 0.03007
C 9.84685 25.57953 -0.00095
C 9.87048 24.15063 0.01572
C 11.08085 23.458 -0.04848
C 11.03698 22.03275 -0.00892
C 9.82908 21.3974 -0.01362
C 11.30982 10.65622 -0.0008
C 11.03676 9.39199 0.0288
C 9.769 8.68579 0.00393
C 9.84829 28.42106 -0.00494
C 9.76714 7.21399 0.00895
C 11.10314 5.10088 0.02888
C 9.83855 4.42035 -0.00482
C 9.82752 2.98575 -0.01384
C 10.97732 2.19883 0.03693
C 10.99961 0.76573 0.01745
C 9.84334 0.00484 0.00488
C 12.31231 32.65024 -0.01004
C 13.56717 31.99308 -0.02896
C 13.4273 30.61133 -0.00131
C 12.17166 29.9237 -0.01118
C 11.06453 6.49355 0.00685
C 19.64907 15.64628 0.01452
C 9.79967 29.79775 -0.00562
C 10.99173 31.96056 0.01849
C 8.54974 31.94668 0.02322
C 8.50287 30.53568 -0.00725
C 7.305 29.87179 -0.05697
C 7.39527 28.46108 0.01087
C 8.58409 27.72831 -0.01343
C 8.58782 26.35228 0.00988
C 7.34303 25.58457 0.0276
C 7.28979 24.16854 0.01305
C 8.57063 23.47603 -0.00077
C 8.5784 21.92678 0.03368
C 10.93789 30.58855 -0.01142
C 7.3028 21.53008 -0.02929
C 7.37242 8.56846 -0.03337
C 7.32568 7.08881 0.01227
C 8.56744 6.45894 0.00873
C 8.5866 5.03222 -0.00049
C 7.3695 4.31985 0.00848
C 7.28673 2.8089 -0.01303
C 8.58733 2.19933 -0.01378
C 8.58114 0.80401 0.02635
C 7.37197 0.02011 0.0127
C 9.74325 32.68168 0.01396
C 8.47026 9.23331 -0.00966
C 3.56762 31.88618 0.00828
C 20.92379 14.91489 0.04892
C 19.68288 12.80942 -0.03557
C 30.76549 10.5516 -0.00971
C 30.77146 9.15878 0.01518
C 29.50868 8.52961 0.01908
C 29.48051 7.10679 0.07705
C 30.72273 6.39243 0.0103
C 30.70301 4.94539 0.02108
C 29.4502 4.26572 0.00716
C 29.52839 2.82553 0.00307
C 30.70889 2.09541 0.00346
C 30.77238 0.72072 0.01713
C 29.50096 34.03667 -0.01694
C 31.93956 32.70866 0.01428
C 33.10632 31.93033 -0.02142
C 33.11936 30.52702 0.0544
C 31.94558 29.78747 0.00026
C 31.95022 28.40785 0.00682
C 33.17767 27.66927 -0.01779
C 33.16559 26.22482 0.03794
C 31.96677 25.57358 0.01927
C 31.9752 24.12102 0.01574
C 33.19774 23.499 -0.02383
C 29.54976 11.27763 -0.03735
C 29.55887 12.7771 -0.00944
C 30.79049 13.4868 -0.02155
C 30.78134 14.94177 -0.01461
C 26.9634 4.223 0.01799
C 27.05666 2.74697 0.01699
C 28.29203 2.09435 -0.00416
C 28.36771 0.66647 0.01177
C 27.09239 0.00056 0.04266
C 29.47623 32.61215 0.01324
C 30.75194 32.04212 0.0014
C 30.71995 30.59445 0.00924
C 29.50005 29.92959 0.02326
C 29.54727 28.42824 0.00261
C 33.11286 22.0576 -0.01429
C 30.78929 27.70848 0.03265
C 29.59763 25.56097 -0.01854
C 29.57843 24.11429 -0.01415
C 30.72163 23.39234 -0.03039
C 30.71177 22.05251 0.01836
C 29.49864 21.31728 0.03531
C 29.49019 19.91729 -0.00669
C 30.7649 19.16283 0.0101
C 30.6914 17.75693 0.01705
C 29.41704 17.00596 -0.0405
C 29.58487 15.61445 -0.01303
C 30.73504 26.33238 -0.02049
C 28.22526 4.92341 0.01259
C 31.95159 21.3256 -0.0136
C 33.22223 19.1596 -0.02474
C 1.16143 21.95934 0.02712
C 34.36725 21.39682 -0.02213
C 34.42187 19.83577 0.01951
C 1.21593 19.17891 -0.01678
C 1.18119 17.77851 0.01223
C 34.35346 17.03761 0.00648
C 34.32143 15.55931 0.02114
C 1.13046 14.88167 -0.02957
C 1.2167 13.46935 0.00343
C 34.4202 12.79014 -0.02656
C 34.38176 11.34633 -0.02442
C 1.24366 10.64738 -0.00027
C 1.27185 9.28432 -0.00583
C 0.0593 8.56493 -0.02302
C 0.01452 7.15523 -0.02849
C 1.27163 6.46491 0.02931
C 1.24316 5.00546 0.00628
C 0.04651 4.26129 -0.0345
C 0.02025 2.82416 -0.00931
C 1.22858 2.09114 -0.00939
C 1.21888 0.67835 -0.00468
C 34.42477 24.31764 0.00723
C 0.03613 25.63814 0.03076
C 1.118 27.55831 -0.05239
C 34.40491 28.27987 -0.00598
C 33.16976 17.75412 0.00369
C 31.90456 17.02467 0.00455
C 31.96115 15.61863 -0.00644
C 33.17005 14.82177 -0.01839
C 33.21472 13.38628 0.00137
C 31.94859 12.71137 0.00199
C 31.94167 11.33515 0.04381
C 33.16484 10.62128 0.02806
C 33.21078 9.24295 0.01504
C 32.03872 8.43923 -0.00069
C 32.01668 19.88578 0.00594
C 32.01712 7.04168 0.04926
C 33.2055 4.8858 0.00349
C 31.95719 4.23432 -0.00323
C 32.00772 2.83871 -0.00841
C 33.2291 2.12369 0.0001
C 33.22414 0.75131 -0.02927
C 32.03308 34.06845 -0.01404
C 34.36072 32.68437 0.01027
C 1.06966 31.88907 0.01831
C 1.07052 30.50317 -0.01037
C 34.37703 29.73064 -0.00439
C 33.1969 6.32622 -0.03838
C 28.23033 6.37309 0.01495
C 27.0433 7.02059 0.00235
C 27.00861 8.49336 0.01094
C 23.41473 17.737 0.00096
C 22.20664 16.95179 -0.01527
C 22.15299 15.56417 0.01087
C 23.37775 14.83191 0.00199
C 23.39942 13.41334 0.01511
C 22.15041 12.72329 -0.00478
C 22.08918 11.3396 -0.01662
C 23.38603 10.64135 -0.01185
C 23.33673 9.18661 0.01126
C 22.1589 8.48752 0.01852
C 22.20144 7.06739 -0.00381
C 23.43983 6.30908 0.03046
C 23.35285 4.90304 0.0296
C 22.09797 4.27118 0.03374
C 22.16502 2.85341 -0.02845
C 23.35501 2.11911 -0.03213
C 23.4003 0.65553 0.02239
C 22.09692 0.02182 0.01153
C 24.6808 32.67805 0.02734
C 25.88463 31.97054 -0.0055
C 25.905 30.53654 0.01515
C 23.39475 19.12037 0.01277
C 22.12392 19.89205 -0.02422
C 22.09175 21.26943 -0.01721
C 23.29542 21.98776 -0.01154
C 19.64624 11.35924 0.03754
C 20.85551 10.64035 0.01739
C 20.9195 9.18906 0.00755
C 19.64957 8.53895 -0.0054
C 19.71701 7.15649 0.00667
C 20.93828 6.45919 0.00143
C 20.91857 5.01067 -0.017
C 19.68613 4.34697 0.00364
C 19.6888 2.84541 -0.00831
C 20.89476 2.10212 -0.02957
C 24.72012 29.78631 -0.00225
C 20.91309 0.68645 -0.04422
C 22.17709 32.70473 -0.00703
C 23.44695 31.99115 -0.04076
C 23.43339 30.49966 -0.00652
C 22.25018 29.82918 0.0058
C 22.07382 28.41971 -0.00865
C 23.22486 27.64479 0.00675
C 23.28337 26.20686 -0.00311
C 22.05826 25.49536 0.00742
C 22.01256 24.13639 -0.01594
C 23.29921 23.46557 0.0106
C 19.65836 33.97345 0.00654
C 24.60585 28.34645 0.00071
C 25.76361 27.69286 -0.01107
C 25.79438 26.27805 -0.01586
C 28.2715 31.93092 0.04306
C 28.26975 30.51491 0.00996
C 27.07668 29.80366 0.00195
C 27.02244 28.39178 -0.00802
C 28.30013 27.64156 -0.00218
C 28.31177 26.25935 -0.01654
C 27.01829 25.55111 -0.00037
C 27.06082 24.15173 -0.0032
C 28.35573 23.51054 0.00622
C 28.28043 22.04741 -0.02815
C 27.0988 32.65021 0.00367
C 27.06699 21.33867 -0.00942
C 28.28995 19.19856 0.00826
C 28.22836 17.723 -0.00294
C 27.02506 17.09393 0.00152
C 27.04822 15.66399 0.01257
C 28.32403 14.91416 0.02316
C 28.33655 13.49249 0.04185
C 27.08858 12.77288 0.00194
C 27.00825 11.34793 -0.00621
C 28.25084 10.6164 0.02611
C 28.24332 9.23677 0.02198
C 27.05145 19.87483 0.00487
C 20.9323 13.52761 -0.00111
C 24.61029 34.07653 -0.01679
C 25.84822 2.10342 0.00684
C 24.50535 25.55562 -0.01971
C 24.55288 24.17083 -0.02118
C 25.84859 23.42027 0.00733
C 25.80632 22.04747 -0.00178
C 24.63652 21.31605 0.00768
C 24.57171 19.89608 -0.0276
C 25.77678 19.1762 0.03005
C 25.79343 17.77372 -0.04078
C 24.60228 17.02224 0.02117
C 24.57715 15.60113 0.02737
C 25.83775 0.72333 -0.01052
C 25.8373 14.87752 -0.00498
C 24.66475 12.7679 0.03102
C 24.61251 11.33985 0.02555
C 25.77561 10.55349 0.01423
C 25.72843 9.16449 -0.00285
C 24.55194 8.46334 -0.009
C 24.54334 7.04326 -0.01199
C 25.7974 6.3079 -0.00229
C 25.78131 4.88347 -0.00938
C 24.55354 4.2302 -0.0264
C 24.61268 2.83431 -0.01154
C 25.85426 13.51953 0.00135
C 2.31946 32.61219 0.00088
