302
Graphene
C 34.3271 0.0605 0.01295
C 11.55035 17.02734 0.04892
C 9.98577 17.22156 -0.00111
C 9.7902 15.69151 -0.03557
C 11.03309 14.95784 0.03754
C 10.96594 13.60081 0.01739
C 9.87072 12.83025 0.00755
C 11.10551 26.11576 0.01452
C 9.88957 11.41153 -0.0054
C 11.15611 9.2375 0.00143
C 9.93715 8.59691 -0.017
C 9.91386 7.14678 0.00364
C 11.05726 6.40534 -0.00831
C 11.04864 4.96749 -0.02957
C 9.85191 4.267 -0.04422
C 11.17127 10.7147 0.00667
C 10.97165 27.58765 -0.01581
C 9.76581 28.23583 0.02691
C 9.78552 29.66529 -0.01979
C 7.3555 11.36869 -0.04147
C 8.64752 10.67822 -0.05302
C 8.65158 9.33059 0.00213
C 7.43936 8.55165 -0.00066
C 7.44059 7.05128 -0.00289
C 8.67466 6.40874 0.00028
C 8.58884 4.95069 -0.02213
C 7.36745 4.21904 0.03698
C 7.35012 2.85368 -0.00109
C 8.60693 2.18459 -0.00491
C 8.63271 0.71262 0.03338
C 7.30876 0.03513 -0.0258
C 9.80986 32.62845 -0.0331
C 11.04505 31.87788 -0.00316
C 11.01058 30.4399 0.02188
C 9.85543 2.83689 0.00654
C 11.10432 2.13417 -0.00703
C 11.11399 0.68841 -0.04076
C 9.83678 34.03078 -0.00652
C 12.23292 4.23871 0.01126
C 12.34363 2.76566 0.01852
C 13.55513 2.0756 -0.00381
C 13.55401 0.66363 0.03046
C 12.28983 33.99143 0.0296
C 14.82273 32.66654 0.03374
C 16.03531 31.92304 -0.02845
C 15.98009 30.44429 -0.03213
C 14.70573 29.68707 0.02239
C 14.70454 28.33068 0.01153
C 16.02314 27.69075 0.02734
C 15.89959 26.15522 -0.0055
C 14.67562 25.45419 0.01515
C 14.32522 24.09628 -0.00225
C 14.33114 13.03747 0.00071
C 13.63628 4.86314 -0.01185
C 7.42373 12.81597 -0.02815
C 13.57022 6.36577 -0.01662
C 12.36631 8.55105 0.01511
C 12.22538 32.61211 0.0058
C 13.49335 31.9044 -0.00865
C 13.46146 30.41709 0.00675
C 12.23968 29.69996 -0.00311
C 12.18429 28.2942 0.00742
C 13.41745 27.66771 -0.01594
C 13.50176 26.23073 0.0106
C 12.2249 25.50919 -0.01154
C 13.24705 23.65846 -0.01721
C 11.98801 16.02163 -0.02422
C 13.32775 13.91283 0.01277
C 12.22278 12.96818 0.00096
C 12.35454 11.50637 -0.01527
C 13.57798 10.74427 0.01087
C 13.53715 9.29241 0.00199
C 12.30985 7.10731 -0.00478
C 8.6223 13.55459 0.03505
C 8.58409 14.98347 0.01443
C 7.33554 15.70442 0.00979
C 3.59314 10.74467 -0.02245
C 3.67098 9.34389 -0.00428
C 2.42834 8.548 0.03101
C 2.3837 7.20458 -0.01536
C 3.63638 6.43755 -0.02689
C 3.67555 4.99819 -0.01046
C 2.42896 4.30066 -0.00891
C 2.39926 2.89401 0.02819
C 3.64798 2.19679 0.00165
C 3.6511 0.79696 -0.02971
C 2.46648 0.04986 0.02894
C 4.90592 32.73076 -0.01789
C 6.12748 32.05917 0.00444
C 6.14254 30.54118 -0.00925
C 4.8976 29.79251 0.01877
C 2.40355 11.45518 0.00985
C 4.9117 28.33331 0.01363
C 2.45485 12.75634 -0.01275
C 3.66823 14.82582 0.02841
C 3.66664 30.49617 -0.01634
C 2.39097 29.80058 -0.00334
C 2.42775 28.34534 0.02339
C 3.66017 27.67571 0.01641
C 3.64287 26.26253 -0.00719
C 2.44104 25.5382 0.01364
C 2.45688 24.05198 -0.01062
C 3.71079 23.41112 -0.00033
C 3.76793 21.99228 0.03589
C 2.4975 21.31868 -0.02759
C 2.47752 19.8951 0.0402
C 3.71091 19.19793 0.00572
C 3.6422 17.76192 0.03592
C 2.37053 17.07415 0.00406
C 2.45688 15.66552 0.00943
C 3.68497 13.46352 -0.01111
C 14.72471 11.71937 -0.01107
C 6.11545 27.62096 -0.02162
C 4.85539 25.62236 -0.0014
C 4.90154 4.30358 -0.0108
C 4.90845 2.85544 -0.00368
C 6.099 2.17969 -0.02696
C 6.08027 0.75945 -0.00114
C 4.9004 0.06075 0.00228
C 7.35802 32.69355 0.00798
C 8.58283 31.78017 0.00422
C 8.55093 30.41233 0.0351
C 7.36702 29.74526 -0.03113
C 7.32367 28.26041 0.02098
C 8.51785 27.64404 0.01848
C 8.43682 26.09735 -0.00619
C 7.3796 25.44693 -0.02162
C 8.86914 17.90473 0.00889
C 7.43965 17.05492 -0.00481
C 6.15389 5.02338 -0.01957
C 6.10524 26.26838 0.00415
C 6.16427 6.41301 0.02058
C 4.84568 8.56997 -0.03682
C 4.86577 24.19129 0.02162
C 6.0546 23.52735 0.0076
C 6.05101 22.22511 0.01241
C 5.00096 21.30617 -0.01454
C 5.00996 19.79515 0.01945
C 6.20198 19.17877 0.01416
C 6.19176 17.83029 0.03542
C 4.80436 17.04404 0.02299
C 4.85739 15.55971 0.00244
C 6.0915 14.91162 -0.01717
C 6.13152 13.53925 0.05265
C 4.94653 12.7992 -0.01952
C 4.8789 11.37937 -0.02813
C 6.14872 10.7176 0.00374
C 6.15056 9.32963 0.00052
C 4.90815 7.03643 0.01965
C 14.65583 8.49263 -0.01586
C 14.70113 7.17302 -0.01971
C 14.85033 4.1331 -0.02118
C 31.93546 25.58756 0.01574
C 31.96315 24.10939 -0.02383
C 33.19506 23.43799 -0.01429
C 33.16187 22.01427 -0.0136
C 31.93745 21.33943 0.00594
C 31.90615 19.96342 -0.02474
C 33.13828 19.23559 0.00369
C 33.13806 17.80306 0.00455
C 31.87666 17.17998 -0.00644
C 31.81465 15.7497 -0.01839
C 33.07481 14.9888 0.00137
C 33.07031 13.44452 0.00199
C 32.04081 12.52845 0.04381
C 33.13452 10.84712 0.02806
C 33.22333 9.56666 0.01504
C 33.1334 26.28049 0.01927
C 33.07892 6.62064 -0.00069
C 33.20168 27.68758 0.03794
C 31.93601 29.80209 0.00682
C 29.48713 24.2073 -0.00971
C 30.70691 23.4691 0.01518
C 30.64501 22.02107 0.01908
C 29.4168 21.28808 0.07705
C 29.44926 19.9543 0.0103
C 30.64949 19.28232 0.02108
C 30.69176 17.92519 0.00716
C 29.46297 17.03234 0.00307
C 30.3017 15.44828 0.00346
C 30.58404 2.18396 0.01713
C 30.64892 0.76684 -0.01694
C 29.38075 34.07281 0.01428
C 31.89362 32.69962 -0.02142
C 33.11948 32.02715 0.0544
C 33.06254 30.54616 0.00026
C 31.99227 28.41869 -0.01779
C 29.45581 25.61613 -0.03735
C 33.02633 5.16481 0.04926
C 31.83068 2.92967 0.00349
C 34.331 15.67389 0.02114
C 1.16115 14.99657 -0.02957
C 1.27873 13.52955 0.00343
C 0.01982 12.86142 -0.02656
C 0.01659 11.44873 -0.02442
C 1.21497 10.67987 -0.00027
C 1.23345 9.30594 -0.00583
C 34.39306 8.67432 -0.02302
C 34.29516 7.22164 -0.02849
C 1.15243 6.47961 0.02931
C 1.18742 5.05142 0.00628
C 34.30784 4.42277 -0.0345
C 34.31921 2.97773 -0.00931
C 1.11256 2.2185 -0.00939
C 1.12328 0.8078 -0.00468
C 34.30565 17.08052 0.00648
C 31.99781 4.33212 -0.03838
C 1.11444 17.77551 0.01223
C 34.4202 19.92648 0.01951
C 33.14278 2.24877 -0.00323
C 33.11114 0.79829 -0.00841
C 31.87034 34.06028 0.0001
C 34.39058 32.73047 -0.02927
C 1.18053 32.0384 -0.01404
C 1.17488 30.65259 0.01027
C 34.32531 29.89976 0.01831
C 34.38781 28.42044 -0.01037
C 1.17857 27.76477 -0.00439
C 1.168 26.24267 -0.00598
C 34.35403 25.58998 -0.05239
C 34.3801 24.18895 0.03076
C 1.22717 23.41576 0.00723
C 1.25235 22.00497 0.02712
C 34.39487 21.33434 -0.02213
C 1.18366 19.20497 -0.01678
C 3.65122 31.9623 0.00057
C 30.69574 26.37882 -0.00944
C 29.47596 28.45229 -0.01461
C 19.53037 28.30789 -0.01154
C 20.84464 27.70067 0.00684
C 20.84045 26.34209 -0.01052
C 19.69622 25.50018 -0.01679
C 19.59326 0.09662 0.00367
C 22.15953 32.69372 0.04306
C 23.34667 31.95117 0.00996
C 23.32461 30.58512 0.00195
C 22.06884 29.82011 -0.00802
C 22.07425 28.35017 -0.00218
C 23.31625 27.6229 -0.01654
C 23.29484 26.26684 -0.00037
C 22.07221 25.59153 -0.0032
C 22.23265 24.22876 0.00622
C 23.27857 23.51051 -0.02815
C 19.59231 29.77279 -0.0264
C 22.46329 34.07997 -0.00942
C 20.78276 30.5143 -0.00938
C 19.64727 32.73659 -0.01199
C 14.84914 2.75807 0.00733
C 16.09993 2.11948 -0.00178
C 16.12904 0.7092 0.00768
C 14.81863 34.03602 -0.0276
C 17.25288 32.64947 0.03005
C 18.48846 32.00701 -0.04078
C 18.42946 30.54462 0.02117
C 17.16663 29.74583 0.02737
C 17.19576 28.26799 -0.00498
C 18.43063 27.47246 0.00135
C 18.38128 26.00561 0.03102
C 17.10092 25.62953 0.02555
C 17.18398 2.89999 0.01423
C 18.51995 0.82226 -0.00285
C 17.2693 0.02352 -0.009
C 20.94662 31.93873 -0.00229
C 30.70951 27.77178 -0.02155
C 24.50995 32.73434 0.00487
C 25.82417 30.46016 -0.00294
C 28.22876 26.32123 0.00924
C 26.98148 25.54527 0.02326
C 26.99423 24.13414 0.00261
C 28.18924 23.4205 0.03265
C 28.2252 22.00368 -0.02049
C 26.92602 21.25835 -0.01854
C 27.00674 19.82104 -0.01415
C 28.23025 19.18168 -0.03039
C 28.21861 17.68239 0.01836
C 28.08399 0.61917 0.03531
C 27.02575 34.06289 -0.00669
C 29.42451 32.58899 0.0101
C 30.69021 31.92055 0.01705
C 30.70067 30.54774 -0.0405
C 29.47417 29.92195 -0.01303
C 28.27554 27.71498 0.0014
C 25.79189 31.90761 0.00826
C 26.99279 28.36845 0.01324
C 28.23858 30.54068 0.01177
C 24.54799 29.88483 0.00152
C 24.48868 28.44421 0.01257
C 25.78117 27.72973 0.02316
C 25.77465 26.31119 0.04185
C 24.53196 25.57093 0.00194
C 24.57893 24.15348 -0.00621
C 25.77201 23.43387 0.02611
C 25.76494 22.01324 0.02198
C 24.60336 21.15966 0.01094
C 24.68235 19.86061 0.00235
C 25.81304 18.96532 0.01495
C 26.06323 17.56321 0.01259
C 24.28027 34.05527 0.01799
C 26.96179 32.63096 0.01699
C 28.19623 31.95357 -0.00416
C 27.02424 29.80853 0.04266
C 2.44541 32.67985 0.00093
