356
Graphene
C 0.00814 0.01671 0.01295
C 9.80964 12.74147 -0.0108
C 9.80998 11.39098 -0.00368
C 11.02845 10.67494 -0.02696
C 10.97211 9.22518 -0.00114
C 9.78043 8.4721 0.00228
C 9.82932 7.08806 0.00798
C 11.09196 6.38192 0.00422
C 11.06019 5.01767 0.0351
C 10.98231 13.38763 -0.01957
C 9.83598 4.36994 -0.03113
C 10.98449 2.20068 0.01848
C 11.09299 0.74202 -0.00619
C 9.85555 0.0472 -0.02162
C 12.3274 32.64286 0.00889
C 13.55498 31.96786 -0.00481
C 13.70487 30.50261 0.00979
C 12.39779 29.72064 0.01443
C 12.33489 28.39696 0.03505
C 9.82305 2.91286 0.02098
C 12.29384 17.01116 -0.02815
C 10.88337 14.91165 0.02058
C 9.8582 16.98041 -0.03682
C 7.36787 4.26838 -0.02162
C 7.41791 2.88801 0.00415
C 8.62394 2.1614 -0.0014
C 8.59995 0.75016 0.02162
C 7.36048 0.08943 0.0076
C 9.88644 32.68398 0.01241
C 11.10572 31.93036 -0.01454
C 11.17164 30.48069 0.01945
C 9.77719 15.62638 0.01965
C 9.87551 29.86885 0.01416
C 11.06445 27.67715 0.02299
C 10.96105 26.30877 0.00244
C 9.86203 25.41257 -0.01717
C 9.82874 23.93938 0.05265
C 9.8443 21.56159 -0.01952
C 9.93176 19.98447 -0.02813
C 11.01349 19.16963 0.00374
C 11.11243 17.79223 0.00052
C 9.78694 28.3919 0.03542
C 12.14378 15.58199 -0.04147
C 13.52004 14.83464 -0.05302
C 13.53069 13.47926 0.00213
C 14.71786 7.09657 0.00667
C 15.92625 6.38143 0.00143
C 15.94915 4.98733 -0.017
C 14.71731 4.30397 0.00364
C 14.78749 2.86324 -0.00831
C 15.97253 2.04992 -0.02957
C 15.95854 0.68648 -0.04422
C 14.77289 34.05826 0.00654
C 14.6781 8.5906 -0.0054
C 17.10967 32.53519 -0.00703
C 18.36357 13.4441 -0.00652
C 17.24373 12.76672 0.0058
C 17.19358 11.29482 -0.00865
C 18.38984 10.71124 0.00675
C 18.42138 9.28114 -0.00311
C 17.10702 8.56407 0.00742
C 17.11402 7.15077 -0.01594
C 18.40663 6.44685 0.0106
C 18.37251 31.87453 -0.04076
C 15.93341 9.33352 0.00755
C 15.90742 10.75988 0.01739
C 14.7279 11.42182 0.03754
C 12.18723 12.75609 -0.00066
C 12.27855 11.33994 -0.00289
C 13.57431 10.70688 0.00028
C 13.46303 9.31617 -0.02213
C 12.24385 8.57245 0.03698
C 12.27525 7.23526 -0.00109
C 13.45231 6.44286 -0.00491
C 13.49908 4.96427 0.03338
C 12.28424 4.19486 -0.0258
C 12.23395 2.8362 -0.0331
C 13.57152 2.16774 -0.00316
C 13.56003 0.78448 0.02188
C 12.32236 0.06662 -0.01979
C 14.75736 32.62969 0.02691
C 15.84228 31.84741 -0.01581
C 14.64747 15.5992 0.01452
C 15.80175 14.88977 0.04892
C 15.93129 13.50754 -0.00111
C 14.71993 12.79504 -0.03557
C 8.56881 5.02632 0.01363
C 18.36415 4.995 -0.01154
C 8.52999 6.45151 0.01877
C 7.27885 8.54763 0.00444
C 2.43943 7.21941 -0.00562
C 3.59601 6.49962 -0.00494
C 3.60113 5.06375 0.00054
C 2.43335 4.35729 0.03007
C 2.42975 2.9202 -0.00095
C 3.70242 2.18721 0.01572
C 3.72529 0.7132 -0.04848
C 2.44491 0.09091 -0.00892
C 2.41047 8.63254 -0.01142
C 4.91791 32.68956 -0.01362
C 6.21852 30.51773 0.0288
C 4.94128 29.88656 0.00393
C 4.92846 28.4426 0.00895
C 6.19256 27.68946 0.00685
C 6.24602 26.30582 0.02888
C 4.96796 25.67505 -0.00482
C 4.92854 24.18894 -0.01384
C 6.12068 23.44983 0.03693
C 6.15389 31.98013 -0.0008
C 6.16997 22.03719 0.01745
C 3.63206 9.2918 0.01849
C 2.40699 11.37055 0.0127
C 3.70151 30.58407 -0.05697
C 2.4623 29.85168 0.01087
C 2.39157 28.41851 -0.01343
C 3.74026 27.71587 0.00988
C 3.74122 26.319 0.0276
C 2.46595 25.54371 0.01305
C 2.42288 24.13737 -0.00077
C 3.67027 23.41466 0.03368
C 3.61174 10.68427 0.01396
C 3.69551 22.09136 -0.02929
C 2.41959 19.88659 -0.03337
C 3.65116 19.15164 0.01227
C 3.72497 17.7428 0.00873
C 2.45823 17.12873 -0.00049
C 2.44893 15.67562 0.00848
C 3.62135 14.92447 -0.01303
C 3.63961 13.51573 -0.01378
C 2.40491 12.8735 0.02635
C 2.45164 21.2987 -0.00966
C 4.9541 21.26818 0.00488
C 4.91105 19.84454 -0.01004
C 6.15645 19.15058 -0.02896
C 8.6089 27.61222 0.00406
C 8.67168 26.20649 0.00943
C 7.47038 25.53965 0.02841
C 7.3999 24.20197 -0.01111
C 8.54226 23.40216 -0.01275
C 8.55818 22.05587 0.00985
C 7.37688 21.31306 -0.02245
C 7.43106 19.89113 -0.00428
C 7.40769 28.43948 0.03592
C 8.68227 19.29184 0.03101
C 7.42925 17.11907 -0.02689
C 7.30759 15.61456 -0.01046
C 8.52927 14.90175 -0.00891
C 8.56952 13.46999 0.02819
C 7.30358 12.73953 0.00165
C 7.32124 11.36765 -0.02971
C 8.57177 10.70632 0.02894
C 8.52722 9.17243 -0.01789
C 8.73014 17.78422 -0.01536
C 7.45599 29.86031 0.00572
C 8.64242 30.61288 0.0402
C 8.65193 31.9864 -0.02759
C 6.15338 17.76951 -0.00131
C 4.95266 17.07539 -0.01118
C 4.92393 15.62156 -0.014
C 6.10117 14.93115 0.02147
C 6.11602 13.52828 0.00373
C 4.90915 12.80002 -0.00191
C 4.85859 11.39299 0.00438
C 6.1443 10.67083 0.01291
C 6.07271 9.25258 0.00093
C 4.8528 8.61328 0.00057
C 4.86256 7.13062 -0.01634
C 6.09025 6.45597 -0.00334
C 6.11787 4.99398 0.02339
C 4.85412 4.31474 0.01641
C 4.91644 2.87945 -0.00719
C 6.18253 2.19031 0.01364
C 6.16759 0.7877 -0.01062
C 4.97309 0.031 -0.00033
C 7.38703 32.67972 0.03589
C 7.29409 7.17996 -0.00925
C 17.16726 4.23997 -0.01721
C 17.16032 2.81136 -0.02422
C 18.3536 2.08361 0.01277
C 31.98908 32.75791 0.01713
C 33.22729 32.01897 -0.01694
C 33.21741 30.56342 0.01428
C 31.96201 29.86684 -0.02142
C 31.91923 28.39597 0.0544
C 33.18409 27.6763 0.00026
C 33.19685 26.20002 0.00682
C 31.91852 25.54868 -0.01779
C 29.5041 0.08916 0.00346
C 32.01162 24.1293 0.03794
C 33.15151 22.04426 0.01574
C 31.86168 21.27067 -0.02383
C 31.78749 19.87888 -0.01429
C 33.12748 19.16127 -0.0136
C 33.1279 17.80559 0.00594
C 31.78751 17.07302 -0.02474
C 31.85785 15.65509 0.00369
C 33.17461 14.93183 0.00455
C 33.2085 23.41981 0.01927
C 33.15277 13.53497 -0.00644
C 30.80109 0.74864 0.00307
C 29.49528 2.73329 0.02108
C 30.68684 21.98583 -0.01415
C 29.33123 21.5023 -0.03039
C 29.20307 20.04989 0.01836
C 30.4791 19.32792 0.03531
C 30.50269 17.82544 -0.00669
C 29.23529 17.0986 0.0101
C 29.3957 15.6632 0.01705
C 30.6272 14.9346 -0.0405
C 30.82073 2.15814 0.00716
C 30.68656 13.48965 -0.01303
C 29.52827 11.35281 -0.02155
C 30.75365 10.62408 -0.00944
C 30.75435 9.1449 -0.03735
C 29.54727 8.53366 -0.00971
C 29.51096 7.05103 0.01518
C 30.7346 6.34215 0.01908
C 30.74629 4.94605 0.07705
C 29.53482 4.22526 0.0103
C 29.50732 12.74102 -0.01461
C 31.95663 12.78391 -0.01839
C 31.9299 11.32996 0.00137
C 33.14101 10.6591 0.00199
C 1.08551 19.23685 -0.01678
C 1.16864 17.79847 0.01223
C 34.33259 17.12153 0.00648
C 34.38833 15.6329 0.02114
C 1.19225 14.93929 -0.02957
C 1.22281 13.5172 0.00343
C 0.01488 12.84187 -0.02656
C 34.35309 11.37398 -0.02442
C 34.37389 19.90085 0.01951
C 1.15594 10.62908 -0.00027
C 34.4043 8.53058 -0.02302
C 34.39058 7.11618 -0.02849
C 1.19326 6.45869 0.02931
C 1.20585 5.00282 0.00628
C 0.00194 4.27156 -0.0345
C 0.00959 2.81074 -0.00931
C 1.21024 2.08344 -0.00939
C 1.20714 0.73862 -0.00468
C 1.1777 9.23829 -0.00583
C 34.37569 21.31547 -0.02213
C 1.20797 21.9646 0.02712
C 1.17056 23.44043 0.00723
C 33.20646 9.26231 0.04381
C 31.99298 8.50757 0.02806
C 32.01528 7.05382 0.01504
C 33.24001 6.37921 -0.00069
C 33.25973 4.9606 0.04926
C 31.97176 4.30146 -0.03838
C 31.96424 2.8635 0.00349
C 33.21198 2.17252 -0.00323
C 33.25745 0.75792 -0.00841
C 31.96373 0.0326 0.0001
C 0.0229 32.6918 -0.02927
C 1.29521 31.99402 -0.01404
C 1.23886 30.57902 0.01027
C 0.01022 29.8366 0.01831
C 34.38141 28.38838 -0.01037
C 1.18604 27.75421 -0.00439
C 1.25152 26.27615 -0.00598
C 0.00416 25.55146 -0.05239
C 34.39078 24.18123 0.03076
C 30.71001 23.41293 -0.01854
C 29.46451 24.04567 -0.02049
C 29.51898 25.49344 0.03265
C 30.74625 26.2906 0.00261
C 22.11949 11.24613 -0.01107
C 23.4189 10.55121 -0.01586
C 23.30645 9.12621 -0.01971
C 22.05815 8.52678 -0.02118
C 22.14956 7.12307 0.00733
C 23.33136 6.40614 -0.00178
C 23.31636 4.9539 0.00768
C 22.03544 4.22864 -0.0276
C 22.11563 12.64066 0.00071
C 22.06802 2.82155 0.03005
C 23.31263 0.69748 0.02117
C 22.15957 34.06423 0.02737
C 24.57942 32.67555 -0.00498
C 25.89249 31.93921 0.00135
C 25.68795 30.60221 0.03102
C 24.57558 15.47431 0.02555
C 25.85783 14.88754 0.01423
C 25.82809 13.46777 -0.00285
C 23.28006 2.14082 -0.04078
C 23.38736 13.40303 -0.00225
C 23.46633 14.79856 0.01515
C 23.43058 31.99401 -0.0055
C 18.42058 0.5985 0.00096
C 17.14521 33.99129 -0.01527
C 19.61394 32.53751 0.01087
C 20.82948 31.9551 0.00199
C 20.91578 13.44433 0.01511
C 19.61121 12.89804 -0.00478
C 19.61883 11.45352 -0.01662
C 20.8481 10.63374 -0.01185
C 20.78356 9.21808 0.01126
C 19.60269 8.51138 0.01852
C 19.65075 7.07619 -0.00381
C 20.9391 6.40301 0.03046
C 20.83649 4.99595 0.0296
C 19.5959 4.31995 0.03374
C 19.62816 2.82696 -0.02845
C 20.92765 2.08042 -0.03213
C 20.9103 0.58956 0.02239
C 19.64182 34.0527 0.01153
C 22.12993 32.54403 0.02734
C 24.63715 12.73224 -0.009
C 3.64663 32.02365 -0.00725
C 24.60222 11.32427 -0.01199
C 25.81333 9.2469 -0.00938
C 27.00399 11.33728 0.04185
C 28.32841 10.62771 0.00194
C 28.34302 9.23503 -0.00621
C 27.03712 8.55331 0.02611
C 27.00493 7.09763 0.02198
C 28.24632 6.3589 0.01094
C 28.27945 4.94838 0.00235
C 27.0675 4.31179 0.01495
C 27.06269 12.72641 0.02316
C 27.0092 2.86438 0.01259
C 28.24575 0.72534 0.01699
C 26.96063 34.05578 -0.00416
C 29.564 32.70613 0.01177
C 30.78145 31.99764 0.04266
C 30.76706 30.51892 0.01324
C 29.43558 29.80435 0.0014
C 29.46127 28.40269 0.00924
C 30.71175 27.65753 0.02326
C 28.19799 2.10826 0.01799
C 28.24628 13.45153 0.01257
C 28.24283 14.9116 0.00152
C 27.0892 15.61144 -0.00294
C 24.64345 8.47471 -0.0264
C 24.51289 7.05422 -0.01154
C 25.78175 6.34392 0.00684
C 25.82696 5.01638 -0.01052
C 24.51739 4.31549 -0.01679
C 24.59102 2.81368 0.00367
C 25.80285 2.13055 0.04306
C 25.79921 0.68591 0.00996
C 24.5372 0.01847 0.00195
C 27.07324 32.65125 -0.00802
C 28.28375 31.95341 -0.00218
C 28.22319 30.52823 -0.01654
C 27.07281 29.83533 -0.00037
C 27.13366 28.51594 -0.0032
C 28.27644 27.67749 0.00622
C 28.40524 26.28767 -0.02815
C 28.0559 19.19135 -0.00942
C 27.98792 17.78387 0.00487
C 26.90773 16.94608 0.00826
C 25.79709 10.63341 -0.00229
C 2.52546 32.76283 0.02322
