350
Graphene
C 34.40334 0.02156 0.01295
C 11.05151 0.73844 0.00798
C 9.81752 0.04614 0.00422
C 12.26928 32.72321 0.0351
C 13.4562 32.03013 -0.03113
C 13.47543 30.55878 0.02098
C 12.23377 29.79965 0.01848
C 12.31247 28.35651 -0.00619
C 13.61261 27.69331 -0.02162
C 13.49251 26.31106 0.00889
C 12.24992 25.67822 -0.00481
C 12.23183 24.18629 0.00979
C 13.38674 23.38405 0.01443
C 13.62757 4.83648 0.03505
C 12.30223 4.40076 -0.02815
C 12.30443 2.77341 -0.04147
C 13.52235 2.17266 -0.05302
C 13.5261 0.77661 0.00213
C 11.05725 2.15807 0.00228
C 9.88665 2.98105 -0.00114
C 9.87044 4.34373 -0.02696
C 11.14549 5.0414 -0.00368
C 8.65149 2.21474 0.01241
C 8.69343 0.71374 -0.01454
C 7.42456 0.03044 0.01945
C 9.80818 32.74746 0.01416
C 11.00005 32.01839 0.03542
C 10.94268 30.60702 0.02299
C 9.74443 29.79193 0.00244
C 9.72167 28.39982 -0.01717
C 12.27686 0.05183 -0.00066
C 11.0012 27.69939 0.05265
C 9.81197 25.65407 -0.02813
C 9.78961 24.2447 0.00374
C 11.04014 23.48823 0.00052
C 11.10393 22.15699 -0.03682
C 9.8501 21.32592 0.01965
C 9.6963 19.98152 0.02058
C 9.92931 7.01177 -0.01957
C 10.91781 6.46941 -0.0108
C 11.06248 26.32314 -0.01952
C 14.69234 32.78551 -0.00289
C 15.87258 31.97773 0.00028
C 15.92868 30.55942 -0.02213
C 17.93831 4.19479 0.00364
C 17.42498 2.98962 -0.00831
C 18.47188 2.00802 -0.02957
C 18.46285 0.61263 -0.04422
C 17.16798 0.00214 0.00654
C 19.58209 32.64648 -0.00703
C 20.84168 31.93445 -0.04076
C 20.84027 30.47494 -0.00652
C 18.41729 23.45673 -0.017
C 19.56127 29.76738 0.0058
C 20.78406 27.73506 0.00675
C 20.79847 26.31255 -0.00311
C 19.62682 25.52443 0.00742
C 19.62101 24.12975 -0.01594
C 20.89417 23.50354 0.0106
C 21.08445 22.09119 -0.01154
C 20.59658 4.82212 -0.01721
C 19.55038 4.13321 -0.02422
C 19.5595 28.41882 -0.00865
C 7.46139 2.83848 0.0076
C 17.13638 23.93709 0.00143
C 18.41688 26.16313 -0.0054
C 14.70007 29.82858 0.03698
C 14.8247 28.33015 -0.00109
C 15.97234 27.58026 -0.00491
C 15.9267 26.123 0.03338
C 14.68425 25.46946 -0.0258
C 14.63035 23.98069 -0.0331
C 15.8338 23.43783 -0.00316
C 14.6282 4.31302 0.02188
C 17.17549 25.42887 0.00667
C 14.9234 2.86864 -0.01979
C 16.03606 0.78912 -0.01581
C 14.77549 0.0867 0.01452
C 17.11342 32.60316 0.04892
C 18.37754 31.95184 -0.00111
C 18.28691 30.42752 -0.03557
C 17.07544 29.78127 0.03754
C 17.17512 28.31659 0.01739
C 18.37188 27.6491 0.00755
C 16.15658 2.3167 0.02691
C 7.42283 4.25899 0.02162
C 8.59226 5.01627 -0.0014
C 8.58467 6.503 0.00415
C 2.55358 7.17162 -0.04848
C 3.7977 6.43846 -0.00892
C 3.75894 5.01602 -0.01362
C 2.48576 4.41773 -0.0008
C 2.38854 2.95718 0.0288
C 3.60234 2.20687 0.00393
C 3.64761 0.71611 0.00895
C 2.4242 34.07097 0.00685
C 2.51191 8.61586 0.01572
C 4.88152 32.70912 0.02888
C 5.98768 30.60821 -0.01384
C 4.80162 29.82864 0.03693
C 4.81576 28.45416 0.01745
C 6.14902 27.70537 0.00488
C 6.07517 26.25197 -0.01004
C 4.84057 25.61251 -0.02896
C 4.85241 24.20578 -0.00131
C 6.10452 23.43425 -0.01118
C 6.08748 32.10085 -0.00482
C 6.1007 22.01023 -0.014
C 3.74674 9.26623 -0.00095
C 2.57723 11.36074 0.00054
C 3.63424 30.57597 -0.00077
C 2.45623 29.84202 0.03368
C 2.39403 28.48084 -0.02929
C 3.62309 27.77839 -0.00966
C 3.60775 26.31139 -0.03337
C 2.31809 25.60234 0.01227
C 2.3349 24.2177 0.00873
C 3.56525 23.5115 -0.00049
C 3.76807 10.64461 0.03007
C 3.61844 22.05128 0.00848
C 2.4298 19.83433 -0.01378
C 3.63503 19.07206 0.02635
C 3.62236 17.73867 0.0127
C 2.38802 17.05271 0.01396
C 2.48779 15.66016 0.01849
C 3.68939 14.89369 -0.01142
C 3.71713 13.52426 -0.00562
C 2.50095 12.75682 -0.00494
C 2.42453 21.41168 -0.01303
C 19.68127 2.67712 0.01277
C 4.90063 21.24959 0.02147
C 6.16544 19.24018 -0.00191
C 7.32512 28.43579 0.00985
C 8.51187 27.75606 -0.02245
C 8.4909 26.34749 -0.00428
C 7.31445 25.56996 0.03101
C 7.26465 24.16503 -0.01536
C 8.51893 23.5266 -0.02689
C 8.58034 22.08387 -0.01046
C 7.3583 21.35476 -0.00891
C 7.22141 29.91954 -0.01275
C 7.34135 19.97583 0.02819
C 8.41636 17.8663 -0.02971
C 7.39031 16.97383 0.02894
C 7.48767 15.62565 -0.01789
C 7.38441 12.6122 0.00444
C 7.44085 11.22216 -0.00925
C 8.60515 9.65791 0.01877
C 7.62255 8.77377 0.01363
C 7.46521 7.19016 -0.02162
C 8.65549 19.20321 0.00165
C 4.89788 19.84509 0.00373
C 8.51038 30.54814 -0.01111
C 7.376 32.72363 0.00943
C 6.06439 17.78843 0.00438
C 4.84543 17.0817 0.01291
C 4.91581 15.60026 0.00093
C 6.22348 14.85378 0.00057
C 6.23243 13.4136 -0.01634
C 5.00064 12.78667 -0.00334
C 4.95018 11.39461 0.02339
C 6.17344 10.68064 0.01641
C 8.56975 32.00404 0.02841
C 6.32627 9.27146 -0.00719
C 4.90683 7.19836 -0.01062
C 6.15398 6.40852 -0.00033
C 6.19009 4.97446 0.03589
C 5.01339 4.25892 -0.02759
C 4.93456 2.84521 0.0402
C 6.17908 2.107 0.00572
C 6.16201 0.73143 0.03592
C 4.94389 0.03944 0.00406
C 4.99494 8.5642 0.01364
C 20.82849 2.01365 0.00096
C 20.80894 0.6761 -0.01527
C 19.66331 33.97534 0.01087
C 33.14318 31.93009 -0.01694
C 33.17036 30.56502 0.01428
C 31.91422 29.84738 -0.02142
C 32.00688 28.43332 0.0544
C 33.12881 27.72995 0.00026
C 33.09985 26.36485 0.00682
C 31.93787 25.58284 -0.01779
C 31.90769 24.24809 0.03794
C 31.89913 32.62929 0.01713
C 33.09319 23.4533 0.01927
C 31.89321 21.36047 -0.02383
C 31.84813 19.94019 -0.01429
C 33.10663 19.27442 -0.0136
C 33.11893 17.79057 0.00594
C 31.96009 17.05038 -0.02474
C 32.03939 15.5573 0.00369
C 33.24646 14.81888 0.00455
C 33.30641 13.38684 -0.00644
C 33.07728 21.98664 0.01574
C 32.01496 12.74406 -0.01839
C 29.44335 0.03027 0.00346
C 30.69244 2.08152 0.00716
C 29.40449 21.37237 -0.03039
C 29.34558 19.93849 0.01836
C 30.53971 19.23623 0.03531
C 30.72697 17.8239 -0.00669
C 29.48667 17.10999 0.0101
C 29.55608 15.68528 0.01705
C 30.80226 14.91488 -0.0405
C 30.79859 13.47797 -0.01303
C 30.70923 0.68966 0.00307
C 29.55459 12.82371 -0.01461
C 30.80536 10.55887 -0.00944
C 30.72516 9.18495 -0.03735
C 29.50379 8.41867 -0.00971
C 29.47041 7.05243 0.01518
C 30.74529 6.40923 0.01908
C 30.73645 4.96949 0.07705
C 29.38099 4.19509 0.0103
C 29.45431 2.89901 0.02108
C 29.60735 11.36106 -0.02155
C 30.58733 22.07568 -0.01415
C 32.00561 11.29178 0.00137
C 33.24088 9.23396 0.04381
C 1.19018 19.25246 -0.01678
C 1.13487 17.85371 0.01223
C 34.37547 17.07216 0.00648
C 0.05437 15.65438 0.02114
C 1.32181 14.87058 -0.02957
C 1.31993 13.49948 0.00343
C 0.07313 12.75489 -0.02656
C 0.03112 11.44827 -0.02442
C 34.35864 19.85994 0.01951
C 1.3125 10.69623 -0.00027
C 0.07058 8.58281 -0.02302
C 0.02493 7.20144 -0.02849
C 1.28458 6.53028 0.02931
C 1.21769 5.07119 0.00628
C 0.05794 4.29549 -0.0345
C 0.03091 2.88408 -0.00931
C 1.23585 2.17945 -0.00939
C 1.24038 0.73918 -0.00468
C 1.29942 9.25101 -0.00583
C 33.25146 10.63391 0.00199
C 34.34035 21.30741 -0.02213
C 1.14508 23.4064 0.00723
C 31.99473 8.49048 0.02806
C 31.94782 7.12242 0.01504
C 33.2023 6.40357 -0.00069
C 33.23793 4.97876 0.04926
C 31.99503 4.28547 -0.03838
C 32.02986 2.82994 0.00349
C 33.20752 2.10135 -0.00323
C 33.1685 0.68128 -0.00841
C 1.13727 22.06762 0.02712
C 31.91389 0.00919 0.0001
C 1.19537 31.9655 -0.01404
C 1.19826 30.51954 0.01027
C 34.38706 29.86781 0.01831
C 34.40952 28.45603 -0.01037
C 1.17233 27.73213 -0.00439
C 1.18297 26.38696 -0.00598
C 34.37468 25.60574 -0.05239
C 34.27492 24.14981 0.03076
C 34.42326 32.65246 -0.02927
C 3.65003 32.02328 0.01305
C 30.64341 23.47588 -0.01854
C 29.45681 25.63702 0.03265
C 24.50657 29.8157 -0.01971
C 24.4914 28.33103 -0.02118
C 25.70139 27.6618 0.00733
C 25.77296 26.21655 -0.00178
C 24.50843 25.56628 0.00768
C 24.59525 24.19007 -0.0276
C 25.82951 23.48845 0.03005
C 25.7946 22.09268 -0.04078
C 25.73324 30.53233 -0.01586
C 24.50931 21.34585 0.02117
C 25.61556 19.07981 -0.00498
C 25.86756 17.73939 0.00135
C 25.93648 10.66789 0.03102
C 25.70893 9.23225 0.02555
C 24.71186 8.3927 0.01423
C 24.39667 7.08102 -0.00285
C 25.80783 6.33445 -0.009
C 25.76312 4.9539 -0.01199
C 24.57888 19.96082 0.02737
C 24.49929 4.19456 -0.00229
C 25.72375 31.92492 -0.01107
C 22.07119 34.05923 -0.00225
C 22.06439 32.67201 0.00199
C 23.21847 31.99215 0.01511
C 23.23773 30.57708 -0.00478
C 22.00284 29.78689 -0.01662
C 22.01504 28.40713 -0.01185
C 23.25752 27.68633 0.01126
C 23.26178 26.26991 0.01852
C 22.09 25.59815 -0.00381
C 24.46083 32.65627 0.00071
C 22.18382 24.18212 0.03046
C 23.3586 22.13831 0.03374
C 22.06283 21.49262 -0.02845
C 23.32058 6.22933 -0.03213
C 23.19385 4.9026 0.02239
C 21.88411 4.25398 0.01153
C 22.05088 2.84305 0.02734
C 23.28639 2.14932 -0.0055
C 23.26259 0.68598 0.01515
C 23.36425 23.56516 0.0296
C 29.43794 24.17395 -0.02049
C 24.61705 2.77122 -0.00938
C 25.82448 0.6636 -0.01154
C 28.37525 10.64761 0.00194
C 28.34491 9.20364 -0.00621
C 27.08766 8.51426 0.02611
C 26.96663 7.03614 0.02198
C 28.22634 6.34524 0.01094
C 28.18047 4.98315 0.00235
C 26.98455 4.28638 0.01495
C 27.0028 2.86557 0.01259
C 27.0788 11.42622 0.04185
C 28.2093 2.10738 0.01799
C 27.00913 34.0212 -0.00416
C 29.42443 32.75323 0.01177
C 30.6893 31.94398 0.04266
C 30.70878 30.56596 0.01324
C 29.53044 29.79711 0.0014
C 29.48281 28.42288 0.00924
C 30.7047 27.72394 0.02326
C 30.71419 26.33717 0.00261
C 28.1448 0.65689 0.01699
C 25.77656 2.00263 -0.0264
C 27.01877 12.93939 0.02316
C 28.26196 15.02369 0.00152
C 24.47512 34.00154 0.00684
C 26.91683 32.56935 -0.01052
C 28.27477 31.95702 -0.01679
C 28.3133 30.52499 0.00367
C 27.04164 29.85394 0.04306
C 26.91745 28.41096 0.00996
C 28.21192 27.70231 0.00195
C 28.24931 26.30701 -0.00802
C 28.34705 13.5564 0.01257
C 26.99862 25.59958 -0.00218
C 28.19213 23.49636 -0.00037
C 28.2474 22.07509 -0.0032
C 26.97128 21.35975 0.00622
C 26.92118 19.90196 -0.02815
C 28.20174 19.21841 -0.00942
C 28.26481 17.66568 0.00487
C 26.95423 16.93575 0.00826
C 26.92647 15.56273 -0.00294
C 27.0017 24.20489 -0.01654
C 2.38194 32.69143 0.0276
