349
Graphene
C 34.40778 0.08942 0.01295
C 12.22992 28.42291 0.00422
C 13.53482 27.68259 0.0351
C 13.46938 26.35546 -0.03113
C 12.27006 25.68608 0.02098
C 12.3256 24.18179 0.01848
C 13.49364 23.34709 -0.00619
C 13.36222 21.98525 -0.02162
C 12.26001 21.2238 0.00889
C 13.57921 4.68318 -0.00481
C 12.24777 4.28998 0.00979
C 12.37801 2.77236 0.01443
C 13.62971 2.13966 0.03505
C 13.60251 0.71365 -0.02815
C 12.36796 34.07553 -0.04147
C 14.73974 32.5774 -0.05302
C 15.95501 31.95057 0.00213
C 16.0072 30.52155 -0.00066
C 12.28308 29.80972 0.00798
C 13.47013 30.45867 0.00228
C 13.51513 31.91093 -0.00114
C 12.28554 32.60695 -0.02696
C 9.76159 28.44056 -0.01454
C 11.06596 27.69481 0.01945
C 11.09884 26.30492 0.01416
C 9.80806 25.57868 0.03542
C 9.85354 24.16847 0.02299
C 11.11882 23.48776 0.00244
C 11.06771 22.05076 -0.01717
C 9.88231 21.36433 0.05265
C 14.77833 29.70993 -0.00289
C 9.88406 19.92257 -0.01952
C 9.86967 7.24979 0.00374
C 10.8987 6.38109 0.00052
C 11.05205 5.00639 -0.03682
C 9.82935 4.33026 0.01965
C 9.92749 2.81743 0.02058
C 11.19647 2.07932 -0.01957
C 11.13163 0.68401 -0.0108
C 9.89176 34.05273 -0.00368
C 11.13282 19.34117 -0.02813
C 14.70573 28.36148 0.00028
C 15.98212 27.63694 -0.02213
C 15.88201 26.25809 0.03698
C 17.2794 2.89811 -0.00831
C 18.46616 2.117 -0.02957
C 18.49287 0.70893 -0.04422
C 17.28559 0.00394 0.00654
C 19.66511 32.61412 -0.00703
C 20.83986 31.90034 -0.04076
C 20.88688 30.4535 -0.00652
C 19.62961 29.78166 0.0058
C 17.12543 4.20569 0.00364
C 19.64648 28.42138 -0.00865
C 20.92118 26.2487 -0.00311
C 19.67207 25.62076 0.00742
C 19.71831 24.14283 -0.01594
C 20.93835 23.43156 0.0106
C 20.93739 22.01467 -0.01154
C 20.95565 4.83478 -0.01721
C 19.83647 4.2024 -0.02422
C 19.63902 2.90438 0.01277
C 20.82209 27.69412 0.00675
C 9.74269 29.83692 0.01241
C 18.5 22.08783 -0.017
C 17.19378 24.13827 0.00667
C 14.66987 25.6428 -0.00109
C 14.66375 24.21079 -0.00491
C 15.9544 23.47917 0.03338
C 15.92538 22.14285 -0.0258
C 16.04684 4.88195 -0.0331
C 14.80117 4.31361 -0.00316
C 14.84284 2.84983 0.02188
C 16.08078 2.23296 -0.01979
C 18.46049 23.41417 0.00143
C 16.00767 0.80694 0.02691
C 17.19009 32.69014 0.01452
C 18.38985 31.96664 0.04892
C 18.42414 30.52798 -0.00111
C 17.21686 29.77343 -0.03557
C 17.12763 28.33605 0.03754
C 18.43042 27.68952 0.01739
C 18.43709 26.26649 0.00755
C 17.18096 25.5549 -0.0054
C 14.84174 0.04235 -0.01581
C 11.03215 30.51705 0.0076
C 11.0414 31.90219 0.02162
C 9.79156 32.61483 -0.0014
C 2.45909 7.03934 -0.00892
C 3.68021 6.36076 -0.01362
C 3.68878 4.91323 -0.0008
C 2.44497 4.16861 0.0288
C 2.48913 2.77618 0.00393
C 3.74957 2.1742 0.00895
C 3.71688 0.74025 0.00685
C 2.48595 0.07861 0.02888
C 2.4722 8.50532 -0.04848
C 4.92965 32.70797 -0.00482
C 6.0768 30.54712 0.03693
C 4.8042 29.84236 0.01745
C 4.84261 28.46762 0.00488
C 6.12384 27.68919 -0.01004
C 6.13319 26.2586 -0.02896
C 4.85945 25.60417 -0.00131
C 4.88966 24.198 -0.01118
C 6.19776 23.54367 -0.014
C 6.07939 32.00702 -0.01384
C 6.16295 22.11667 0.02147
C 3.8468 9.26456 0.01572
C 2.578 11.31023 0.03007
C 3.66101 30.57439 0.03368
C 2.40132 29.83886 -0.02929
C 2.35258 28.42845 -0.00966
C 3.63002 27.71062 -0.03337
C 3.65078 26.26842 0.01227
C 2.41535 25.59231 0.00873
C 2.51001 24.13056 -0.00049
C 3.73069 23.40528 0.00848
C 3.77423 10.74346 -0.00095
C 3.57003 21.95839 -0.01303
C 2.31992 19.86411 0.02635
C 3.58123 19.17225 0.0127
C 3.7073 17.80941 0.01396
C 2.47058 17.03588 0.01849
C 2.45839 15.56288 -0.01142
C 3.65294 14.89202 -0.00562
C 3.80578 13.47052 -0.00494
C 2.41545 12.73936 0.00054
C 2.38316 21.29489 -0.01378
C 20.86207 2.18548 0.00096
C 4.90942 21.31613 0.00373
C 6.08518 19.21723 0.00438
C 7.44442 24.16991 -0.02245
C 8.69967 23.49368 -0.00428
C 8.63873 22.02576 0.03101
C 7.3969 21.38105 -0.01536
C 7.36345 19.91963 -0.02689
C 8.57874 19.05514 -0.01046
C 8.52426 17.69478 -0.00891
C 7.31508 17.06279 0.02819
C 7.34077 25.61031 0.00985
C 7.25716 15.46785 0.00165
C 7.37802 7.23053 0.02894
C 8.63484 6.6619 -0.01789
C 8.67534 5.06361 0.00444
C 7.40058 4.33443 -0.00925
C 7.47243 2.87222 0.01877
C 8.67779 2.01934 0.01363
C 8.63847 0.67633 -0.02162
C 7.31454 0.04788 0.00415
C 8.59007 15.00068 -0.02971
C 4.86439 19.95914 -0.00191
C 8.60334 26.30119 -0.01275
C 7.34124 28.42034 0.02841
C 6.14105 17.76043 0.01291
C 4.90001 17.12205 0.00093
C 4.9091 15.59435 0.00057
C 6.04386 14.85979 -0.01634
C 4.99129 12.86397 -0.00334
C 4.89112 8.4135 0.02339
C 4.89331 7.06617 0.01641
C 6.15361 6.46721 -0.00719
C 8.54334 27.70079 -0.01111
C 6.20886 5.02895 0.01364
C 4.97611 2.93586 -0.00033
C 6.26233 2.22104 0.03589
C 6.17217 0.83 -0.02759
C 4.95369 0.02285 0.0402
C 7.32671 32.62982 0.00572
C 8.58204 31.94706 0.03592
C 8.54553 30.54594 0.00406
C 7.35875 29.86484 0.00943
C 4.92287 4.26764 -0.01062
C 3.61143 32.06511 -0.00077
C 20.891 0.73566 -0.01527
C 22.03931 32.55091 0.00199
C 33.24666 30.59467 0.01428
C 31.96862 29.82689 -0.02142
C 31.89647 28.42447 0.0544
C 33.08442 27.65007 0.00026
C 33.19159 26.30159 0.00682
C 31.97478 25.60372 -0.01779
C 31.98017 24.15834 0.03794
C 33.1687 23.48106 0.01927
C 33.19812 22.03201 0.01574
C 32.01174 21.36492 -0.02383
C 31.96872 19.88145 -0.01429
C 33.19789 19.13491 -0.0136
C 33.23323 17.69561 0.00594
C 31.98187 17.03785 -0.02474
C 31.8746 15.65498 0.00369
C 33.03881 14.87481 0.00455
C 33.11491 13.50233 -0.00644
C 33.2224 32.02067 -0.01694
C 31.99714 32.6021 0.01713
C 29.53401 34.02304 0.00346
C 30.7261 0.73625 0.00307
C 29.54736 20.00334 0.01836
C 30.74233 19.23958 0.03531
C 30.74956 17.84273 -0.00669
C 29.55877 17.01912 0.0101
C 29.48864 15.65527 0.01705
C 30.61535 14.88459 -0.0405
C 30.72015 13.43899 -0.01303
C 29.5312 12.70537 -0.01461
C 31.89492 12.68853 -0.01839
C 29.49465 11.31051 -0.02155
C 30.68067 9.17778 -0.03735
C 29.48682 8.48762 -0.00971
C 29.5213 7.09454 0.01518
C 30.7477 6.38893 0.01908
C 30.80225 4.96508 0.07705
C 29.59641 4.21799 0.0103
C 29.54032 2.78499 0.02108
C 30.70999 2.0985 0.00716
C 30.75392 10.62255 -0.00944
C 31.96225 11.33066 0.00137
C 33.25485 10.65754 0.00199
C 33.22454 9.23909 0.04381
C 1.12122 19.09096 -0.01678
C 1.26997 17.6287 0.01223
C 34.38805 16.98858 0.00648
C 34.35633 15.54886 0.02114
C 1.20047 14.85355 -0.02957
C 1.24348 13.45822 0.00343
C 34.41233 12.78351 -0.02656
C 0.07271 11.36759 -0.02442
C 34.38274 19.85971 0.01951
C 1.27207 10.6382 -0.00027
C 0.00555 8.51339 -0.02302
C 0.01263 7.11409 -0.02849
C 1.23486 6.35739 0.02931
C 1.26297 4.8824 0.00628
C 0.01815 4.24546 -0.0345
C 34.42891 2.83001 -0.00931
C 1.16639 2.14216 -0.00939
C 1.21055 0.76673 -0.00468
C 1.26124 9.22724 -0.00583
C 29.50164 21.36168 -0.03039
C 0.059 21.34127 -0.02213
C 1.26827 23.48651 0.00723
C 32.03307 8.49033 0.02806
C 32.01899 7.09434 0.01504
C 33.27984 6.4255 -0.00069
C 33.26304 4.95968 0.04926
C 32.02235 4.28052 -0.03838
C 32.00444 2.88333 0.00349
C 33.17568 2.09709 -0.00323
C 33.14449 0.71758 -0.00841
C 1.21744 22.06415 0.02712
C 31.94679 34.07721 0.0001
C 1.18624 32.01014 -0.01404
C 1.22856 30.5633 0.01027
C 34.381 29.82775 0.01831
C 34.3475 28.404 -0.01037
C 1.15147 27.64998 -0.00439
C 1.18154 26.21903 -0.00598
C 34.41832 25.49844 -0.05239
C 34.42927 24.16314 0.03076
C 34.42442 32.7459 -0.02927
C 30.81789 22.01918 -0.01415
C 30.79051 23.4695 -0.01854
C 29.61735 24.26371 -0.02049
C 24.49205 28.43542 -0.02118
C 25.76114 27.75562 0.00733
C 25.79768 26.33866 -0.00178
C 24.63537 25.53619 0.00768
C 24.61217 24.0637 -0.0276
C 25.93517 23.4529 0.03005
C 25.8587 22.09155 -0.04078
C 24.57553 21.30767 0.02117
C 24.54795 29.80903 -0.01971
C 24.57126 19.98894 0.02737
C 25.8794 17.83431 0.00135
C 25.97919 10.61054 0.03102
C 25.71257 9.27513 0.02555
C 24.66172 8.46094 0.01423
C 24.4085 7.13236 -0.00285
C 25.80464 6.41573 -0.009
C 25.8266 4.97174 -0.01199
C 24.62005 4.21967 -0.00229
C 25.69336 19.22536 -0.00498
C 24.50852 2.75495 -0.00938
C 25.76636 30.56279 -0.01586
C 24.49576 32.64075 0.00071
C 23.31967 31.96265 0.01511
C 23.32471 30.50056 -0.00478
C 22.10819 29.70803 -0.01662
C 22.05181 28.35636 -0.01185
C 23.29172 27.6056 0.01126
C 23.39544 26.24191 0.01852
C 22.15126 25.55525 -0.00381
C 22.14781 24.10249 0.03046
C 25.8312 32.01316 -0.01107
C 23.34149 23.39569 0.0296
C 22.07274 21.28056 -0.02845
C 23.28117 6.3309 -0.03213
C 23.3971 4.93429 0.02239
C 22.10703 4.35467 0.01153
C 22.05917 2.91984 0.02734
C 23.23678 2.11549 -0.0055
C 23.25991 0.70589 0.01515
C 22.04151 34.04141 -0.00225
C 23.29615 21.934 0.03374
C 19.68167 0.0119 0.01087
C 25.77883 2.09628 -0.0264
C 24.54547 0.00942 0.00684
C 28.25965 9.18604 -0.00621
C 26.99458 8.41334 0.02611
C 27.08041 7.02297 0.02198
C 28.30787 6.36053 0.01094
C 28.32602 4.93955 0.00235
C 27.06487 4.27767 0.01495
C 27.07894 2.82557 0.01259
C 28.27571 2.15965 0.01799
C 28.30277 10.57474 0.00194
C 28.313 0.66777 0.01699
C 29.58765 32.61295 0.01177
C 30.73987 31.82731 0.04266
C 30.75467 30.45106 0.01324
C 29.5239 29.7548 0.0014
C 29.44765 28.36848 0.00924
C 30.66902 27.68434 0.02326
C 30.73745 26.25934 0.00261
C 29.55111 25.64606 0.03265
C 27.05319 34.07481 -0.00416
C 25.72764 0.70011 -0.01154
C 27.00634 11.41331 0.04185
C 28.21418 13.48756 0.01257
C 27.10353 32.66036 -0.01052
C 28.30928 31.96207 -0.01679
C 28.30576 30.46608 0.00367
C 26.97511 29.85704 0.04306
C 26.97778 28.42687 0.00996
C 28.22593 27.75455 0.00195
C 28.23815 26.30379 -0.00802
C 27.05598 25.60957 -0.00218
C 27.11165 12.8209 0.02316
C 27.1209 24.21622 -0.01654
C 28.30771 22.07518 -0.0032
C 27.08487 21.42542 0.00622
C 27.12407 19.91224 -0.02815
C 28.30654 19.18008 -0.00942
C 28.30146 17.76383 0.00487
C 26.85072 16.96122 0.00826
C 27.12777 15.63311 -0.00294
C 28.28182 14.95939 0.00152
C 28.284 23.51746 -0.00037
C 2.40046 32.73163 0.01305
