361
Graphene
C 0.0234 0.06784 0.01295
C 9.85419 11.32128 0.02058
C 11.05116 10.694 -0.01957
C 11.06332 9.28267 -0.0108
C 9.88841 8.49184 -0.00368
C 9.89249 7.14255 -0.02696
C 11.10172 6.40027 -0.00114
C 10.98895 4.93455 0.00228
C 9.7805 4.23606 0.00798
C 9.79405 12.64063 0.01965
C 9.83949 2.78981 0.00422
C 11.12645 0.70808 -0.03113
C 9.87024 34.05526 0.02098
C 12.34604 32.65324 0.01848
C 13.57965 31.94947 -0.00619
C 13.48994 30.59869 -0.02162
C 12.3092 29.79284 0.00889
C 12.29256 28.33912 -0.00481
C 13.45728 27.64407 0.00979
C 11.13462 2.06364 0.0351
C 10.98664 13.44818 -0.03682
C 11.05918 14.94025 0.00052
C 9.82457 15.5754 0.00374
C 8.56828 2.19356 -0.00925
C 8.54548 0.78693 0.01877
C 7.39368 0.05464 0.01363
C 9.87884 32.69118 -0.02162
C 11.12968 31.965 0.00415
C 11.08415 30.54031 -0.0014
C 9.8274 29.83099 0.02162
C 9.84198 28.39574 0.0076
C 11.0878 27.70626 0.01241
C 11.08827 26.35507 -0.01454
C 9.82438 25.60863 0.01945
C 9.80658 24.20664 0.01416
C 11.09082 23.38467 0.03542
C 11.07415 21.99456 0.02299
C 9.89181 21.33216 0.00244
C 9.93176 19.87051 -0.01717
C 11.04329 19.09593 0.05265
C 11.06263 17.74598 -0.01952
C 9.84727 16.9912 -0.02813
C 13.45903 26.23971 0.01443
C 7.37343 2.8553 0.00444
C 12.37568 25.54967 0.03505
C 13.55371 23.47753 -0.04147
C 16.00627 31.97613 0.00755
C 15.94003 30.61287 -0.0054
C 14.72668 29.85196 0.00667
C 14.69641 28.32911 0.00143
C 15.98873 27.67395 -0.017
C 15.98876 26.34737 0.00364
C 14.82963 25.52169 -0.00831
C 14.68186 24.18762 -0.02957
C 14.7512 32.68073 0.01739
C 14.72331 21.27329 -0.04422
C 14.88979 15.71391 -0.00703
C 15.96604 14.85238 -0.04076
C 16.05837 13.5162 -0.00652
C 14.7694 12.74166 0.0058
C 14.7823 11.32093 -0.00865
C 15.91865 10.6107 0.00675
C 15.9719 9.21513 -0.00311
C 14.77968 8.44043 0.00742
C 14.78172 16.98594 0.00654
C 12.27506 0.00827 0.03754
C 13.49392 0.70946 -0.03557
C 13.50075 2.14926 -0.00111
C 13.47586 22.04788 -0.05302
C 12.29101 21.33142 0.00213
C 12.30337 19.86179 -0.00066
C 13.55075 19.17977 -0.00289
C 13.60485 17.77299 0.00028
C 12.3115 17.07386 -0.02213
C 12.3107 15.65673 0.03698
C 13.56556 14.92121 -0.00109
C 13.53608 13.47893 -0.00491
C 12.29732 12.72095 0.03338
C 12.25096 11.32305 -0.0258
C 13.51331 10.64999 -0.0331
C 13.57072 9.23269 -0.00316
C 12.26725 8.54163 0.02188
C 12.24901 7.13544 -0.01979
C 13.54292 6.37074 0.02691
C 13.48232 4.92763 -0.01581
C 12.24598 4.27129 0.01452
C 12.28238 2.85034 0.04892
C 12.33299 24.12193 -0.02815
C 7.33043 4.24071 -0.01789
C 8.56896 4.91467 0.02894
C 8.57151 6.36107 -0.02971
C 3.70274 6.38822 0.0127
C 3.65169 4.96746 0.01396
C 2.48258 4.24687 0.01849
C 2.51367 2.87451 -0.01142
C 3.69165 2.17275 -0.00562
C 3.70367 0.6785 -0.00494
C 2.44304 0.00699 0.00054
C 4.89604 32.67961 0.03007
C 2.45967 7.174 0.02635
C 6.15841 31.91189 -0.00095
C 4.88339 29.84473 -0.04848
C 4.85613 28.43956 -0.00892
C 6.11065 27.71921 -0.01362
C 6.14622 26.28661 -0.0008
C 4.92207 25.60847 0.0288
C 4.92926 24.09577 0.00393
C 6.13594 23.45598 0.00895
C 6.17289 22.0277 0.00685
C 6.1344 30.51825 0.01572
C 2.42931 8.59555 -0.01378
C 3.70216 9.27641 -0.01303
C 3.69694 10.63724 0.00848
C 3.62564 30.54985 -0.03113
C 2.41474 29.84013 -0.02566
C 2.48812 28.32865 -0.00094
C 3.74338 27.6968 0.02322
C 3.68288 26.2651 -0.00725
C 2.55096 25.5301 -0.05697
C 2.46459 24.1366 0.01087
C 3.62732 23.44603 -0.01343
C 3.64945 22.09232 0.00988
C 2.44374 21.33185 0.0276
C 2.47939 19.87972 0.01305
C 3.67636 19.18599 -0.00077
C 3.73556 17.73812 0.03368
C 2.44919 16.9992 -0.02929
C 2.47663 15.58004 -0.00966
C 3.6062 14.8832 -0.03337
C 3.65722 13.56504 0.01227
C 2.42034 12.82645 0.00873
C 2.433 11.40361 -0.00049
C 4.95383 21.35794 0.02888
C 4.92185 19.7967 -0.00482
C 6.19729 19.18274 -0.01384
C 6.19311 17.7726 0.03693
C 8.58162 26.2974 -0.02759
C 7.34357 25.55822 0.0402
C 7.33471 24.11067 0.00572
C 8.58672 23.41808 0.03592
C 8.66434 22.00905 0.00406
C 7.39234 21.29717 0.00943
C 7.37858 19.90134 0.02841
C 8.63211 19.27703 -0.01111
C 8.58383 17.76384 -0.01275
C 7.44281 17.04697 0.00985
C 7.44357 15.63196 -0.02245
C 8.63351 14.91894 -0.00428
C 8.55407 13.34787 0.03101
C 7.3321 12.76056 -0.01536
C 7.33298 11.37006 -0.02689
C 8.54124 10.56979 -0.01046
C 8.61703 9.21452 -0.00891
C 7.36973 8.57654 0.02819
C 7.36275 7.14255 0.00165
C 8.63176 27.64251 0.03589
C 14.77371 7.15421 -0.01594
C 7.35336 28.43883 -0.00033
C 8.64334 30.57357 0.01364
C 4.92219 17.043 0.01745
C 4.89838 15.60652 0.00488
C 6.19159 14.9767 -0.01004
C 6.12545 13.51426 -0.02896
C 4.87589 12.83742 -0.00131
C 4.93451 11.38334 -0.01118
C 6.16738 10.69462 -0.014
C 6.17196 9.28738 0.02147
C 4.96372 8.60424 0.00373
C 4.88435 7.20142 -0.00191
C 6.10037 6.46963 0.00438
C 6.15279 5.00871 0.01291
C 4.83757 4.26558 0.00093
C 4.92479 2.88204 0.00057
C 6.17043 2.11285 -0.01634
C 6.16704 0.71048 -0.00334
C 4.92649 0.0268 0.02339
C 7.36271 32.70373 0.01641
C 8.61898 31.98753 -0.00719
C 7.30503 29.8254 -0.01062
C 3.6328 31.99869 0.017
C 14.72411 2.78468 0.0106
C 15.9967 0.66917 -0.01721
C 31.90666 32.70625 0.01713
C 33.15034 32.00029 -0.01694
C 33.25945 30.60034 0.01428
C 32.01726 29.79713 -0.02142
C 31.94423 28.41048 0.0544
C 33.14572 27.67357 0.00026
C 33.21243 26.26711 0.00682
C 31.95296 25.6105 -0.01779
C 29.3957 34.05991 0.00346
C 31.89063 24.12216 0.03794
C 33.17212 21.96592 0.01574
C 31.98284 21.27099 -0.02383
C 31.9144 19.9947 -0.01429
C 33.18207 19.21683 -0.0136
C 33.1905 17.7167 0.00594
C 31.98491 17.03941 -0.02474
C 31.94782 15.67005 0.00369
C 33.2794 14.89477 0.00455
C 33.2307 23.47967 0.01927
C 30.69512 0.67228 0.00307
C 30.72129 2.13275 0.00716
C 29.48546 2.81124 0.02108
C 30.67031 32.00204 -0.01854
C 30.82233 30.53074 -0.01415
C 29.54963 29.76888 -0.03039
C 29.55973 28.35726 0.01836
C 30.7711 27.71446 0.03531
C 30.6909 26.29786 -0.00669
C 29.54121 25.59313 0.0101
C 30.74537 23.41165 0.01705
C 30.80055 14.8973 -0.0405
C 30.6586 13.57728 -0.01303
C 29.57392 12.78203 -0.01461
C 29.54944 11.30002 -0.02155
C 30.78739 10.63038 -0.00944
C 30.76322 9.19279 -0.03735
C 29.50663 8.57142 -0.00971
C 29.51145 7.07162 0.01518
C 30.6876 6.37783 0.01908
C 30.76114 4.91897 0.07705
C 29.46348 4.23011 0.0103
C 33.16815 13.50034 -0.00644
C 29.45076 32.64786 -0.02049
C 31.93119 12.81173 -0.01839
C 33.15591 10.68658 0.00199
C 1.2577 19.09465 -0.01678
C 1.27892 17.71732 0.01223
C 0.00266 17.06991 0.00648
C 0.08419 15.59212 0.02114
C 1.23856 14.8417 -0.02957
C 1.24184 13.47373 0.00343
C 0.04083 12.75896 -0.02656
C 34.38286 11.33591 -0.02442
C 0.02805 19.84932 0.01951
C 1.21485 10.66972 -0.00027
C 34.41735 8.56704 -0.02302
C 0.00331 7.18026 -0.02849
C 1.22188 6.4188 0.02931
C 1.26937 5.01647 0.00628
C 34.40866 4.28502 -0.0345
C 0.00052 2.81858 -0.00931
C 1.25613 2.14338 -0.00939
C 1.28896 0.78151 -0.00468
C 1.23149 9.27434 -0.00583
C 34.40383 21.24228 -0.02213
C 1.20028 22.05993 0.02712
C 1.23298 23.46189 0.00723
C 33.22177 9.28522 0.04381
C 31.91501 8.45768 0.02806
C 31.92507 7.05156 0.01504
C 33.18803 6.39687 -0.00069
C 33.26319 4.97791 0.04926
C 31.92228 4.23536 -0.03838
C 31.90415 2.82337 0.00349
C 33.17592 2.08551 -0.00323
C 33.16787 0.6989 -0.00841
C 31.93988 34.02239 0.0001
C 34.42443 32.75455 -0.02927
C 1.21253 31.99904 -0.01404
C 1.21754 30.5475 0.01027
C 0.01746 29.81869 0.01831
C 34.35684 28.35508 -0.01037
C 1.16075 27.7187 -0.00439
C 1.24088 26.28115 -0.00598
C 0.04861 25.51919 -0.05239
C 0.01271 24.14234 0.03076
C 31.92224 11.4313 0.00137
C 27.05304 0.02762 0.03265
C 28.26266 0.76851 0.00261
C 28.25116 2.16555 0.02326
C 19.64411 29.82045 -0.00225
C 19.56497 28.42286 0.00071
C 19.65927 11.32058 -0.01107
C 20.92091 10.69788 -0.01586
C 20.86318 9.17573 -0.01971
C 19.66898 8.50348 -0.02118
C 19.63057 7.09437 0.00733
C 20.88304 6.49901 -0.00178
C 20.88146 30.48775 0.01515
C 20.90642 4.95161 0.00768
C 19.61551 2.83086 0.03005
C 20.89107 2.16377 -0.04078
C 20.93853 0.71351 0.02117
C 19.60329 34.00368 0.02737
C 22.09858 32.68359 -0.00498
C 23.37884 31.94104 0.00135
C 23.32022 30.50464 0.03102
C 22.08777 29.79879 0.02555
C 19.69025 4.20199 -0.0276
C 20.91899 31.93678 -0.0055
C 19.68743 32.65494 0.02734
C 17.19861 34.06508 0.01153
C 14.77107 34.02226 -0.02422
C 17.18983 32.6446 0.01277
C 18.39915 31.93436 0.00096
C 18.43514 30.51033 -0.01527
C 17.26547 29.80538 0.01087
C 17.19033 28.42608 0.00199
C 18.42059 27.73917 0.01511
C 17.13203 12.67707 -0.00478
C 17.20315 11.30413 -0.01662
C 18.42776 10.65095 -0.01185
C 18.46939 9.21155 0.01126
C 17.23903 8.4765 0.01852
C 17.05626 7.11973 -0.00381
C 18.30736 6.32064 0.03046
C 18.43186 4.91253 0.0296
C 17.25166 4.19337 0.03374
C 17.26925 2.80139 -0.02845
C 18.49553 2.09482 -0.03213
C 18.48832 0.65564 0.02239
C 22.1024 28.43011 0.01423
C 22.16286 11.20567 -0.00285
C 23.3424 10.65943 -0.009
C 23.32235 9.25342 -0.01199
C 24.66838 2.76596 0.01257
C 25.92824 2.06721 0.02316
C 25.80186 0.64259 0.04185
C 24.60411 34.05005 0.00194
C 27.07992 32.66045 -0.00621
C 28.26191 31.90177 0.02611
C 28.34634 30.52441 0.02198
C 27.00934 29.82834 0.01094
C 27.07284 28.34657 0.00235
C 28.37666 27.67102 0.01495
C 27.14787 11.3691 0.01259
C 28.30939 10.70709 0.01799
C 28.28228 9.26132 0.01699
C 27.08167 8.43708 -0.00416
C 27.04173 7.06611 0.01177
C 28.28991 6.41916 0.04266
C 28.24388 5.02213 0.01324
C 27.01121 4.26998 0.0014
C 27.0713 2.85688 0.00924
C 24.59316 4.27903 0.00152
C 15.97643 2.12166 -0.01154
C 25.84747 4.97714 -0.00294
C 24.56438 7.17298 0.00487
C 22.1326 8.50554 -0.00229
C 22.14974 7.15003 -0.00938
C 23.41958 6.40326 -0.0264
C 23.38916 4.94266 -0.01154
C 22.06657 4.20906 0.00684
C 22.15743 2.8546 -0.01052
C 23.37284 2.12195 -0.01679
C 23.53628 0.75313 0.00367
C 22.12817 0.06129 0.04306
C 24.61167 32.64397 0.00996
C 25.83651 31.9437 0.00195
C 25.72827 30.5343 -0.00802
C 24.48041 29.81375 -0.00218
C 24.62022 28.366 -0.01654
C 25.66315 27.76537 -0.00037
C 24.62254 11.29135 -0.0032
C 25.74535 10.61524 0.00622
C 25.82618 9.19489 -0.02815
C 24.54992 8.55246 -0.00942
C 25.7663 6.37808 0.00826
C 2.40216 32.71374 -0.00643
