385
Graphene
C 0.00613 0.03291 0.01295
C 14.76357 8.55749 0.02162
C 14.69875 7.13069 0.0076
C 15.91753 6.43752 0.01241
C 15.9924 5.0762 -0.01454
C 14.80974 4.30264 0.01945
C 14.78803 2.87283 0.01416
C 15.96781 2.08439 0.03542
C 15.88031 0.62771 0.02299
C 14.71106 34.05916 0.00244
C 15.9754 9.27677 -0.0014
C 17.22882 32.64915 -0.01717
C 18.49637 30.52961 -0.01952
C 17.26998 29.81989 -0.02813
C 17.21797 28.45409 0.00374
C 18.48979 27.66968 0.00052
C 18.41711 26.20076 -0.03682
C 17.19516 25.52273 0.01965
C 17.25005 24.0943 0.02058
C 18.43629 23.33322 -0.01957
C 18.42535 21.93545 -0.0108
C 18.44619 31.89024 0.05265
C 17.15896 21.31717 -0.00368
C 15.91473 10.69014 0.00415
C 14.65813 12.94872 0.01363
C 12.33085 0.09484 0.00943
C 14.81407 32.55407 0.02841
C 16.07321 31.96246 -0.01111
C 16.02194 30.51105 -0.01275
C 14.74876 29.79475 0.00985
C 14.73019 28.38326 -0.02245
C 16.01987 27.7157 -0.00428
C 15.99811 26.27905 0.03101
C 14.8107 25.57998 -0.01536
C 14.68671 11.49375 -0.02162
C 14.80359 24.17927 -0.02689
C 15.9818 22.01736 -0.00891
C 14.70688 21.29559 0.02819
C 14.91091 19.95186 0.00165
C 15.98073 19.14289 -0.02971
C 15.91982 17.70352 0.02894
C 14.8557 16.8259 -0.01789
C 14.66121 15.58895 0.00444
C 15.9882 14.92192 -0.00925
C 16.0476 13.51155 0.01877
C 15.96658 23.34464 -0.01046
C 13.57357 0.74295 0.00406
C 17.18521 19.86182 -0.02696
C 18.47 17.77726 0.00228
C 19.68222 25.48736 0.03338
C 19.64735 24.0496 -0.0258
C 20.88853 23.39093 -0.0331
C 20.93212 21.97977 -0.00316
C 19.65366 21.29893 0.02188
C 19.64712 19.90609 -0.01979
C 20.95693 19.19748 0.02691
C 20.97144 17.7251 -0.01581
C 19.71605 17.08383 0.01452
C 20.90059 26.1893 -0.00491
C 19.69688 15.64956 0.04892
C 20.87526 13.48603 -0.03557
C 19.64708 12.73717 0.03754
C 19.66828 11.33589 0.01739
C 20.98601 10.60233 0.00755
C 20.93719 9.15677 -0.0054
C 19.67893 8.51968 0.00667
C 19.59506 7.15761 0.00143
C 20.84164 6.42821 -0.017
C 20.79727 4.92641 0.00364
C 20.89733 14.84933 -0.00111
C 18.41627 19.24473 -0.00114
C 20.86737 27.64836 -0.00109
C 19.69079 29.77506 -0.02213
C 17.19049 17.10904 0.00798
C 17.25835 15.6377 0.00422
C 18.4325 14.94491 0.0351
C 18.44433 13.51313 -0.03113
C 17.24805 12.74298 0.02098
C 17.17808 11.32798 0.01848
C 18.40327 10.64118 -0.00619
C 18.44575 9.23156 -0.02162
C 17.2309 8.55724 0.00889
C 19.71347 28.35716 0.03698
C 17.1968 7.12227 -0.00481
C 18.33303 4.9386 0.01443
C 17.20111 4.24207 0.03505
C 17.18535 2.78539 -0.02815
C 18.39121 2.0507 -0.04147
C 18.45666 0.61615 -0.05302
C 17.20556 0.01526 0.00213
C 19.68593 32.59375 -0.00066
C 20.85651 31.85759 -0.00289
C 20.94229 30.45757 0.00028
C 18.38251 6.39335 0.00979
C 13.56812 2.17197 0.03592
C 12.31914 2.86383 0.00572
C 12.30707 4.32064 0.0402
C 6.13792 27.68763 -0.03113
C 6.23751 26.13529 -0.02566
C 4.93305 25.72134 -0.00094
C 6.12506 9.03373 0.02322
C 4.87007 8.60143 -0.00725
C 4.8476 7.07478 -0.05697
C 6.07739 6.43525 0.01087
C 6.11171 5.03814 -0.01343
C 4.95363 4.29171 0.00988
C 4.90776 28.388 0.017
C 4.90928 2.87276 0.0276
C 6.11732 0.76709 -0.00077
C 4.91732 0.00368 0.03368
C 7.27443 32.73511 -0.02929
C 8.54186 32.01716 -0.00966
C 8.53208 30.59257 -0.03337
C 7.30321 29.85355 0.01227
C 7.33393 28.367 0.00873
C 8.60027 27.72736 -0.00049
C 8.66203 26.21414 0.00848
C 6.13165 2.18983 0.01305
C 7.45005 25.56857 -0.01303
C 4.87275 29.846 -0.00643
C 6.0796 31.99546 -0.00518
C 3.68934 30.58482 0.03189
C 2.47182 29.84703 0.00031
C 2.47429 28.39947 -0.003
C 3.73966 27.67545 0.01402
C 3.66154 26.26321 0.02379
C 2.41833 25.52813 0.00907
C 2.54515 24.16718 0.00643
C 2.37334 11.21913 -0.01509
C 3.51753 10.82981 0.03267
C 6.05485 30.52604 0.0086
C 3.67785 9.35777 0.02374
C 2.442 7.02361 0.0073
C 3.67975 6.40461 0.0174
C 3.70499 4.97981 0.03828
C 2.44712 4.34482 0.01226
C 2.51173 2.89127 -0.00279
C 3.6475 2.12841 0.01996
C 3.66339 0.68899 -0.03996
C 2.40122 34.05787 0.01465
C 4.85847 32.69896 -0.00074
C 2.48089 8.53622 0.00402
C 8.68051 9.28881 -0.01378
C 7.41613 8.76231 0.02635
C 7.28004 7.15092 0.0127
C 9.86578 0.03151 -0.00131
C 12.32324 32.73411 -0.01118
C 13.58225 31.87762 -0.014
C 13.47882 30.48955 0.02147
C 12.16734 29.79142 0.00373
C 12.24602 28.35881 -0.00191
C 13.45517 27.69138 0.00438
C 13.50875 26.20961 0.01291
C 12.20799 25.51979 0.00093
C 11.11935 0.76711 -0.02896
C 12.29005 24.21678 0.00057
C 13.60295 22.07875 -0.00334
C 13.4627 13.63225 0.02339
C 12.34477 11.39068 0.01641
C 13.53262 10.72662 -0.00719
C 13.61438 9.26806 0.01364
C 12.31674 8.53937 -0.01062
C 12.25653 7.16282 -0.00033
C 13.48024 6.42875 0.03589
C 13.55866 5.03137 -0.02759
C 13.51139 23.40174 -0.01634
C 11.07047 2.22118 -0.01004
C 9.81632 2.9382 0.00488
C 9.81861 4.39154 0.01745
C 8.5021 6.4703 0.01396
C 8.49024 5.03518 0.01849
C 7.32537 4.28857 -0.01142
C 7.37722 2.86637 -0.00562
C 8.63213 2.19017 -0.00494
C 8.63349 0.71605 0.00054
C 7.36863 0.08977 0.03007
C 9.8544 32.69383 -0.00095
C 11.10299 31.96974 0.01572
C 11.00556 30.56873 -0.04848
C 9.73665 29.81636 -0.00892
C 9.84036 28.40718 -0.01362
C 11.03591 27.70423 -0.0008
C 11.03894 26.29137 0.0288
C 9.91224 25.61065 0.00393
C 11.28078 10.7203 0.00895
C 11.09631 9.29569 0.00685
C 9.80797 8.60247 0.02888
C 9.78843 7.13138 -0.00482
C 11.02927 6.47097 -0.01384
C 11.06766 5.02662 0.03693
C 19.57962 4.22168 -0.00831
C 3.66068 32.05288 -0.04307
C 19.65258 2.80804 -0.02957
C 20.92391 0.61983 0.00654
C 29.50128 7.10986 0.0103
C 30.70888 6.39698 0.02108
C 30.69082 5.012 0.00716
C 29.43486 4.25351 0.00307
C 29.48631 2.8254 0.00346
C 30.75322 2.15678 0.01713
C 30.76457 0.71294 -0.01694
C 29.54864 0.02834 0.01428
C 31.86841 32.65953 -0.02142
C 29.42752 8.52317 0.07705
C 33.13545 32.012 0.0544
C 32.03399 29.79457 0.00682
C 32.01226 28.37805 -0.01779
C 33.23008 27.66254 0.03794
C 33.15324 26.27584 0.01927
C 31.93784 25.60266 0.01574
C 31.98768 24.17311 -0.02383
C 33.23153 23.38854 -0.01429
C 33.21419 21.95999 -0.0136
C 31.99 21.24944 0.00594
C 33.18754 30.57212 0.00026
C 31.96482 19.8346 -0.02474
C 30.69937 9.17268 0.01908
C 29.50034 11.34897 -0.00971
C 29.5274 32.64908 0.0014
C 30.6924 31.9337 0.00924
C 30.73088 30.46878 0.02326
C 29.48803 29.74151 0.00261
C 29.47156 28.3696 0.03265
C 30.71642 27.69505 -0.02049
C 30.70432 26.25845 -0.01854
C 29.5048 25.54438 -0.01415
C 29.49094 24.17302 -0.03039
C 30.72615 10.65789 0.01518
C 30.76389 23.54372 0.01836
C 29.54857 21.32821 -0.00669
C 29.60018 19.86367 0.0101
C 30.79467 19.11975 0.01705
C 30.69486 17.66002 -0.0405
C 29.50074 16.99154 -0.01303
C 29.52369 15.58805 -0.01461
C 30.71849 14.90494 -0.02155
C 30.68403 13.52538 -0.00944
C 29.47147 12.76637 -0.03735
C 30.76352 22.07563 0.03531
C 27.03787 0.02522 0.01324
C 33.17996 19.14516 0.00369
C 31.96146 16.97516 -0.00644
C 34.42998 24.13007 -0.02213
C 1.35133 23.43864 0.01951
C 1.20828 22.06466 -0.01678
C 0.2127 21.20357 0.01223
C 0.00506 19.88331 0.00648
C 34.38517 16.94674 0.02114
C 34.39603 15.71827 -0.02957
C 1.15234 13.56344 0.00343
C 0.01953 12.86242 -0.02656
C 34.38607 25.54248 0.02712
C 34.38532 11.27374 -0.02442
C 1.21802 9.18927 -0.00583
C 34.40014 8.5227 -0.02302
C 34.36457 7.05481 -0.02849
C 1.20179 6.42599 0.02931
C 1.19951 4.97781 0.00628
C 34.37647 4.32326 -0.0345
C 34.40015 2.83888 -0.00931
C 1.21349 2.16836 -0.00939
C 1.21745 0.7785 -0.00468
C 1.14558 10.56919 -0.00027
C 33.18638 17.76455 0.00455
C 1.15422 26.259 0.00723
C 0.01851 28.36964 -0.05239
C 32.01284 15.58191 -0.01839
C 33.28263 14.93322 0.00137
C 33.20081 13.49788 0.00199
C 31.93915 12.84251 0.04381
C 31.90432 11.41105 0.02806
C 33.14869 10.66279 0.01504
C 33.17703 9.27355 -0.00069
C 31.98151 8.50223 0.04926
C 31.95527 7.12044 -0.03838
C 1.2413 27.70664 0.03076
C 33.13313 6.31875 0.00349
C 31.91944 4.28424 -0.00841
C 31.95896 2.86392 0.0001
C 33.18899 2.15468 -0.02927
C 33.19408 0.72156 -0.01404
C 31.96291 0.00496 0.01027
C 34.39322 32.72703 0.01831
C 1.13686 31.9177 -0.01037
C 1.19814 30.5541 -0.00439
C 34.4266 29.85438 -0.00598
C 33.15429 4.92936 -0.00323
C 28.26155 0.6942 0.04266
C 28.294 2.13096 0.01177
C 27.04395 2.83797 -0.00416
C 22.16793 8.48029 -0.00381
C 22.14788 7.0561 0.03046
C 23.33879 6.31077 0.0296
C 23.33897 4.93638 0.03374
C 22.06222 4.26102 -0.02845
C 22.11675 2.81543 -0.03213
C 23.38064 2.08428 0.02239
C 23.34803 0.69962 0.01153
C 22.17242 0.00572 0.02734
C 23.37957 9.21358 0.01852
C 24.57426 32.61749 -0.0055
C 25.79153 30.48499 -0.00225
C 24.60541 29.72104 0.00071
C 24.59056 28.3096 -0.01107
C 25.8043 27.66011 -0.01586
C 25.86053 26.21735 -0.01971
C 24.60216 25.5188 -0.02118
C 24.55465 24.09817 0.00733
C 25.80659 23.47876 -0.00178
C 25.87624 22.02284 0.00768
C 25.78542 31.92355 0.01515
C 24.60099 21.30887 -0.0276
C 23.39736 10.66063 0.01126
C 22.17553 12.77437 -0.01662
C 19.69567 34.06484 -0.00703
C 22.07955 32.62994 -0.04076
C 23.26618 31.8663 -0.00652
C 23.39392 30.48375 0.0058
C 22.18422 29.73967 -0.00865
C 22.12336 28.31952 0.00675
C 23.34291 27.64707 -0.00311
C 23.30433 26.25876 0.00742
C 22.10836 25.56029 -0.01594
C 22.20836 11.33766 -0.01185
C 22.0947 24.14877 0.0106
C 23.39897 21.98767 -0.01721
C 22.179 21.3183 -0.02422
C 22.18647 19.92386 0.01277
C 23.42414 19.22264 0.00096
C 23.4128 17.75308 -0.01527
C 22.18134 17.08032 0.01087
C 22.14748 15.60088 0.00199
C 23.38071 14.95722 0.01511
C 23.36098 13.51805 -0.00478
C 23.28671 23.36763 -0.01154
C 24.62026 19.89453 0.03005
C 25.88226 19.21403 -0.04078
C 25.82659 17.77454 0.02117
C 27.08344 24.18289 0.00622
C 28.31708 23.46249 -0.02815
C 28.31298 22.06032 -0.00942
C 27.09407 21.3008 0.00487
C 27.10807 19.8943 0.00826
C 28.35284 19.12571 -0.00294
C 28.32503 17.72834 0.00152
C 26.97468 16.99534 0.01257
C 26.99991 15.62864 0.02316
C 27.04119 25.53486 -0.0032
C 28.22894 14.94723 0.04185
C 27.06529 12.77937 -0.00621
C 27.07975 11.42435 0.02611
C 28.29167 10.65191 0.02198
C 28.17908 9.25622 0.01094
C 26.97774 8.51136 0.00235
C 27.05924 7.09072 0.01495
C 28.2037 6.31322 0.01259
C 28.22411 4.9265 0.01799
C 26.92879 4.26311 0.01699
C 28.23756 13.53033 0.00194
C 28.336 26.37933 -0.00037
C 28.22153 27.6943 -0.01654
C 26.99449 28.39493 -0.00218
C 24.58681 17.04429 0.02737
C 24.60683 15.57745 -0.00498
C 25.80375 14.84177 0.00135
C 25.80012 13.40405 0.03102
C 24.57206 12.80719 0.02555
C 24.6507 11.35321 0.01423
C 25.83009 10.68456 -0.00285
C 25.7749 9.26311 -0.009
C 24.55576 8.54399 -0.01199
C 24.58508 7.06645 -0.00229
C 25.78527 6.38675 -0.00938
C 25.78928 5.01004 -0.0264
C 24.54722 4.26761 -0.01154
C 24.62172 2.83639 0.00684
C 25.82175 2.1565 -0.01052
C 25.76102 0.70314 -0.01679
C 24.59079 34.05246 0.00367
C 27.02055 32.63414 0.04306
C 28.28665 31.94882 0.00996
C 28.25349 30.49759 0.00195
C 26.97332 29.82358 -0.00802
C 20.87709 2.09379 -0.04422
C 2.38396 32.67457 0.03284
