353
Graphene
C 34.4219 0.05393 0.01295
C 14.69927 16.93281 -0.00114
C 15.81926 15.1984 0.00228
C 15.94829 6.35267 0.00798
C 15.94798 5.05315 0.00422
C 14.81395 4.23278 0.0351
C 14.76937 2.86197 -0.03113
C 15.99918 2.13257 0.02098
C 15.97609 0.65776 0.01848
C 15.96438 17.80028 -0.02696
C 14.71353 34.05313 -0.00619
C 18.50396 31.90698 0.00889
C 18.48536 30.53465 -0.00481
C 17.2526 29.80039 0.00979
C 17.22067 28.40748 0.01443
C 18.44333 27.58046 0.03505
C 18.42936 26.22144 -0.02815
C 17.20956 25.49372 -0.04147
C 17.2185 24.03053 -0.05302
C 17.26245 32.65759 -0.02162
C 18.45906 23.33645 0.00213
C 15.95579 19.08295 -0.00368
C 14.74511 21.26518 -0.01957
C 12.15565 19.86122 0.02162
C 13.47797 19.17392 0.0076
C 13.76994 17.92591 0.01241
C 12.45363 2.91655 -0.01454
C 13.58019 2.15045 0.01945
C 13.5147 0.74778 0.01416
C 12.24421 0.07174 0.03542
C 14.73992 32.62346 0.02299
C 14.68059 19.82641 -0.0108
C 16.02542 31.87525 0.00244
C 14.8364 29.79364 0.05265
C 14.76902 28.31548 -0.01952
C 15.96455 27.69573 -0.02813
C 16.02404 26.23013 0.00374
C 14.75927 25.48332 0.00052
C 14.7448 24.12239 -0.03682
C 15.96182 23.34877 0.01965
C 16.00374 21.89265 0.02058
C 16.06023 30.53992 -0.01717
C 12.3054 21.34317 -0.0014
C 18.44436 21.94916 -0.00066
C 17.14785 19.83219 0.00028
C 19.69905 29.83603 -0.017
C 19.63873 28.46727 0.00364
C 20.87916 27.65718 -0.00831
C 20.82003 26.25064 -0.02957
C 19.62984 25.53721 -0.04422
C 19.62095 24.11307 0.00654
C 20.83406 23.33736 -0.00703
C 20.91006 21.99641 -0.04076
C 20.90338 30.54363 0.00143
C 19.71146 21.26001 -0.00652
C 20.91777 19.15842 -0.00865
C 20.909 17.67562 0.00675
C 19.70231 17.03962 -0.00311
C 19.66627 15.63489 0.00742
C 20.87643 14.89433 -0.01594
C 20.82184 13.51556 0.0106
C 19.64813 12.74873 -0.01154
C 19.60766 11.32238 -0.01721
C 19.68052 19.87699 0.0058
C 17.2007 21.28817 -0.00289
C 20.94938 31.95771 0.00667
C 17.21636 34.02774 0.00755
C 18.44598 19.14379 -0.02213
C 18.53253 17.72613 0.03698
C 17.19505 17.02718 -0.00109
C 17.14593 15.63036 -0.00491
C 18.40765 14.949 0.03338
C 18.42905 13.54425 -0.0258
C 17.24537 12.82395 -0.0331
C 17.30106 11.54181 -0.00316
C 19.72169 32.66327 -0.0054
C 18.26811 10.64036 0.02188
C 17.18458 8.46462 0.02691
C 17.14733 7.0892 -0.01581
C 18.44303 6.36312 0.01452
C 18.40309 4.91033 0.04892
C 17.22803 4.25748 -0.00111
C 17.18253 2.81111 -0.03557
C 18.40982 2.09797 0.03754
C 18.37497 0.7237 0.01739
C 18.28972 9.25418 -0.01979
C 13.5185 21.99976 0.00415
C 13.51611 23.44362 -0.02162
C 12.3556 24.13475 0.01363
C 4.82491 32.66224 0.03007
C 6.1009 31.91376 -0.00095
C 6.15541 30.52061 0.01572
C 4.90947 29.84659 -0.04848
C 4.86364 28.42467 -0.00892
C 6.08325 27.70156 -0.01362
C 6.21419 26.27995 -0.0008
C 4.97 25.58675 0.0288
C 2.39711 0.06028 0.00054
C 4.97297 24.16692 0.00393
C 6.1166 22.03747 0.00685
C 4.89324 21.38361 0.02888
C 4.87852 19.92283 -0.00482
C 6.06745 19.27825 -0.01384
C 4.71695 4.20821 0.03693
C 4.95293 2.85611 0.01745
C 6.12988 2.13087 0.00488
C 6.10487 0.78568 -0.01004
C 6.19386 23.45717 0.00895
C 4.89456 0.00488 -0.02896
C 3.65649 0.70934 -0.00494
C 2.44922 2.82535 -0.01142
C 3.60305 30.54089 0.00988
C 2.40065 29.82698 0.0276
C 2.46722 28.40252 0.01305
C 3.69373 27.63637 -0.00077
C 3.69027 26.29803 0.03368
C 2.4448 25.51391 -0.02929
C 2.49943 24.14086 -0.00966
C 3.67458 23.43717 -0.03337
C 3.66307 2.20494 -0.00562
C 3.69193 22.04299 0.01227
C 2.39368 19.87708 -0.00049
C 3.59912 19.22558 0.00848
C 3.64345 17.87583 -0.01303
C 2.58038 16.98618 -0.01378
C 2.38361 15.67667 0.02635
C 2.35435 6.98047 0.0127
C 3.54504 4.98994 0.01396
C 2.44188 4.33432 0.01849
C 2.42758 21.31021 0.00873
C 7.27798 32.6873 -0.00131
C 8.53713 32.01235 -0.01118
C 8.60199 30.61307 -0.014
C 9.9034 24.18019 -0.01111
C 11.11004 23.46279 -0.01275
C 11.02388 22.00825 0.00985
C 9.81727 21.32786 -0.02245
C 9.8642 19.88489 -0.00428
C 11.03442 19.072 0.03101
C 9.89791 2.7567 -0.01536
C 11.1802 2.31746 -0.02689
C 9.83182 25.61632 0.02841
C 10.99575 0.74388 -0.01046
C 12.27115 32.70476 0.02819
C 13.49932 31.99161 0.00165
C 13.55243 30.59028 -0.02971
C 12.30648 29.83317 0.02894
C 12.29464 28.39196 -0.01789
C 13.54655 27.70031 0.00444
C 13.54956 26.21226 -0.00925
C 12.29157 25.54916 0.01877
C 9.77458 0.14202 -0.00891
C 11.02333 26.30345 0.00943
C 11.06178 27.71388 0.00406
C 9.84906 28.45929 0.03592
C 7.43226 29.88063 0.02147
C 7.42316 28.41977 0.00373
C 8.64873 27.68743 -0.00191
C 8.62272 26.26071 0.00438
C 7.41541 25.62678 0.01291
C 7.41415 24.21409 0.00093
C 8.58918 23.45317 0.00057
C 8.57013 22.03741 -0.01634
C 7.3614 21.29803 -0.00334
C 7.29226 19.79686 0.02339
C 8.59642 19.4193 0.01641
C 7.32873 2.97911 -0.00719
C 8.5626 2.41287 0.01364
C 8.55273 0.80905 -0.01062
C 7.33096 0.03252 -0.00033
C 9.71691 32.74982 0.03589
C 11.07804 32.02741 -0.02759
C 11.15371 30.58716 0.0402
C 9.87971 29.89851 0.00572
C 20.84562 10.69866 -0.02422
C 3.55869 31.93856 -0.01343
C 20.88389 9.22046 0.01277
C 19.62145 7.14683 -0.01527
C 30.65008 13.48041 -0.01694
C 29.35765 12.87564 0.01428
C 30.87397 2.03864 -0.02142
C 30.69417 0.75179 0.0544
C 29.55373 0.04437 0.00026
C 31.98759 32.62119 0.00682
C 33.17839 31.89418 -0.01779
C 33.17067 30.54838 0.03794
C 30.71885 14.90559 0.01713
C 31.98012 29.82814 0.01927
C 33.11528 27.6576 -0.02383
C 33.15629 26.22493 -0.01429
C 31.94999 25.60633 -0.0136
C 31.92394 24.16693 0.00594
C 33.17442 23.53181 -0.02474
C 33.19323 22.0198 0.00369
C 31.96916 21.35939 0.00455
C 31.99618 19.9185 -0.00644
C 31.91501 28.414 0.01574
C 33.15663 19.23851 -0.01839
C 29.55667 15.66156 0.00346
C 30.74929 17.73755 0.00716
C 27.09564 2.8744 -0.03039
C 28.1933 2.10548 0.01836
C 28.30971 0.74547 0.03531
C 27.1113 34.00605 -0.00669
C 29.55172 32.64925 0.0101
C 30.71388 31.9696 0.01705
C 30.72648 30.58912 -0.0405
C 29.48594 29.80327 -0.01303
C 29.52855 17.09055 0.00307
C 29.50168 28.38436 -0.01461
C 30.65308 26.2671 -0.00944
C 29.46273 25.56983 -0.03735
C 29.47306 24.13012 -0.00971
C 30.69943 23.39165 0.01518
C 30.66256 22.01898 0.01908
C 29.55286 21.27994 0.07705
C 29.54486 19.8633 0.0103
C 30.78888 19.1745 0.02108
C 30.70106 27.7006 -0.02155
C 27.09958 11.32303 -0.01415
C 33.15615 17.78638 0.00137
C 31.94537 15.63118 0.04381
C 1.24143 19.20764 -0.01678
C 1.23001 17.73683 0.01223
C 34.40899 17.10576 0.00648
C 0.07104 15.61256 0.02114
C 1.41331 14.80903 -0.02957
C 1.24895 13.47453 0.00343
C 0.00106 12.74808 -0.02656
C 0.0647 11.27028 -0.02442
C 34.38095 19.91481 0.01951
C 1.2213 10.58577 -0.00027
C 0.23061 8.48942 -0.02302
C 0.12264 7.17154 -0.02849
C 1.12222 6.31298 0.02931
C 1.07366 4.93815 0.00628
C 34.37219 4.22954 -0.0345
C 34.32032 2.87587 -0.00931
C 1.10236 2.15538 -0.00939
C 1.18948 0.80425 -0.00468
C 1.12933 9.29459 -0.00583
C 31.96825 17.00854 0.00199
C 34.371 21.31223 -0.02213
C 1.20346 23.51498 0.00723
C 33.23598 14.83276 0.02806
C 33.11917 13.46113 0.01504
C 31.88301 12.80262 -0.00069
C 32.10272 11.43967 0.04926
C 33.25983 10.73938 -0.03838
C 31.96827 2.80341 0.00349
C 33.17689 2.23717 -0.00323
C 33.18707 0.74949 -0.00841
C 1.14043 22.08743 0.02712
C 31.90452 0.00825 0.0001
C 1.15199 31.95442 -0.01404
C 1.18811 30.46011 0.01027
C 34.36404 29.76501 0.01831
C 34.36249 28.36516 -0.01037
C 1.22311 27.70104 -0.00439
C 1.23095 26.23939 -0.00598
C 34.40836 25.55463 -0.05239
C 34.37494 24.18682 0.03076
C 34.38705 32.71398 -0.02927
C 27.05205 12.70135 -0.01854
C 28.15757 13.51841 -0.02049
C 28.28298 14.96569 0.03265
C 22.19447 17.03825 -0.01586
C 22.16751 15.6131 -0.01971
C 23.42331 14.90512 -0.02118
C 23.39002 13.52851 0.00733
C 22.13485 12.79039 -0.00178
C 22.15342 11.40762 0.00768
C 23.40991 10.70347 -0.0276
C 23.38249 9.26309 0.03005
C 23.45489 17.74954 -0.01107
C 22.13352 8.54509 -0.04078
C 23.45742 6.33558 0.02737
C 23.39354 4.92153 -0.00498
C 22.11263 4.2583 0.00135
C 22.18433 2.77859 0.03102
C 23.37158 2.08584 0.02555
C 23.37357 0.64791 0.01423
C 22.15637 34.0561 -0.00285
C 24.5932 32.59307 -0.009
C 22.15372 7.12858 0.02117
C 25.84616 31.8149 -0.01199
C 23.4188 19.17563 0.00071
C 22.1597 21.33456 0.01515
C 20.92609 6.46064 0.01087
C 20.916 4.99404 0.00199
C 19.63982 4.24288 0.01511
C 19.63538 2.77923 -0.00478
C 20.90201 2.11943 -0.01662
C 20.89616 0.73894 -0.01185
C 19.63024 0.09239 0.01126
C 22.12069 32.66677 0.01852
C 22.1896 19.88116 -0.00225
C 23.35159 31.97089 -0.00381
C 22.0655 29.90959 0.0296
C 22.05064 28.41845 0.03374
C 23.29442 27.66592 -0.02845
C 23.24858 26.28331 -0.03213
C 22.01654 25.58875 0.02239
C 22.13523 24.0897 0.01153
C 23.32366 23.46762 0.02734
C 23.39958 22.04673 -0.0055
C 23.34158 30.53662 0.03046
C 25.77606 30.43187 -0.00229
C 24.48518 29.74272 -0.00938
C 24.4317 28.33306 -0.0264
C 24.61531 34.0716 0.00194
C 26.99712 32.56747 -0.00621
C 28.29016 31.89151 0.02611
C 28.30148 30.47833 0.02198
C 27.05736 29.78976 0.01094
C 27.04378 28.35916 0.00235
C 28.30329 27.62642 0.01495
C 28.22776 26.2831 0.01259
C 25.87132 0.75125 0.04185
C 27.01838 25.61998 0.01799
C 28.2783 23.40316 -0.00416
C 28.31223 21.97033 0.01177
C 27.11284 21.32548 0.04266
C 27.0188 19.90937 0.01324
C 28.35736 19.19477 0.0014
C 28.30176 17.77628 0.00924
C 27.08318 17.06116 0.02326
C 27.00997 15.63976 0.00261
C 27.02616 24.13445 0.01699
C 25.91995 2.14781 0.02316
C 24.63302 2.83198 0.01257
C 24.52692 4.1218 0.00152
C 25.7459 27.6644 -0.01154
C 25.76653 26.25045 0.00684
C 24.51448 25.62773 -0.01052
C 24.6028 24.22079 -0.01679
C 25.8233 23.45662 0.00367
C 25.88824 22.06806 0.04306
C 24.59525 21.30976 0.00996
C 24.60855 19.85982 0.00195
C 25.82835 19.22264 -0.00802
C 25.88246 17.75152 -0.00218
C 24.65779 17.06076 -0.01654
C 24.61159 15.6702 -0.00037
C 25.91099 14.93326 -0.0032
C 25.82068 13.41683 0.00622
C 24.58792 12.80497 -0.02815
C 24.49083 11.36031 -0.00942
C 25.79048 10.66897 0.00487
C 24.46846 8.50753 0.00826
C 24.50944 7.15376 -0.00294
C 19.62141 8.55216 0.00096
C 2.35711 32.66572 0.01087
