359
Graphene
C 34.34413 0.02479 0.01295
C 12.15743 34.04992 -0.01957
C 14.69144 32.57132 -0.0108
C 15.95523 31.99898 -0.00368
C 15.93051 30.6024 -0.02696
C 14.66888 29.86373 -0.00114
C 14.68534 28.44357 0.00228
C 15.92589 27.66867 0.00798
C 15.86826 26.26761 0.00422
C 13.47022 0.73759 0.02058
C 14.68254 25.53268 0.0351
C 16.00971 23.42495 0.02098
C 16.0099 22.02892 0.01848
C 14.76255 21.31375 -0.00619
C 14.77083 19.88462 -0.02162
C 16.01089 19.0845 0.00889
C 15.97758 17.71907 -0.00481
C 14.73939 17.00961 0.00979
C 14.63461 15.6026 0.01443
C 14.76624 24.16036 -0.03113
C 13.51462 2.11895 0.01965
C 12.25811 2.71301 -0.03682
C 12.30465 4.22084 0.00052
C 13.48039 26.25596 0.01877
C 12.24238 25.69592 0.01363
C 12.25552 24.25604 -0.02162
C 13.54652 23.45614 0.00415
C 13.53375 22.01352 -0.0014
C 12.282 21.30924 0.02162
C 12.32571 19.86455 0.0076
C 13.54454 19.21539 0.01241
C 13.63485 17.74871 -0.01454
C 12.3742 17.30557 0.01945
C 13.3008 14.9128 0.01416
C 13.64787 13.56387 0.03542
C 12.13746 11.07086 0.02299
C 13.53367 10.61682 0.00244
C 13.62246 9.17549 -0.01717
C 12.35887 8.48825 0.05265
C 12.38432 7.1213 -0.01952
C 13.55148 6.35136 -0.02813
C 13.56068 4.98607 0.00374
C 15.88582 14.8731 0.03505
C 13.50567 27.66086 -0.00925
C 15.93375 13.46539 -0.02815
C 14.73295 11.42411 -0.05302
C 17.19278 19.91957 -0.0054
C 18.40621 19.1516 0.00667
C 18.33139 17.74483 0.00143
C 17.17075 17.00882 -0.017
C 17.12555 15.59646 0.00364
C 18.38299 14.78031 -0.00831
C 18.52219 13.39195 -0.02957
C 17.27736 12.71881 -0.04422
C 17.21413 21.34955 0.00755
C 17.26783 11.37831 0.00654
C 18.43489 9.22885 -0.04076
C 17.24763 8.60263 -0.00652
C 17.23947 7.11397 0.0058
C 18.47209 6.38109 -0.00865
C 18.44116 4.9628 0.00675
C 17.25384 4.20144 -0.00311
C 17.21965 2.82181 0.00742
C 18.39939 2.16018 -0.01594
C 18.48396 10.6467 -0.00703
C 18.43435 22.03838 0.01739
C 18.41453 23.48389 0.03754
C 17.19289 24.15591 -0.03557
C 16.032 10.66319 0.00213
C 16.03036 9.26334 -0.00066
C 14.83601 8.49187 -0.00289
C 14.77124 7.09581 0.00028
C 16.00342 6.40296 -0.02213
C 16.03675 4.95652 0.03698
C 14.77924 4.23143 -0.00109
C 14.70229 2.82261 -0.00491
C 15.927 2.10674 0.03338
C 15.93664 0.70735 -0.0258
C 14.68085 34.05813 -0.0331
C 17.18911 32.66125 -0.00316
C 18.38869 31.91203 0.02188
C 18.41898 30.48849 -0.01979
C 17.16995 29.81831 0.02691
C 17.12478 28.35701 -0.01581
C 18.32311 27.66444 0.01452
C 18.38115 26.26422 0.04892
C 17.15625 25.56169 -0.00111
C 14.69979 12.83934 -0.04147
C 18.40846 0.7421 0.0106
C 12.26489 28.26442 0.00444
C 13.42729 30.46519 0.02894
C 2.51164 4.31098 0.01849
C 2.46313 2.83876 -0.01142
C 3.71215 2.21557 -0.00562
C 3.70271 0.71671 -0.00494
C 2.46387 0.0885 0.00054
C 4.91093 32.63413 0.03007
C 6.1112 26.13293 -0.00095
C 4.93761 25.56425 0.01572
C 3.71592 5.01851 0.01396
C 4.92072 24.21089 -0.04848
C 6.11059 22.06776 -0.01362
C 4.88362 21.37269 -0.0008
C 4.86012 19.98571 0.0288
C 6.03726 19.33986 0.00393
C 6.03395 9.38491 0.00895
C 4.87044 8.65644 0.00685
C 4.92818 7.14886 0.02888
C 6.19713 6.55713 -0.00482
C 6.18 23.49934 -0.00892
C 3.72654 6.45887 0.0127
C 2.45695 7.18923 0.02635
C 2.45804 8.63799 -0.01378
C 3.48816 30.56771 -0.00094
C 2.36499 29.76255 0.02322
C 2.45315 28.41222 -0.00725
C 3.74757 27.73016 -0.05697
C 3.77034 26.34017 0.01087
C 2.37913 25.62061 -0.01343
C 2.42297 24.17618 0.00988
C 3.70536 23.49743 0.0276
C 3.64818 21.96565 0.01305
C 2.40551 21.24628 -0.00077
C 2.37759 19.86063 0.03368
C 3.67361 19.15676 -0.02929
C 3.72607 17.7903 -0.00966
C 2.73557 16.89954 -0.03337
C 2.51389 15.47331 0.01227
C 2.30572 12.79485 0.00873
C 2.58127 11.38971 -0.00049
C 3.67074 10.60438 0.00848
C 3.6917 9.27737 -0.01303
C 6.18872 5.04827 -0.01384
C 12.39514 29.62263 -0.01789
C 4.95435 4.4216 0.03693
C 6.13628 2.21161 0.00488
C 11.07168 23.44937 0.00572
C 11.05103 22.03593 0.03592
C 9.85821 21.33857 0.00406
C 9.83232 19.83859 0.00943
C 11.04071 19.1124 0.02841
C 11.12932 17.75276 -0.01111
C 11.33292 9.40806 -0.01275
C 9.99921 8.81057 0.00985
C 9.8443 24.1623 0.0402
C 9.86592 7.24132 -0.02245
C 11.08159 4.94831 0.03101
C 9.82799 4.24564 -0.01536
C 9.80978 2.89752 -0.02689
C 10.99403 2.03993 -0.01046
C 10.99503 0.57632 -0.00891
C 9.8589 33.91195 0.02819
C 12.18448 32.60467 0.00165
C 13.41906 31.84757 -0.02971
C 11.13773 6.40177 -0.00428
C 9.9027 25.51009 -0.02759
C 10.94448 26.37268 0.03589
C 10.83926 32.10869 -0.00033
C 6.05451 0.78403 -0.01004
C 4.94486 34.05572 -0.02896
C 7.31213 25.60219 -0.00131
C 7.36974 24.20136 -0.01118
C 8.56077 23.48903 -0.014
C 8.58994 21.99385 0.02147
C 7.3001 21.32658 0.00373
C 7.29306 19.7546 -0.00191
C 8.61734 19.26451 0.00438
C 8.65611 9.32672 0.01291
C 7.40644 8.92189 0.00093
C 7.41456 7.33633 0.00057
C 8.60676 6.56738 -0.01634
C 8.69884 5.05397 -0.00334
C 7.43342 4.31565 0.02339
C 7.4142 2.88374 0.01641
C 8.61007 2.07851 -0.00719
C 8.62158 0.44858 0.01364
C 7.32943 0.11546 -0.01062
C 4.98414 2.97195 0.01745
C 3.76268 31.90329 -0.02566
C 17.18592 34.02791 -0.01154
C 20.9088 31.96169 -0.02422
C 30.79781 13.60548 0.01713
C 30.5594 2.24252 -0.01694
C 30.73781 0.85144 0.01428
C 29.57432 0.01694 -0.02142
C 31.92954 32.69503 0.0544
C 33.16227 31.94596 0.00026
C 33.20218 30.51107 0.00682
C 31.91035 29.82995 -0.01779
C 30.72793 14.94565 0.00346
C 31.97325 28.4258 0.03794
C 33.17831 26.27794 0.01574
C 31.96324 25.64055 -0.02383
C 31.98491 24.14958 -0.01429
C 33.22331 23.42426 -0.0136
C 33.16997 21.97461 0.00594
C 31.96199 21.32266 -0.02474
C 31.95521 19.87894 0.00369
C 33.15536 19.11347 0.00455
C 33.13628 27.70953 0.01927
C 29.45469 15.66549 0.00307
C 29.46476 17.14939 0.00716
C 30.72809 17.74837 0.02108
C 27.07853 17.03188 -0.01854
C 27.06987 15.40435 -0.01415
C 28.29505 15.00596 -0.03039
C 28.33547 0.60674 0.01836
C 27.06772 0.16407 0.03531
C 29.57924 32.69627 -0.00669
C 30.70567 31.95513 0.0101
C 30.67489 30.53356 0.01705
C 29.50219 29.85878 -0.0405
C 29.50465 28.42955 -0.01303
C 30.71602 27.68239 -0.01461
C 30.67907 26.2808 -0.02155
C 29.5461 25.54961 -0.00944
C 29.54174 24.18299 -0.03735
C 30.74895 23.36189 -0.00971
C 30.74305 21.95184 0.01518
C 29.4798 21.34909 0.01908
C 29.53106 19.87149 0.07705
C 30.67235 19.16502 0.0103
C 33.18289 17.743 -0.00644
C 28.23403 17.8202 -0.02049
C 31.92418 17.01728 -0.01839
C 33.27532 14.91178 0.00199
C 1.2391 19.10515 -0.01678
C 1.29522 17.72099 0.01223
C 34.4205 17.03226 0.00648
C 0.0728 15.60185 0.02114
C 1.22556 14.89718 -0.02957
C 1.09719 13.54877 0.00343
C 34.34913 12.71191 -0.02656
C 34.38651 11.34486 -0.02442
C 34.40933 19.83284 0.01951
C 1.23509 10.68633 -0.00027
C 34.38283 8.42256 -0.02302
C 34.39615 7.00706 -0.02849
C 1.24717 6.44859 0.02931
C 1.38127 5.07803 0.00628
C 0.08457 4.35059 -0.0345
C 34.34783 2.92423 -0.00931
C 1.09075 2.15808 -0.00939
C 1.1409 0.74868 -0.00468
C 1.19699 9.19515 -0.00583
C 34.39497 21.26617 -0.02213
C 1.22614 22.01643 0.02712
C 1.21992 23.38306 0.00723
C 33.18031 13.50755 0.04381
C 31.86695 12.67407 0.02806
C 31.87116 11.39427 0.01504
C 33.00496 10.54156 -0.00069
C 33.26326 9.20464 0.04926
C 33.33869 5.23995 -0.03838
C 31.88252 2.67145 0.00349
C 33.14481 2.19309 -0.00323
C 33.13165 0.77656 -0.00841
C 31.93397 0.07662 0.0001
C 34.36378 32.71596 -0.02927
C 1.19406 32.00366 -0.01404
C 1.16704 30.55746 0.01027
C 34.423 29.82797 0.01831
C 34.39824 28.43329 -0.01037
C 1.26214 27.67532 -0.00439
C 1.21637 26.23658 -0.00598
C 34.3648 25.52376 -0.05239
C 34.36484 24.13431 0.03076
C 31.97913 15.60262 0.00137
C 19.68696 32.64614 -0.01721
C 28.2157 19.26324 0.03265
C 27.03633 21.35061 0.02326
C 20.77247 6.36344 0.00071
C 20.8155 4.99521 -0.01107
C 19.71252 4.18442 -0.01586
C 19.6589 2.81865 -0.01971
C 20.87666 2.09287 -0.02118
C 20.94649 0.73138 0.00733
C 19.6761 0.01344 -0.00178
C 22.12719 32.66864 0.00768
C 19.72216 7.09638 -0.00225
C 23.3289 31.96025 -0.0276
C 22.02877 29.77082 -0.04078
C 22.05621 28.37152 0.02117
C 23.24005 27.58924 0.02737
C 23.27044 26.1699 -0.00498
C 22.12057 25.51317 0.00135
C 22.01589 24.0379 0.03102
C 23.20976 23.33575 0.02555
C 23.28378 21.98267 0.01423
C 23.26929 30.50528 0.03005
C 19.71701 8.59881 0.01515
C 20.98563 9.20976 -0.0055
C 21.2144 10.5203 0.02734
C 20.85969 30.51878 0.01277
C 19.57989 29.7942 0.00096
C 19.54957 28.36609 -0.01527
C 20.84885 27.62502 0.01087
C 20.88444 26.22644 0.00199
C 19.56043 25.58527 0.01511
C 19.5847 24.10343 -0.00478
C 20.81091 23.34523 -0.01662
C 20.86145 21.94002 -0.01185
C 19.6242 21.33366 0.01126
C 19.66807 19.84294 0.01852
C 20.85701 19.14102 -0.00381
C 20.80751 17.7128 0.03046
C 19.6349 17.0544 0.0296
C 19.62543 15.65335 0.03374
C 20.87405 14.89876 -0.02845
C 21.01134 13.44981 -0.03213
C 19.79313 12.73816 0.02239
C 19.80306 11.30004 0.01153
C 22.04523 21.20903 -0.00285
C 27.00968 20.00133 0.00261
C 22.07905 19.84279 -0.009
C 23.45105 17.70018 -0.00229
C 25.83882 19.19641 0.02316
C 25.82141 17.78935 0.04185
C 24.62188 16.99616 0.00194
C 24.57323 15.59708 -0.00621
C 25.76845 14.86604 0.02611
C 25.86423 0.61331 0.02198
C 24.68249 0.03108 0.01094
C 27.03944 32.65076 0.00235
C 24.60265 19.88214 0.01257
C 28.32309 31.98839 0.01495
C 26.99774 29.82916 0.01799
C 26.98469 28.37966 0.01699
C 28.28196 27.63966 -0.00416
C 28.31651 26.23663 0.01177
C 27.06315 25.60564 0.04266
C 27.02366 24.15735 0.01324
C 28.28564 23.43055 0.0014
C 28.26811 22.00052 0.00924
C 28.28792 30.56903 0.01259
C 24.55072 21.25438 0.00152
C 25.75618 22.0283 -0.00294
C 25.77975 23.43195 0.00826
C 22.12266 17.02497 -0.00938
C 22.0765 15.59861 -0.0264
C 23.32656 14.98927 -0.01154
C 23.42501 13.56577 0.00684
C 22.37893 12.68283 -0.01052
C 22.26312 11.39559 -0.01679
C 22.05335 2.67851 0.00367
C 23.33787 2.15085 0.04306
C 23.50934 0.9029 0.00996
C 22.1197 34.06962 0.00195
C 24.58614 32.57936 -0.00802
C 25.81433 31.93649 -0.00218
C 25.77535 30.51603 -0.01654
C 24.56772 29.82425 -0.00037
C 24.53529 28.4065 -0.0032
C 25.79306 27.71775 0.00622
C 25.82676 26.26936 -0.02815
C 24.53732 25.54153 -0.00942
C 24.56082 24.1353 0.00487
C 23.40885 19.08347 -0.01199
C 2.46645 32.723 -0.03113
