328
Graphene
C 0.02239 0.03176 0.01295
C 18.50586 23.41316 -0.05302
C 18.38446 22.07336 0.00213
C 17.2095 21.27855 -0.00066
C 17.26195 19.9143 -0.00289
C 18.51242 19.21109 0.00028
C 18.47195 17.77061 -0.02213
C 17.18277 16.97903 0.03698
C 17.15577 24.1167 -0.04147
C 17.16767 15.51433 -0.00109
C 17.20931 8.50374 0.03338
C 17.28422 7.12232 -0.0258
C 18.47964 6.35254 -0.0331
C 18.47834 4.94684 -0.00316
C 17.2616 4.24313 0.02188
C 17.19899 2.91031 -0.01979
C 18.46994 2.12254 0.02691
C 18.44408 9.10688 -0.00491
C 17.14986 25.52529 -0.02815
C 18.47567 26.19511 0.03505
C 18.39475 27.66625 0.01443
C 14.7361 11.38843 -0.01957
C 15.9793 10.60111 -0.0108
C 15.94852 9.28883 -0.00368
C 14.67624 8.56307 -0.02696
C 14.78322 7.1392 -0.00114
C 16.02871 6.41422 0.00228
C 16.00498 4.99552 0.00798
C 14.76358 4.27905 0.00422
C 14.74378 2.84869 0.0351
C 15.99791 2.11436 -0.03113
C 16.01413 0.72607 0.02098
C 14.76426 0.07433 0.01848
C 17.19615 32.68635 -0.00619
C 18.43059 32.0249 -0.02162
C 18.46687 30.47378 0.00889
C 17.23628 29.80299 -0.00481
C 17.22902 28.41862 0.00979
C 18.52225 0.71663 -0.01581
C 14.79448 12.71349 0.02058
C 17.21818 0.04297 0.01452
C 20.91789 31.89543 -0.00111
C 20.84749 4.9269 -0.01594
C 19.69238 4.24042 0.0106
C 19.7548 2.85399 -0.01154
C 20.90046 2.14408 -0.01721
C 20.92004 0.72513 -0.02422
C 19.64885 0.07336 0.01277
C 22.11459 32.67564 0.00096
C 20.88874 6.30691 0.00742
C 23.34603 31.90586 -0.01527
C 22.14793 29.85389 0.00199
C 22.127 28.36824 0.01511
C 23.32751 27.71253 -0.00478
C 23.34118 26.29622 -0.01662
C 22.14777 25.53117 -0.01185
C 22.20765 24.18866 0.01126
C 23.3747 23.37378 0.01852
C 23.39122 30.52727 0.01087
C 19.68782 7.07506 -0.00311
C 19.70723 8.46761 0.00675
C 20.85497 9.23709 -0.00865
C 20.89642 30.50088 -0.03557
C 19.6974 29.76439 0.03754
C 19.69176 28.35853 0.01739
C 20.88703 27.70845 0.00755
C 20.86068 26.25376 -0.0054
C 19.64178 25.56604 0.00667
C 19.61986 24.18325 0.00143
C 20.9006 23.48222 -0.017
C 20.89688 22.04627 0.00364
C 19.71594 21.28175 -0.00831
C 19.71167 19.90256 -0.02957
C 20.91939 19.20967 -0.04422
C 20.90535 17.80604 0.00654
C 19.72266 17.02984 -0.00703
C 19.73768 15.59267 -0.04076
C 20.92174 14.89738 -0.00652
C 20.88274 10.59892 0.0058
C 19.67347 32.6519 0.04892
C 23.39686 22.02059 -0.00381
C 15.87054 13.51894 0.01965
C 15.94119 23.44382 0.00052
C 4.88789 28.42777 -0.00191
C 6.16373 27.69047 0.00438
C 4.84535 4.241 0.01291
C 4.92024 2.88275 0.00093
C 6.18451 2.10438 0.00057
C 6.11745 0.712 -0.01634
C 4.92193 34.02278 -0.00334
C 4.86738 29.81775 0.00373
C 7.38431 32.65811 0.02339
C 8.58098 30.52583 -0.00719
C 7.40682 29.83782 0.01364
C 7.44612 28.42897 -0.01062
C 8.58011 27.78417 -0.00033
C 7.39267 4.19551 0.03589
C 7.34968 2.86428 -0.02759
C 8.58721 2.13531 0.0402
C 8.62918 32.01619 0.01641
C 6.15354 30.4735 0.02147
C 6.12579 31.96036 -0.014
C 4.87479 32.67425 -0.01118
C 3.63367 30.53598 -0.04848
C 2.44771 29.82157 -0.00892
C 2.44309 28.45455 -0.01362
C 3.71017 27.65557 -0.0008
C 3.65512 26.29507 0.0288
C 2.52228 25.63671 0.00393
C 2.46165 12.72837 0.00895
C 2.35753 11.53264 0.00685
C 2.46762 8.5376 0.02888
C 2.46796 7.07958 -0.00482
C 3.61783 6.35569 -0.01384
C 3.65985 5.01299 0.03693
C 2.48562 4.1977 0.01745
C 2.50044 2.86255 0.00488
C 3.65811 2.12599 -0.01004
C 3.76865 0.70418 -0.02896
C 2.49884 34.07987 -0.00131
C 8.5403 0.70035 0.00572
C 16.00771 14.97567 -0.03682
C 7.36089 0.01302 0.03592
C 11.10391 31.93997 0.00943
C 12.26626 7.17225 0.00415
C 13.57288 6.38187 -0.0014
C 13.49868 4.93927 0.02162
C 12.33373 4.22683 0.0076
C 12.18985 2.77358 0.01241
C 13.50441 2.20387 -0.01454
C 13.48965 0.76769 0.01945
C 12.28633 8.45557 -0.02162
C 12.32783 0.05317 0.01416
C 16.01012 31.87221 0.02299
C 16.03585 30.53621 0.00244
C 14.79258 29.87 -0.01717
C 14.75984 28.4308 0.05265
C 15.96086 27.66659 -0.01952
C 15.92347 26.18954 -0.02813
C 14.69281 25.54497 0.00374
C 14.81236 32.65952 0.03542
C 13.51942 9.19233 0.01363
C 13.49614 10.68084 0.01877
C 12.32515 11.42926 -0.00925
C 11.02352 30.53999 0.02841
C 9.88617 29.82555 -0.01111
C 9.90696 28.38223 -0.01275
C 11.11047 27.76754 0.00985
C 10.98714 4.82475 -0.02245
C 9.839 4.26637 -0.00428
C 9.77462 2.86773 0.03101
C 10.98687 2.06447 -0.01536
C 11.0638 0.70164 -0.02689
C 9.82241 0.03736 -0.01046
C 12.30337 32.69035 -0.00891
C 13.57677 31.90156 0.02819
C 13.51812 30.55721 0.00165
C 12.27944 29.86682 -0.02971
C 12.31997 28.43185 0.02894
C 13.50773 27.67974 -0.01789
C 13.58426 26.24944 0.00444
C 9.88233 32.71715 0.00406
C 22.13176 21.30582 0.03046
C 22.1099 19.92164 0.0296
C 23.40831 19.14637 0.03374
C 31.96889 32.70423 0.00682
C 33.18999 31.98264 -0.01779
C 33.24889 30.59013 0.03794
C 31.95504 29.87418 0.01927
C 31.9583 28.45896 0.01574
C 33.21018 27.69732 -0.02383
C 33.15369 26.28457 -0.01429
C 29.53078 0.03896 0.00026
C 33.22232 21.97613 -0.0136
C 31.98736 19.88109 -0.02474
C 33.2 19.1988 0.00369
C 33.20393 17.77071 0.00455
C 32.00578 17.04411 -0.00644
C 31.89155 15.60957 -0.01839
C 33.13215 14.92717 0.00137
C 33.18787 13.45324 0.00199
C 32.00041 21.29905 0.00594
C 30.70287 0.76295 0.0544
C 30.7197 2.14535 -0.02142
C 29.56544 2.89787 0.01428
C 29.57795 21.24356 -0.0405
C 29.50928 19.92288 -0.01303
C 30.69692 19.15839 -0.01461
C 30.76715 17.75558 -0.02155
C 29.4983 17.07686 -0.00944
C 29.41731 15.63067 -0.03735
C 30.66975 14.91512 -0.00971
C 30.71371 13.44551 0.01518
C 29.52264 12.83131 0.01908
C 29.45835 11.36772 0.07705
C 30.73701 10.69072 0.0103
C 30.74295 9.20251 0.02108
C 29.51101 8.50273 0.00716
C 29.51834 7.1101 0.00307
C 30.78814 6.37716 0.00346
C 30.76127 5.00533 0.01713
C 29.50048 4.24712 -0.01694
C 31.94836 12.78433 0.04381
C 29.48117 28.38259 0.01705
C 31.90275 11.41607 0.02806
C 33.23949 9.23383 -0.00069
C 34.42399 16.9701 0.00648
C 0.06388 15.58396 0.02114
C 1.2057 14.91824 -0.02957
C 1.24325 13.55394 0.00343
C 0.01022 12.77152 -0.02656
C 34.40047 11.36256 -0.02442
C 1.22896 10.64716 -0.00027
C 34.39747 19.9617 0.01223
C 1.29306 9.26691 -0.00583
C 0.01257 7.02212 -0.02849
C 1.24961 6.32946 0.02931
C 1.24505 4.95747 0.00628
C 34.42108 4.2776 -0.0345
C 0.01008 2.78319 -0.00931
C 1.19569 2.14427 -0.00939
C 1.29722 0.67174 -0.00468
C 34.39321 8.46866 -0.02302
C 34.38396 21.31233 -0.01678
C 1.13012 23.41991 0.01951
C 34.42742 24.15212 -0.02213
C 31.96224 8.52713 0.04926
C 31.9919 7.04647 -0.03838
C 33.23602 6.38225 0.00349
C 33.2044 4.99897 -0.00323
C 32.02989 4.23085 -0.00841
C 31.97385 2.75989 0.0001
C 33.2156 2.12771 -0.02927
C 33.25062 0.69006 -0.01404
C 31.94305 34.07118 0.01027
C 0.00864 32.6449 0.01831
C 1.22982 31.96722 -0.01037
C 1.22784 30.54271 -0.00439
C 0.02352 29.89809 -0.00598
C 34.42703 28.43779 -0.05239
C 1.2558 27.76166 0.03076
C 1.19225 26.31419 0.00723
C 34.38035 25.57469 0.02712
C 33.17886 10.64985 0.01504
C 29.56723 29.85447 0.0101
C 30.78044 30.51984 -0.00669
C 30.7161 31.88889 0.03531
C 24.607 29.86378 -0.00498
C 24.61058 28.43299 0.00135
C 25.85002 27.74567 0.03102
C 25.78609 26.16288 0.02555
C 24.52425 25.52788 0.01423
C 24.60047 24.11176 -0.00285
C 25.8871 23.44625 -0.009
C 25.78032 30.51416 0.02737
C 25.80621 22.02874 -0.01199
C 24.5806 19.85038 -0.00938
C 25.79864 19.17158 -0.0264
C 25.82129 17.70323 -0.01154
C 24.59611 17.09944 0.00684
C 24.61071 15.65263 -0.01052
C 25.84196 14.90355 -0.01679
C 25.83953 13.48258 0.00367
C 24.54227 21.26811 -0.00229
C 25.75746 31.97696 0.02117
C 24.56857 32.67141 -0.04078
C 22.16542 34.04327 0.03005
C 23.3689 17.73636 -0.02845
C 22.08822 17.10372 -0.03213
C 22.14957 15.66529 0.02239
C 23.36368 14.9778 0.01153
C 23.30449 13.49256 0.02734
C 22.09498 12.7963 -0.0055
C 22.09374 11.41415 0.01515
C 23.36209 10.66143 -0.00225
C 23.36511 9.24434 0.00071
C 22.10851 8.48472 -0.01107
C 22.11138 7.07998 -0.01586
C 23.35177 6.41815 -0.01971
C 23.332 5.04449 -0.02118
C 22.13487 4.19243 0.00733
C 22.11691 2.79977 -0.00178
C 23.30047 2.11442 0.00768
C 23.35934 0.7339 -0.0276
C 24.63143 12.7838 0.04306
C 24.52353 11.30935 0.00996
C 25.78264 10.65072 0.00195
C 25.84958 9.24164 -0.00802
C 27.0479 15.56908 0.01259
C 28.24678 14.92483 0.01799
C 28.31098 13.45272 0.01699
C 27.0682 12.76439 -0.00416
C 27.07584 11.37087 0.01177
C 28.26445 10.62246 0.04266
C 28.30241 9.15925 0.01324
C 27.03883 8.48405 0.0014
C 27.028 7.07032 0.00924
C 28.30224 6.37162 0.02326
C 28.32008 4.92559 0.00261
C 27.04252 4.26994 0.03265
C 26.96857 2.81206 -0.02049
C 28.22048 2.11777 -0.01854
C 28.29109 0.66467 -0.01415
C 27.02562 0.01986 -0.03039
C 29.5506 32.63579 0.01836
C 27.07516 17.02366 0.01495
C 3.58877 31.95479 0.01572
C 28.23048 17.69379 0.00235
C 27.07903 19.88534 0.02198
C 24.60084 8.52025 -0.00218
C 24.63605 7.06268 -0.01654
C 25.86717 6.33711 -0.00037
C 25.86513 4.94924 -0.0032
C 24.57357 4.26143 0.00622
C 24.59966 2.76434 -0.02815
C 25.77268 2.07661 -0.00942
C 25.7976 0.71896 0.00487
C 24.62774 34.02873 0.00826
C 27.12163 32.63696 -0.00294
C 28.26141 31.90646 0.00152
C 28.27645 30.50875 0.01257
C 27.06597 29.81565 0.02316
C 27.07031 28.35861 0.04185
C 28.36899 27.71759 0.00194
C 26.99653 25.55911 -0.00621
C 27.0766 21.30652 0.02611
C 28.32739 19.14014 0.01094
C 2.49812 32.69457 -0.00095
