395
Graphene
C 0.01711 0.03715 0.01295
C 16.03389 13.45941 0.00444
C 14.71116 12.8398 -0.00925
C 14.76058 11.39575 0.01877
C 16.01033 10.62144 0.01363
C 16.03 9.25449 -0.02162
C 14.76079 8.55005 0.00415
C 14.72771 7.08657 -0.0014
C 15.95817 6.37695 0.02162
C 15.9584 4.86033 0.0076
C 15.97545 14.90131 -0.01789
C 14.79198 4.27791 0.01241
C 16.01331 2.10947 0.01945
C 16.01182 0.7178 0.01416
C 14.78992 34.06878 0.03542
C 17.22086 32.73336 0.02299
C 18.46623 31.91758 0.00244
C 18.44744 30.4602 -0.01717
C 17.17272 29.77667 0.05265
C 17.2587 28.32164 -0.01952
C 18.40481 27.65599 -0.02813
C 14.74144 2.85959 -0.01454
C 14.76277 15.57733 0.02894
C 14.7294 17.09718 -0.02971
C 15.92988 17.81014 0.00165
C 13.55441 6.45283 -0.01062
C 13.54609 4.99768 -0.00033
C 12.3055 4.27477 0.03589
C 12.30716 2.83901 -0.02759
C 13.51811 2.14675 0.0402
C 13.53016 0.70142 0.00572
C 12.29934 0.04321 0.03592
C 14.76323 32.73984 0.00406
C 15.96187 31.96372 0.00943
C 15.96349 30.59622 0.02841
C 14.7701 29.76807 -0.01111
C 14.78247 28.40784 -0.01275
C 16.00985 27.71556 0.00985
C 16.04824 26.27925 -0.02245
C 14.6982 25.51436 -0.00428
C 14.76177 24.17241 0.03101
C 15.9859 23.3924 -0.01536
C 15.92082 21.99697 -0.02689
C 14.79428 21.25896 -0.01046
C 14.87724 19.92528 -0.00891
C 15.99991 19.18315 0.02819
C 18.46996 26.26787 0.00374
C 17.17348 25.6331 0.00052
C 17.21854 24.17363 -0.03682
C 18.43561 23.37116 0.01965
C 19.6846 29.78699 -0.00289
C 19.71326 28.44251 0.00028
C 20.92461 27.6642 -0.02213
C 20.865 26.2832 0.03698
C 19.65744 25.54621 -0.00109
C 19.68482 24.09374 -0.00491
C 20.94503 23.47977 0.03338
C 20.91579 21.97981 -0.0258
C 19.69105 21.29371 -0.0331
C 19.66545 19.88234 -0.00316
C 20.93391 19.13309 0.02188
C 20.8734 17.75238 -0.01979
C 19.66658 17.03911 0.02691
C 19.70043 15.58348 -0.01581
C 20.92781 14.88208 0.01452
C 20.89323 13.50829 0.04892
C 19.64207 12.78374 -0.00111
C 19.63173 11.35993 -0.03557
C 20.85539 10.68747 0.03754
C 20.90006 9.25019 0.01739
C 19.65689 8.52258 0.00755
C 20.93626 30.49371 -0.00066
C 12.30533 7.11386 0.01364
C 20.91281 31.96546 0.00213
C 17.22818 0.05018 -0.04147
C 18.48554 22.00273 0.02058
C 17.2087 21.30357 -0.01957
C 17.2294 19.84965 -0.0108
C 18.42679 19.143 -0.00368
C 18.44541 17.72991 -0.02696
C 17.24893 17.06503 -0.00114
C 17.18821 15.63641 0.00228
C 18.4089 14.92434 0.00798
C 18.38303 13.52242 0.00422
C 17.2104 12.74844 0.0351
C 17.1649 11.33941 -0.03113
C 18.43584 10.6537 0.02098
C 18.48273 9.20073 0.01848
C 17.20316 8.51175 -0.00619
C 17.19969 7.06176 -0.02162
C 18.40437 6.37949 0.00889
C 18.43435 4.9593 -0.00481
C 17.16784 4.23154 0.00979
C 17.25108 2.83115 0.01443
C 18.49035 2.14091 0.03505
C 18.41781 0.76258 -0.02815
C 19.69711 32.64144 -0.05302
C 19.6543 7.10136 -0.0054
C 12.29905 8.54357 -0.00719
C 13.54203 10.71418 0.02339
C 4.89426 29.79877 -0.00279
C 4.91037 28.40971 0.01996
C 6.12397 27.734 -0.03996
C 6.11548 13.47965 0.01465
C 4.91949 12.79226 -0.00074
C 4.93681 11.41031 -0.00518
C 6.1931 10.61224 0.0086
C 6.15291 9.25608 -0.00643
C 4.92471 8.56078 0.017
C 6.15702 30.52877 0.01226
C 4.87274 7.1642 -0.03113
C 6.15082 4.99669 -0.00094
C 4.89901 4.21943 0.02322
C 4.90607 2.81899 -0.00725
C 6.1161 2.16233 -0.05697
C 6.1845 0.67793 0.01087
C 4.97667 0.01594 -0.01343
C 7.34235 32.65703 0.00988
C 8.65191 31.94395 0.0276
C 8.61477 30.53692 0.01305
C 6.09766 6.37664 -0.02566
C 6.10995 32.02222 0.03828
C 4.90922 32.66724 0.0174
C 2.50436 34.05681 0.0073
C 3.64431 30.54965 -0.01977
C 2.49784 29.79725 -0.00561
C 2.45302 28.36182 0.00208
C 3.72907 27.68434 0.01707
C 2.38629 25.56051 0.02769
C 2.46653 17.0883 -0.03291
C 2.45161 15.66077 -0.04999
C 3.67899 14.89417 0.04505
C 3.70811 13.51248 0.03284
C 2.44436 12.69545 -0.04307
C 2.48128 11.35193 0.03189
C 3.71883 10.69269 0.00031
C 3.67847 9.28258 -0.003
C 2.43095 8.52871 0.01402
C 2.41034 7.05975 0.02379
C 3.67753 6.3952 0.00907
C 3.71819 4.97796 0.00643
C 2.45091 4.23357 -0.01509
C 2.47544 2.85867 0.03267
C 3.71189 2.18989 0.02374
C 3.68564 0.71765 0.00402
C 7.42521 29.82993 -0.00077
C 7.4369 28.38622 0.03368
C 8.645 27.72424 -0.02929
C 8.56834 13.38612 -0.00966
C 9.8267 7.09954 0.00685
C 11.02957 6.39057 0.02888
C 11.01197 4.91519 -0.00482
C 9.83018 4.23496 -0.01384
C 9.83508 2.85963 0.03693
C 11.04412 2.13705 0.01745
C 11.06972 0.66757 0.00488
C 9.80229 0.02004 -0.01004
C 12.28119 32.71152 -0.02896
C 13.55482 31.99222 -0.00131
C 13.52598 30.50646 -0.01118
C 12.29114 29.82323 -0.014
C 12.30908 28.42849 0.02147
C 13.52377 27.70361 0.00373
C 13.50157 26.34934 -0.00191
C 13.60562 17.73706 0.00438
C 12.29378 15.67317 0.01291
C 13.52214 14.94463 0.00093
C 13.56329 13.53466 0.00057
C 12.25719 12.87689 -0.01634
C 12.29471 11.41307 -0.00334
C 9.86491 8.54684 0.00895
C 13.47864 9.2516 0.01641
C 11.09132 9.28585 0.00393
C 9.85139 11.3709 -0.0008
C 7.37657 12.78165 -0.03337
C 7.36108 11.39194 0.01227
C 8.60585 10.71624 0.00873
C 8.62963 9.24043 -0.00049
C 7.32152 8.51516 0.00848
C 7.35387 7.13809 -0.01303
C 8.61256 6.38908 -0.01378
C 8.63659 4.953 0.02635
C 7.34023 4.3191 0.0127
C 7.3502 2.8605 0.01396
C 8.65753 2.20107 0.01849
C 8.63236 0.68512 -0.01142
C 7.369 0.00957 -0.00562
C 9.79335 32.6321 -0.00494
C 11.08531 31.94668 0.00054
C 11.0415 30.54925 0.03007
C 9.76287 29.82091 -0.00095
C 9.77591 28.40017 0.01572
C 11.01775 27.63715 -0.04848
C 11.09304 13.5343 -0.00892
C 9.7704 12.80618 -0.01362
C 11.08983 10.7019 0.0288
C 3.67732 31.92237 0.02784
C 20.88689 6.38199 0.00667
C 19.66834 4.28582 -0.017
C 29.55807 7.11235 0.01908
C 30.76555 6.43972 0.07705
C 30.71824 4.95557 0.0103
C 29.50122 4.26836 0.02108
C 29.49294 2.82765 0.00716
C 30.68897 2.16144 0.00307
C 30.77914 0.68763 0.00346
C 29.50828 34.03155 0.01713
C 32.0257 32.62805 -0.01694
C 29.50714 8.54494 0.01518
C 33.20825 31.96629 0.01428
C 32.00462 29.82148 0.0544
C 31.95921 28.40085 0.00026
C 33.18141 27.67443 0.00682
C 33.18391 26.29239 -0.01779
C 32.01927 25.60204 0.03794
C 32.00095 24.06192 0.01927
C 33.24277 23.39111 0.01574
C 33.25172 22.02256 -0.02383
C 31.97626 21.34426 -0.01429
C 33.22475 30.4814 -0.02142
C 30.69226 9.24941 -0.00971
C 30.7787 10.62614 -0.03735
C 29.48991 11.30624 -0.00944
C 26.99765 0.02147 0.01177
C 29.49907 32.62678 0.04266
C 30.71224 31.97288 0.01324
C 30.73643 30.52945 0.0014
C 29.53076 29.75779 0.00924
C 29.56104 28.37784 0.02326
C 30.73702 27.70574 0.00261
C 30.79601 26.2353 0.03265
C 29.51443 25.47032 -0.02049
C 29.53251 24.13704 -0.01854
C 30.78237 23.42327 -0.01415
C 30.73493 22.01515 -0.03039
C 29.52777 21.26856 0.01836
C 29.5043 19.87559 0.03531
C 30.74047 19.17045 -0.00669
C 30.75829 17.80511 0.0101
C 29.50379 17.04204 0.01705
C 29.57373 15.67573 -0.0405
C 30.72032 14.93658 -0.01303
C 30.73704 13.50069 -0.01461
C 29.51526 12.764 -0.02155
C 32.01501 19.93043 -0.0136
C 33.21059 19.1692 0.00594
C 33.18641 17.71658 -0.02474
C 31.98413 17.04822 0.00369
C 1.2042 23.46106 0.02712
C 0.02083 21.36181 -0.02213
C 34.40707 19.82358 0.01951
C 1.19683 19.1539 -0.01678
C 1.23591 17.74816 0.01223
C 0.05331 17.01456 0.00648
C 34.37745 15.58132 0.02114
C 1.17546 14.91372 -0.02957
C 1.21671 13.45565 0.00343
C 34.40015 12.76156 -0.02656
C 34.40039 11.31911 -0.02442
C 1.21552 10.72435 -0.00027
C 1.23137 9.27432 -0.00583
C 34.43082 8.52162 -0.02302
C 34.42461 7.08772 -0.02849
C 1.172 6.34536 0.02931
C 1.16535 4.96318 0.00628
C 0.00054 4.24828 -0.0345
C 0.04108 2.78631 -0.00931
C 1.26078 2.12567 -0.00939
C 1.22396 0.74581 -0.00468
C 0.01189 24.17363 0.00723
C 28.26662 0.75081 -0.00416
C 34.39843 25.58785 0.03076
C 1.20721 27.69077 -0.00598
C 31.99076 15.63674 0.00455
C 33.22576 14.89583 -0.00644
C 33.20413 13.4867 -0.01839
C 31.94075 12.74034 0.00137
C 31.94339 11.34781 0.00199
C 33.16721 10.66823 0.04381
C 33.18908 9.29161 0.02806
C 31.9611 8.48889 0.01504
C 31.97075 7.08326 -0.00069
C 33.15301 6.38361 0.04926
C 33.20761 4.99174 -0.03838
C 32.0094 4.27996 0.00349
C 31.90931 2.78255 -0.00323
C 33.16976 2.10931 -0.00841
C 33.22134 0.71174 0.0001
C 31.96559 34.02676 -0.02927
C 34.41131 32.69205 -0.01404
C 1.25614 31.90779 0.01027
C 1.23981 30.51739 0.01831
C 0.03431 29.84294 -0.01037
C 34.41504 28.36546 -0.00439
C 1.253 26.23664 -0.05239
C 20.90607 4.94058 0.00143
C 28.25121 2.11188 0.01699
C 27.05978 4.27102 0.01259
C 23.39413 10.62498 -0.01662
C 23.34932 9.25228 -0.01185
C 22.08345 8.49644 0.01126
C 22.07091 7.06058 0.01852
C 23.36698 6.31695 -0.00381
C 23.3412 4.96744 0.03046
C 22.17981 4.24009 0.0296
C 22.15988 2.82402 0.03374
C 23.28842 2.13079 -0.02845
C 22.0812 11.30824 -0.00478
C 23.38564 0.69282 -0.03213
C 24.61343 32.62746 0.01153
C 25.84307 31.88615 0.02734
C 25.85419 30.47731 -0.0055
C 24.62649 29.81205 0.01515
C 24.5698 28.41534 -0.00225
C 25.82405 27.64994 0.00071
C 25.78687 26.23721 -0.01107
C 24.58085 25.57684 -0.01586
C 24.63787 24.09971 -0.01971
C 22.20496 0.00641 0.02239
C 22.09979 12.73256 0.01511
C 23.35959 13.46153 0.00199
C 23.38838 14.89821 0.01087
C 19.68698 2.84428 0.00364
C 20.95208 2.15148 -0.00831
C 20.88247 0.71874 -0.02957
C 19.67458 0.03263 -0.04422
C 22.17647 32.67227 0.00654
C 23.40665 31.94888 -0.00703
C 23.41171 30.56142 -0.04076
C 22.16697 29.85897 -0.00652
C 22.17443 28.33088 0.0058
C 23.35254 27.68821 -0.00865
C 23.39824 26.28726 0.00675
C 22.1088 25.62022 -0.00311
C 22.11895 24.13771 0.00742
C 23.389 23.42222 -0.01594
C 23.34785 22.01624 0.0106
C 22.12657 21.29935 -0.01154
C 22.14946 19.90315 -0.01721
C 23.32369 19.22037 -0.02422
C 23.35143 17.70076 0.01277
C 22.13997 17.06899 0.00096
C 22.1651 15.62124 -0.01527
C 25.85825 23.39905 -0.02118
C 25.74256 21.97713 0.00733
C 24.60831 21.29488 -0.00178
C 24.54973 19.8517 0.00768
C 28.42162 26.32794 -0.00218
C 27.02971 25.59486 -0.01654
C 27.0633 24.11984 -0.00037
C 28.31002 23.42004 -0.0032
C 28.19824 22.01297 0.00622
C 26.98218 21.29836 -0.02815
C 27.01736 19.87054 -0.00942
C 28.24675 19.15231 0.00487
C 28.29377 17.71015 0.00826
C 26.95816 17.01538 -0.00294
C 27.05664 15.62111 0.00152
C 28.26536 14.93275 0.01257
C 28.24803 13.45252 0.02316
C 27.02366 12.79232 0.04185
C 27.04651 11.36008 0.00194
C 28.2787 10.64081 -0.00621
C 28.27664 9.24746 0.02611
C 27.06717 8.44403 0.02198
C 27.09451 7.08313 0.01094
C 28.29249 6.36936 0.00235
C 28.27463 4.96301 0.01495
C 28.36868 27.76889 -0.00802
C 27.0703 2.85134 0.01799
C 27.02012 28.34934 0.00195
C 28.29017 30.51504 0.04306
C 25.80747 19.22165 -0.0276
C 25.77092 17.78649 0.03005
C 24.57198 17.01348 -0.04078
C 24.63134 15.6493 0.02117
C 25.86336 14.93486 0.02737
C 25.8341 13.52685 -0.00498
C 24.58381 12.74671 0.00135
C 24.59102 11.38568 0.03102
C 25.81911 10.63814 0.02555
C 25.7943 9.20725 0.01423
C 24.56918 8.48759 -0.00285
C 24.5984 7.06893 -0.009
C 25.81687 6.37034 -0.01199
C 25.82543 4.98248 -0.00229
C 24.62663 4.25232 -0.00938
C 24.57915 2.89885 -0.0264
C 25.87829 2.17261 -0.01154
C 25.76822 0.7132 0.00684
C 24.599 34.0264 -0.01052
C 27.07007 32.67097 -0.01679
C 28.29355 32.00355 0.00367
C 27.06617 29.79151 0.00996
C 2.45321 32.60345 -0.01979
