408
Graphene
C 34.41497 34.06132 0.01295
C 13.55653 30.5243 -0.01536
C 12.31001 29.87724 -0.02689
C 12.22985 28.40028 -0.01046
C 13.46862 27.73471 -0.00891
C 13.56178 26.29451 0.02819
C 12.32713 25.59274 0.00165
C 12.29723 24.15769 -0.02971
C 13.45364 23.34824 0.02894
C 13.48158 21.90403 -0.01789
C 12.27108 21.25788 0.00444
C 12.40109 19.86024 -0.00925
C 13.60701 19.11468 0.01877
C 13.59474 17.69286 0.01363
C 12.33499 17.13979 -0.02162
C 12.31269 15.62086 0.00415
C 13.47648 14.83215 -0.0014
C 13.50683 13.3206 0.02162
C 12.28023 12.70315 0.0076
C 12.31324 11.21195 0.01241
C 13.44417 10.43678 -0.01454
C 12.28031 8.6531 0.01945
C 13.49129 31.90839 0.03101
C 12.27437 32.69283 -0.00428
C 9.75465 0.1003 -0.02245
C 11.02643 0.83036 0.00985
C 9.84978 24.1379 0.00438
C 11.09739 23.41085 0.01291
C 11.05431 22.02153 0.00093
C 9.84252 21.34842 0.00057
C 9.85146 19.90187 -0.01634
C 11.11527 19.25532 -0.00334
C 11.11812 17.82612 0.02339
C 9.83587 17.14855 0.01641
C 9.8025 15.6958 -0.00719
C 11.07757 14.95933 0.01364
C 12.39691 7.16108 0.01416
C 11.05505 13.44871 -0.01062
C 9.90577 11.40052 0.03589
C 11.05415 10.62556 -0.02759
C 11.02253 9.16362 0.0402
C 9.83138 8.50377 0.00572
C 9.85239 7.05963 0.03592
C 11.07488 6.40225 0.00406
C 11.16713 5.02813 0.00943
C 9.88918 4.32092 0.02841
C 9.79808 2.97596 -0.01111
C 11.05024 2.19224 -0.01275
C 9.85344 12.83863 -0.00033
C 9.82846 25.52396 -0.00191
C 13.44632 6.34607 0.03542
C 12.39166 4.27831 0.00244
C 15.94736 2.1176 0.01443
C 15.90693 0.73599 0.03505
C 14.70595 34.07246 -0.02815
C 17.20202 32.66683 -0.04147
C 18.50498 31.97818 -0.05302
C 18.45946 30.5802 0.00213
C 17.22232 29.83566 -0.00066
C 17.24667 28.38542 -0.00289
C 18.40949 27.67588 0.00028
C 18.3758 26.2496 -0.02213
C 17.17617 25.4698 0.03698
C 17.21221 24.11101 -0.00109
C 18.47797 23.42752 -0.00491
C 18.42746 21.98311 0.03338
C 17.14021 21.30672 -0.0258
C 17.14653 19.9513 -0.0331
C 18.3581 19.18002 -0.00316
C 18.45826 17.80979 0.02188
C 17.20431 17.08936 -0.01979
C 17.25659 15.55367 0.02691
C 18.48062 14.9417 -0.01581
C 14.78398 2.88366 0.00979
C 14.84857 4.18781 -0.00481
C 14.85997 12.8907 0.00889
C 15.90723 13.52815 -0.02162
C 12.31349 2.87072 -0.01717
C 13.48951 2.11779 0.05265
C 13.53799 0.73719 -0.01952
C 12.27964 0.07982 -0.02813
C 14.68084 32.67962 0.00374
C 15.97882 31.98185 0.00052
C 15.93196 30.52147 -0.03682
C 14.75997 29.78323 0.01965
C 14.7533 28.42625 0.02058
C 15.99687 27.70452 -0.01957
C 13.64756 5.03957 0.02299
C 15.98874 26.26313 -0.0108
C 14.68378 24.10329 -0.02696
C 15.95313 23.35392 -0.00114
C 15.90063 21.94026 0.00228
C 14.71906 21.23448 0.00798
C 14.81586 19.8098 0.00422
C 15.96263 19.19878 0.0351
C 16.00023 17.78357 -0.03113
C 14.80233 17.01094 0.02098
C 14.73596 15.57418 0.01848
C 16.01858 14.89534 -0.00619
C 14.76199 25.52625 -0.00368
C 17.14687 2.66756 0.01452
C 11.05144 26.23637 0.00373
C 9.83343 28.41939 -0.014
C 2.4532 2.89194 0.01402
C 3.64612 2.214 0.02379
C 3.62813 0.76236 0.00907
C 2.48033 34.07446 0.00643
C 4.88819 32.68105 -0.01509
C 6.10057 32.02025 0.03267
C 6.11053 30.58092 0.02374
C 4.83178 29.89182 0.00402
C 4.89268 28.46603 0.0073
C 6.10778 27.66839 0.0174
C 6.1233 26.26271 0.03828
C 4.87949 25.57573 0.01226
C 5.02169 24.10154 -0.00279
C 6.20189 23.44099 0.01996
C 6.17274 22.03987 -0.03996
C 4.92478 21.29316 0.01465
C 4.88148 19.88047 -0.00074
C 6.10529 19.21831 -0.00518
C 6.08719 17.78263 0.0086
C 4.96284 17.07151 -0.00643
C 4.96842 15.61004 0.017
C 2.44044 4.27342 -0.003
C 3.72001 4.91729 0.00031
C 3.69153 6.36 0.03189
C 2.42756 7.03387 -0.04307
C 3.5871 30.56651 0.00558
C 2.33674 29.8358 -0.0059
C 2.34442 28.46889 -0.01386
C 3.6786 27.78812 -0.02805
C 3.65544 26.31012 0.00081
C 2.49732 25.52155 0.00245
C 2.4645 24.08478 0.02728
C 3.77265 23.42148 -0.00039
C 3.7301 22.03476 0.0064
C 2.44276 21.31733 0.00211
C 6.13289 14.84669 -0.03113
C 2.43221 19.91879 -0.00449
C 3.71387 17.72831 0.02784
C 2.47648 17.05924 -0.01977
C 2.42035 15.63757 -0.00561
C 3.68024 14.9976 0.00208
C 3.67451 13.58277 0.01707
C 2.4604 12.75238 0.02769
C 2.50856 11.39666 -0.03291
C 3.70829 10.60005 -0.04999
C 3.63999 9.14373 0.04505
C 2.40517 8.46409 0.03284
C 3.65539 19.1865 -0.01979
C 11.02353 27.69843 0.02147
C 6.1292 13.43414 -0.02566
C 4.91073 11.45306 0.02322
C 7.33705 17.0862 0.03007
C 7.3225 15.61327 -0.00095
C 8.65504 14.95509 0.01572
C 8.65585 13.54956 -0.04848
C 7.36459 12.79019 -0.00892
C 7.38642 11.36015 -0.01362
C 8.65251 10.66193 -0.0008
C 8.64272 9.27258 0.0288
C 7.38857 8.56853 0.00393
C 7.32523 7.15455 0.00895
C 8.53771 6.41227 0.00685
C 8.62064 5.04312 0.02888
C 7.39587 4.36599 -0.00482
C 7.34098 2.97409 -0.01384
C 8.55457 2.25776 0.03693
C 8.52695 0.8725 0.01745
C 7.37545 0.01047 0.00488
C 9.74157 32.73234 -0.01004
C 10.99094 32.02319 -0.02896
C 11.03588 30.60075 -0.00131
C 9.84474 29.86163 -0.01118
C 8.53956 17.81266 0.00054
C 8.59793 19.26965 -0.00494
C 7.34936 19.94383 -0.00562
C 7.34261 21.31826 -0.01142
C 6.08286 10.70259 -0.00725
C 6.14231 9.23656 -0.05697
C 4.89814 8.48063 0.01087
C 4.82451 7.10822 -0.01343
C 6.08987 6.49649 0.00988
C 6.19807 5.03956 0.0276
C 4.99528 4.26867 0.01305
C 4.90448 2.83144 -0.00077
C 6.10822 2.12233 0.03368
C 6.07094 0.73941 -0.02929
C 4.88486 12.82835 -0.00094
C 4.83984 0.04088 -0.00966
C 8.52182 31.91173 0.01227
C 8.59301 30.47168 0.00873
C 7.34216 29.83374 -0.00049
C 7.33113 28.42202 0.00848
C 8.5186 27.72341 -0.01303
C 8.60231 26.23991 -0.01378
C 7.34977 25.6021 0.02635
C 7.43703 24.16839 0.0127
C 8.66108 23.50378 0.01396
C 8.60488 22.03314 0.01849
C 7.35697 32.69129 -0.03337
C 18.39936 2.22906 0.04892
C 18.34802 0.69109 -0.00111
C 17.15058 0.06469 -0.03557
C 29.52286 8.48229 -0.00971
C 29.57626 7.07415 0.01518
C 30.7705 6.36197 0.01908
C 30.7477 4.9717 0.07705
C 29.5953 4.28307 0.0103
C 29.51182 2.83866 0.02108
C 30.7303 2.12234 0.00716
C 30.69482 0.70387 0.00307
C 29.51016 34.06263 0.00346
C 32.04243 32.63823 0.01713
C 33.23453 31.91089 -0.01694
C 33.17042 30.48991 0.01428
C 31.9576 29.83632 -0.02142
C 31.91267 28.41084 0.0544
C 33.11224 27.67598 0.00026
C 33.14782 26.2786 0.00682
C 31.93817 25.50477 -0.01779
C 31.93741 24.06965 0.03794
C 33.16537 23.42414 0.01927
C 33.1474 22.044 0.01574
C 31.89513 21.33685 -0.02383
C 30.74324 9.114 -0.03735
C 30.68673 10.61336 -0.00944
C 29.50233 11.33175 -0.02155
C 29.54294 12.73187 -0.01461
C 27.14764 4.18445 0.01799
C 27.06261 2.76077 0.01699
C 28.31361 2.09629 -0.00416
C 28.30166 0.69523 0.01177
C 26.98361 0.02171 0.04266
C 29.5037 32.63642 0.01324
C 30.7699 31.97826 0.0014
C 30.78437 30.58888 0.00924
C 29.53116 29.84954 0.02326
C 29.47859 28.39723 0.00261
C 31.93838 19.91808 -0.01429
C 30.6863 27.66264 0.03265
C 30.72223 23.45984 -0.01854
C 30.66527 22.10705 -0.01415
C 29.51225 21.2222 -0.03039
C 29.50118 19.92705 0.01836
C 30.76779 19.20515 0.03531
C 30.69896 17.77342 -0.00669
C 29.5246 17.06698 0.0101
C 29.53223 15.6554 0.01705
C 30.67472 14.84974 -0.0405
C 30.75336 13.42603 -0.01303
C 30.75333 26.2766 -0.02049
C 28.33715 4.94384 0.01259
C 33.14958 19.12789 -0.0136
C 31.92672 16.98551 -0.02474
C 1.18833 21.96125 0.02712
C 34.37161 21.241 -0.02213
C 34.36487 19.83102 0.01951
C 1.18785 19.18566 -0.01678
C 1.23327 17.80811 0.01223
C 34.43111 17.07345 0.00648
C 34.39438 15.60158 0.02114
C 1.18222 14.8949 -0.02957
C 1.20887 13.45176 0.00343
C 34.4171 12.78139 -0.02656
C 0.01541 11.31043 -0.02442
C 1.3031 10.64217 -0.00027
C 1.20847 9.27248 -0.00583
C 34.41872 8.60119 -0.02302
C 34.41704 7.16571 -0.02849
C 1.18606 6.43875 0.02931
C 1.19028 5.02486 0.00628
C 34.41245 4.27065 -0.0345
C 34.43299 2.81426 -0.00931
C 1.20594 2.08852 -0.00939
C 1.23231 0.68439 -0.00468
C 1.18989 23.40805 0.00723
C 34.39467 24.20236 0.03076
C 34.37895 25.59928 -0.05239
C 1.23872 26.17983 -0.00598
C 31.88065 15.59752 0.00369
C 33.15484 14.90649 0.00455
C 33.16902 13.47035 -0.00644
C 31.98809 12.70967 -0.01839
C 31.94092 11.34523 0.00137
C 33.17981 10.63212 0.00199
C 33.18941 9.21874 0.04381
C 31.95132 8.51967 0.02806
C 32.02063 7.05433 0.01504
C 33.22931 6.41495 -0.00069
C 33.17534 17.69011 0.00594
C 33.20536 4.97451 0.04926
C 31.95871 2.78454 0.00349
C 33.21747 2.09006 -0.00323
C 33.18196 0.6838 -0.00841
C 31.94053 34.0536 0.0001
C 0.03498 32.64384 -0.02927
C 1.24614 31.96366 -0.01404
C 1.14324 30.56571 0.01027
C 34.42827 29.77144 0.01831
C 34.38852 28.30304 -0.01037
C 1.21242 27.66217 -0.00439
C 31.95446 4.27031 -0.03838
C 28.3598 6.38887 0.01495
C 27.03916 7.07625 0.00235
C 26.94503 8.52951 0.01094
C 22.10195 29.81966 0.00096
C 22.15614 28.30779 -0.01527
C 23.369 27.65946 0.01087
C 23.45771 26.20792 0.00199
C 22.24083 25.53304 0.01511
C 22.19314 24.12048 -0.00478
C 23.43616 23.34889 -0.01662
C 23.39107 21.92632 -0.01185
C 22.1202 21.27297 0.01126
C 22.18742 19.84045 0.01852
C 23.44899 19.13564 -0.00381
C 23.41129 17.69689 0.03046
C 22.17072 16.97744 0.0296
C 22.15213 15.5689 0.03374
C 23.39576 14.91002 -0.02845
C 23.3951 13.46723 -0.03213
C 22.11808 12.9033 0.02239
C 23.37195 10.59452 0.01153
C 23.3965 6.41625 0.02734
C 23.3926 5.0511 -0.0055
C 22.27674 4.19557 0.01515
C 23.31785 30.56632 0.01277
C 23.40525 31.93982 -0.02422
C 22.13314 32.61971 -0.01721
C 19.63301 0.02203 -0.01154
C 19.69088 32.73422 0.03754
C 20.90011 31.97636 0.01739
C 20.87496 30.55841 0.00755
C 19.61842 29.83623 -0.0054
C 19.69311 28.39316 0.00667
C 20.8922 27.70098 0.00143
C 20.95467 26.27663 -0.017
C 19.65643 25.56397 0.00364
C 19.67999 24.15952 -0.00831
C 20.94106 23.433 -0.02957
C 22.13845 2.85515 -0.00225
C 20.91378 22.00676 -0.04422
C 19.61138 19.90751 -0.00703
C 20.86563 19.18617 -0.04076
C 21.00855 17.77408 -0.00652
C 19.71542 17.09829 0.0058
C 19.69127 15.66306 -0.00865
C 20.83024 14.83852 0.00675
C 21.0495 13.43406 -0.00311
C 19.61561 2.82229 0.00742
C 20.77867 2.22291 -0.01594
C 20.8267 0.72706 0.0106
C 19.63863 21.26025 0.00654
C 23.38047 2.07459 0.00071
C 23.30353 0.69268 -0.01107
C 22.03518 34.01444 -0.01586
C 24.55001 2.87887 0.04306
C 25.76457 2.13268 0.00996
C 25.74942 0.7009 0.00195
C 24.50751 34.06184 -0.00802
C 27.01924 32.61622 -0.00218
C 28.28662 31.89443 -0.01654
C 28.30605 30.50316 -0.00037
C 27.04392 29.73261 -0.0032
C 27.03867 28.22553 0.00622
C 28.28394 27.69774 -0.02815
C 24.65437 4.26076 0.00367
C 27.00964 21.39308 -0.00942
C 28.25749 19.13207 0.00826
C 28.25713 17.69623 -0.00294
C 26.97588 17.09064 0.00152
C 26.99529 15.62352 0.01257
C 28.30806 14.99916 0.02316
C 28.31716 13.54771 0.04185
C 27.11316 12.79325 0.00194
C 27.06642 11.34506 -0.00621
C 28.27657 10.63511 0.02611
C 28.25013 9.19789 0.02198
C 27.07669 19.93906 0.00487
C 3.69541 31.89027 -0.02375
C 25.92813 4.95971 -0.01679
C 24.53574 7.11399 0.00684
C 24.59295 32.66363 -0.01971
C 25.82106 31.94308 -0.02118
C 25.8801 30.51311 0.00733
C 24.59446 29.92972 -0.00178
C 24.61026 28.43234 0.00768
C 25.73135 27.68452 -0.0276
C 24.68879 25.44331 0.03005
C 24.61705 24.17392 -0.04078
C 25.93721 22.1194 0.02117
C 24.67378 21.32248 0.02737
C 25.86205 6.38002 -0.01052
C 24.61056 19.8736 -0.00498
C 25.80613 17.8205 0.03102
C 24.68327 17.04397 0.02555
C 24.62604 15.59383 0.01423
C 25.79888 14.87187 -0.00285
C 25.82632 13.4085 -0.009
C 24.57285 12.73858 -0.01199
C 24.58262 11.24044 -0.00229
C 25.83243 10.65451 -0.00938
C 25.74371 9.23023 -0.0264
C 24.53584 8.53605 -0.01154
C 25.86439 19.18443 0.00135
C 2.49274 32.63482 0.00828
