343
Graphene
C 0.01533 0.02479 0.01295
C 11.12592 4.92467 0.01848
C 9.81598 4.32001 -0.00619
C 9.83091 2.88876 -0.02162
C 11.07194 2.11735 0.00889
C 11.0878 0.75889 -0.00481
C 9.84398 0.00632 0.00979
C 12.25873 32.64958 0.01443
C 13.47344 31.91363 0.03505
C 13.4864 30.43925 -0.02815
C 12.31132 12.76847 -0.04147
C 12.34623 11.40938 -0.05302
C 13.55056 10.61241 0.00213
C 13.55637 9.20438 -0.00066
C 12.33253 8.50495 -0.00289
C 12.30301 7.16755 0.00028
C 13.55254 6.36042 -0.02213
C 13.52121 4.91178 0.03698
C 11.02557 6.34571 0.02098
C 9.87635 7.01478 -0.03113
C 9.79767 8.47681 0.0351
C 11.01599 9.27219 0.00422
C 8.63784 4.93381 0.02299
C 7.36383 4.29789 0.00244
C 7.32235 2.89195 -0.01717
C 8.63938 2.15079 0.05265
C 8.61593 0.70699 -0.01952
C 7.37834 0.00961 -0.02813
C 9.84775 32.65988 0.00374
C 11.04151 31.94513 0.00052
C 12.30579 4.20681 -0.00109
C 11.12557 30.5727 -0.03682
C 9.84246 19.97221 0.02058
C 9.79224 17.05097 -0.01957
C 9.83901 15.69354 -0.0108
C 11.0842 14.84774 -0.00368
C 11.10293 13.46398 -0.02696
C 9.86051 12.79889 -0.00114
C 9.90604 11.36521 0.00228
C 11.0441 10.60755 0.00798
C 9.83042 21.28111 0.01965
C 8.61075 6.352 0.03542
C 12.23756 2.80107 -0.00491
C 13.55534 0.69995 -0.0258
C 17.26994 29.80711 -0.00703
C 17.24891 28.38563 -0.04076
C 18.4923 27.73049 -0.00652
C 17.19102 11.42864 0.0058
C 18.42361 10.68118 -0.00865
C 18.44339 9.1697 0.00675
C 17.21253 8.49157 -0.00311
C 17.233 7.13172 0.00742
C 18.46999 6.33433 -0.01594
C 18.42807 4.9591 0.0106
C 17.19951 4.28964 -0.01154
C 17.22008 2.82524 -0.01721
C 18.46949 2.18119 -0.02422
C 18.44141 0.66387 0.01277
C 17.20829 34.06684 0.00096
C 19.67678 32.65064 -0.01527
C 20.94536 31.88918 0.01087
C 18.39771 30.55169 0.00654
C 18.42537 31.9506 -0.04422
C 17.22666 32.62887 -0.02957
C 14.78872 34.06403 -0.00831
C 12.27885 0.02228 -0.0331
C 14.6962 32.66921 -0.00316
C 15.94679 31.9623 0.02188
C 15.95789 30.5663 -0.01979
C 14.72606 29.86901 0.02691
C 14.80575 28.39921 -0.01581
C 15.97131 27.69726 0.01452
C 14.76627 11.32415 0.04892
C 13.5243 2.13919 0.03338
C 16.01098 10.707 -0.00111
C 14.8069 8.53402 0.03754
C 14.77219 7.09441 0.01739
C 15.98657 6.34497 0.00755
C 15.96908 4.94065 -0.0054
C 14.74507 4.25713 0.00667
C 14.79866 2.85452 0.00143
C 15.96729 2.13044 -0.017
C 15.96814 0.74082 0.00364
C 15.94685 9.23217 -0.03557
C 20.89611 30.49973 0.00199
C 7.31809 7.12136 0.01416
C 8.61708 9.22603 -0.01454
C 2.49158 7.09391 0.00685
C 3.66987 6.36317 0.02888
C 3.6727 4.91486 -0.00482
C 2.41503 4.21969 -0.01384
C 2.47689 2.81227 0.03693
C 3.64911 2.10232 0.01745
C 3.6881 0.70267 0.00488
C 2.48211 0.01427 -0.01004
C 4.89092 32.7429 -0.02896
C 6.17034 31.93384 -0.00131
C 6.13293 30.52731 -0.01118
C 4.89523 29.83049 -0.014
C 4.92351 28.44967 0.02147
C 6.17418 27.65794 0.00373
C 6.14822 26.30146 -0.00191
C 4.9177 25.57874 0.00438
C 4.88574 24.15117 0.01291
C 2.46385 8.53449 0.00895
C 3.68923 9.29592 0.00393
C 3.71437 10.61866 0.0288
C 2.45756 11.41317 -0.0008
C 3.7091 30.54686 -0.00049
C 2.46001 29.82987 0.00848
C 2.42258 28.45512 -0.01303
C 3.7093 27.73973 -0.01378
C 3.69712 26.24744 0.02635
C 2.44632 25.56122 0.0127
C 2.42343 24.16222 0.01396
C 3.722 23.39986 0.01849
C 6.19984 23.44856 0.00093
C 3.68502 22.00819 -0.01142
C 2.53338 19.83152 -0.00494
C 3.7199 19.15253 0.00054
C 3.64354 17.71793 0.03007
C 2.43702 17.1038 -0.00095
C 2.43611 15.63073 0.01572
C 3.69168 14.88964 -0.04848
C 3.67609 13.50144 -0.00892
C 2.48508 12.78162 -0.01362
C 2.42338 21.25426 -0.00562
C 7.40869 8.51792 0.01945
C 6.08095 21.97354 0.00057
C 4.92018 19.95389 -0.00334
C 7.38194 29.86269 -0.01046
C 7.38706 28.40361 -0.00891
C 7.41421 25.59604 0.02819
C 7.40147 24.09312 0.00165
C 8.64361 23.44896 -0.02971
C 8.64268 22.06576 0.02894
C 7.36487 21.33946 -0.01789
C 7.36001 19.88475 0.00444
C 8.57207 19.12262 -0.00925
C 8.60046 17.72978 0.01877
C 7.42275 17.03891 0.01363
C 7.38957 15.58299 -0.02162
C 8.59105 14.93734 0.00415
C 8.62679 13.5512 -0.0014
C 7.3523 12.79143 0.02162
C 7.43219 11.3359 0.0076
C 8.66328 10.64114 0.01241
C 8.62735 30.57557 -0.02689
C 8.56389 31.84 -0.01536
C 7.36094 32.64468 0.03101
C 4.86632 0.04166 -0.00428
C 6.10647 19.13762 0.02339
C 6.1666 17.75791 0.01641
C 4.92847 17.07179 -0.00719
C 4.89667 15.65938 0.01364
C 6.18083 14.89036 -0.01062
C 6.12511 13.52374 -0.00033
C 4.89888 12.80094 0.03589
C 4.94387 11.3715 -0.02759
C 4.9068 21.30662 -0.01634
C 6.16211 10.65845 0.0402
C 4.9272 8.57272 0.03592
C 4.89917 7.11324 0.00406
C 6.10333 6.42463 0.00943
C 6.17808 4.97476 0.02841
C 4.92187 4.30254 -0.01111
C 4.9151 2.89124 -0.01275
C 6.17911 2.18224 0.00985
C 6.1071 0.7907 -0.02245
C 6.12067 9.26357 0.00572
C 3.73023 31.98625 0.00873
C 19.60171 29.81818 0.01511
C 20.91296 27.73253 -0.01662
C 30.76889 0.69194 -0.02142
C 29.55234 34.05889 0.0544
C 31.95027 32.70527 0.00026
C 33.16193 31.9885 0.00682
C 33.20736 30.53309 -0.01779
C 31.92525 29.82305 0.03794
C 31.95116 28.42315 0.01927
C 33.21499 27.66063 0.01574
C 33.24369 26.26112 -0.02383
C 31.944 25.61142 -0.01429
C 31.9472 24.16729 -0.0136
C 33.23093 23.49202 0.00594
C 33.21994 21.98005 -0.02474
C 31.98716 21.29055 0.00369
C 31.9477 19.85379 0.00455
C 33.2293 19.15746 -0.00644
C 33.17161 17.7797 -0.01839
C 30.67752 2.1299 0.01428
C 29.47688 2.8276 -0.01694
C 29.47166 4.21581 0.01713
C 30.759 4.98648 0.00346
C 30.69319 30.51939 0.03531
C 29.52659 29.83889 -0.00669
C 29.5082 28.36918 0.0101
C 30.7411 27.68562 0.01705
C 30.76341 26.30254 -0.0405
C 29.55408 25.56818 -0.01303
C 29.52649 24.19008 -0.01461
C 30.74253 23.41521 -0.02155
C 31.95724 17.03225 0.00137
C 30.74666 21.99105 -0.00944
C 29.44903 19.9296 -0.00971
C 30.7859 19.16697 0.01518
C 30.76214 17.72397 0.01908
C 29.56841 17.01931 0.07705
C 29.49471 15.63108 0.0103
C 30.74081 14.94946 0.02108
C 30.75232 13.46722 0.00716
C 29.49869 12.76641 0.00307
C 29.50913 21.30962 -0.03735
C 30.7308 31.96172 0.01836
C 31.99886 15.64967 0.00199
C 33.21117 13.40653 0.02806
C 1.25207 17.71329 0.01223
C 0.0127 17.03338 0.00648
C 34.41325 15.64213 0.02114
C 1.22558 14.87037 -0.02957
C 1.18974 13.50676 0.00343
C 0.04091 12.70895 -0.02656
C 34.3806 11.32584 -0.02442
C 1.18182 10.69957 -0.00027
C 1.19804 9.20379 -0.00583
C 34.39868 8.55651 -0.02302
C 34.40259 7.11933 -0.02849
C 1.23186 6.32183 0.02931
C 1.24515 4.93872 0.00628
C 0.00124 4.26508 -0.0345
C 0.06128 2.81298 -0.00931
C 1.25104 2.07468 -0.00939
C 1.25311 0.71778 -0.00468
C 1.27664 19.15367 -0.01678
C 34.40891 19.87488 0.01951
C 0.00219 21.28259 -0.02213
C 1.20954 22.0264 0.02712
C 31.95494 12.81629 0.01504
C 33.22244 6.44347 -0.00069
C 33.19328 4.98352 0.04926
C 32.0063 4.31681 -0.03838
C 31.94088 2.88318 0.00349
C 33.20239 2.12402 -0.00323
C 33.2032 0.68682 -0.00841
C 32.01522 0.04027 0.0001
C 33.21299 14.90753 0.04381
C 34.39843 32.62305 -0.02927
C 1.22662 30.55611 0.01027
C 34.42853 29.83482 0.01831
C 0.03315 28.46221 -0.01037
C 1.19594 27.60621 -0.00439
C 1.20711 26.24688 -0.00598
C 34.42931 25.57396 -0.05239
C 0.042 24.15575 0.03076
C 1.17502 23.4149 0.00723
C 1.18763 31.97237 -0.01404
C 19.67144 28.35133 -0.00478
C 29.51862 32.66966 -0.03039
C 28.28737 0.65593 -0.01854
C 23.34763 10.71174 0.00768
C 23.36736 9.29461 -0.0276
C 22.13092 8.52592 0.03005
C 22.11185 7.07661 -0.04078
C 23.31141 6.37835 0.02117
C 23.33306 5.00064 0.02737
C 22.16196 4.30194 -0.00498
C 22.17976 2.8265 0.00135
C 23.37386 2.11004 0.03102
C 23.31996 0.72908 0.02555
C 22.13814 0.02204 0.01423
C 24.58833 32.7002 -0.00285
C 25.80586 31.96143 -0.009
C 25.8091 30.50752 -0.01199
C 24.57745 29.87197 -0.00229
C 24.63115 28.42336 -0.00938
C 25.83321 27.70043 -0.0264
C 22.10307 11.31527 -0.00178
C 22.13485 12.79286 0.00733
C 23.29564 13.46294 -0.02118
C 23.38368 26.33752 -0.01971
C 19.68253 11.28704 -0.01185
C 20.91518 10.60004 0.01126
C 20.85018 9.19815 0.01852
C 19.67336 8.51872 -0.00381
C 19.71314 7.0849 0.03046
C 20.85241 6.33118 0.0296
C 20.87466 4.9512 0.03374
C 19.69064 4.24738 -0.02845
C 25.82992 26.23306 -0.01154
C 19.64756 2.8499 -0.03213
C 20.94657 0.68126 0.01153
C 19.66428 34.05548 0.02734
C 22.15777 32.66695 -0.0055
C 23.34227 31.94522 0.01515
C 23.36126 30.49353 -0.00225
C 22.10751 29.82 0.00071
C 22.09745 28.37609 -0.01107
C 23.37631 27.69284 -0.01586
C 20.95135 2.14375 0.02239
C 27.03652 0.04915 -0.01415
C 24.4905 25.58682 0.00684
C 25.80774 14.87438 -0.01679
C 27.03953 24.07036 0.02198
C 28.27169 23.43533 0.01094
C 28.31823 22.00334 0.00235
C 27.07424 21.25909 0.01495
C 26.97767 19.94058 0.01259
C 28.22222 19.11165 0.01799
C 28.28578 17.72543 0.01699
C 27.06948 17.01011 -0.00416
C 27.04995 15.58373 0.01177
C 28.34302 14.84983 0.04266
C 28.31538 13.46961 0.01324
C 27.05132 12.76816 0.0014
C 27.07248 11.29955 0.00924
C 28.25306 4.90974 0.02326
C 27.03044 4.27335 0.00261
C 27.09242 2.7684 0.03265
C 28.35307 2.05908 -0.02049
C 27.04589 25.53751 0.02611
C 28.28169 26.26806 -0.00621
C 28.29901 27.69433 0.00194
C 27.06209 28.36591 0.04185
C 25.84898 13.51878 0.00367
C 24.57946 12.79268 0.04306
C 24.58033 11.38634 0.00996
C 25.87648 10.6374 0.00195
C 25.87514 9.2534 -0.00802
C 24.6379 8.58411 -0.00218
C 24.6 7.14033 -0.01654
C 25.84512 6.31455 -0.00037
C 25.80894 23.40072 -0.01052
C 25.86455 4.99653 -0.0032
C 24.57573 2.87855 -0.02815
C 25.80116 2.11821 -0.00942
C 25.81243 0.72263 0.00487
C 24.55152 0.01944 0.00826
C 27.0394 32.66417 -0.00294
C 28.31548 31.96734 0.00152
C 28.2777 30.58961 0.01257
C 27.0428 29.76353 0.02316
C 24.60792 4.30969 0.00622
C 2.49315 32.66929 0.01227
