425
Graphene
C 0.01485 34.01717 0.01295
C 12.29068 24.18729 0.00572
C 13.56725 23.42542 0.03592
C 13.56076 22.03473 0.00406
C 12.32283 21.32904 0.00943
C 12.31839 19.9423 0.02841
C 13.4851 19.06852 -0.01111
C 13.43782 17.72296 -0.01275
C 12.2402 17.01118 0.00985
C 12.31925 15.61934 -0.02245
C 13.52483 14.89524 -0.00428
C 12.26061 25.63283 0.0402
C 13.54284 13.45994 0.03101
C 12.29471 11.45285 -0.02689
C 13.51904 10.71198 -0.01046
C 13.55242 9.17274 -0.00891
C 12.32711 8.40504 0.02819
C 12.33475 7.01716 0.00165
C 13.55678 6.3112 -0.02971
C 13.51365 4.87007 0.02894
C 12.27686 4.1546 -0.01789
C 12.30356 2.7311 0.00444
C 13.54252 2.11151 -0.00925
C 12.31285 12.76675 -0.01536
C 13.54601 26.30212 -0.02759
C 13.44486 27.80111 0.03589
C 12.17592 28.47603 -0.00033
C 11.08253 19.21165 -0.01384
C 11.05824 17.80378 0.03693
C 9.81391 17.13075 0.01745
C 9.86333 15.72201 0.00488
C 11.03762 14.9035 -0.01004
C 11.0677 13.47934 -0.02896
C 9.8146 12.82097 -0.00131
C 9.94791 11.36045 -0.01118
C 11.08663 10.72487 -0.014
C 11.1319 9.25601 0.02147
C 9.87472 8.58175 0.00373
C 9.80726 7.15726 -0.00191
C 11.08008 6.30482 0.00438
C 10.98811 4.86974 0.01291
C 9.71297 4.29424 0.00093
C 9.81068 2.87782 0.00057
C 11.00807 2.13872 -0.01634
C 11.04379 0.73192 -0.00334
C 9.80592 0.079 0.02339
C 12.2541 32.7023 0.01641
C 13.51578 31.96371 -0.00719
C 13.47945 30.58775 0.01364
C 12.28101 29.93417 -0.01062
C 13.57281 0.73286 0.01877
C 9.88685 19.93168 -0.00482
C 12.31003 0.05567 0.01363
C 15.9459 31.95813 0.00415
C 16.10669 2.09359 0.0351
C 16.10892 0.71621 -0.03113
C 14.84032 0.0705 0.02098
C 17.17772 32.62594 0.01848
C 18.39067 31.87587 -0.00619
C 18.40932 30.40468 -0.02162
C 17.13629 29.74706 0.00889
C 17.20041 28.30941 -0.00481
C 18.37807 27.69624 0.00979
C 17.04142 25.38298 0.01443
C 14.7889 2.76845 0.00422
C 17.15063 21.31692 0.03505
C 18.27181 19.18417 -0.04147
C 18.32752 17.79375 -0.05302
C 17.10845 17.03539 0.00213
C 17.18906 15.6144 -0.00066
C 18.42298 14.94243 -0.00289
C 18.42944 13.49941 0.00028
C 17.18119 12.78959 -0.02213
C 17.26032 11.37826 0.03698
C 18.50552 10.6823 -0.00109
C 18.49077 9.26809 -0.00491
C 17.09107 19.92464 -0.02815
C 14.74536 4.11338 0.00798
C 15.98063 4.99705 0.00228
C 15.94564 6.39737 -0.00114
C 15.9456 30.52878 -0.0014
C 14.71849 29.9138 0.02162
C 14.73214 28.49148 0.0076
C 15.96681 27.67912 0.01241
C 15.94084 26.2466 -0.01454
C 14.74547 25.61664 0.01945
C 14.74436 24.20204 0.01416
C 15.99618 23.60314 0.03542
C 16.03385 22.14835 0.02299
C 14.79042 21.35455 0.00244
C 14.67253 19.92569 -0.01717
C 15.90546 19.22813 0.05265
C 15.88322 17.78009 -0.01952
C 14.65843 17.01835 -0.02813
C 14.74117 15.55639 0.00374
C 15.96251 14.89917 0.00052
C 16.00123 13.54679 -0.03682
C 14.78567 12.80359 0.01965
C 14.80604 11.31228 0.02058
C 16.03898 10.62933 -0.01957
C 16.0099 9.26396 -0.0108
C 14.76864 8.52956 -0.00368
C 14.7457 7.03267 -0.02696
C 14.78466 32.66875 -0.02162
C 9.87616 21.32627 0.02888
C 11.11771 22.07057 0.00685
C 11.07341 23.49496 0.00895
C 3.61516 2.23425 -0.00449
C 3.64558 0.769 -0.01979
C 2.44161 0.00646 0.02784
C 4.91277 32.67442 -0.01977
C 6.13138 31.97005 -0.00561
C 6.11777 30.57359 0.00208
C 4.93995 29.79271 0.01707
C 4.91302 28.395 0.02769
C 6.17965 27.72249 -0.03291
C 6.1586 26.33377 -0.04999
C 2.36685 2.87618 0.00211
C 4.90922 25.63413 0.04505
C 6.16512 23.46959 -0.04307
C 6.16758 22.03585 0.03189
C 4.95347 21.29678 0.00031
C 4.90337 19.90401 -0.003
C 6.13266 19.15963 0.01402
C 6.12999 17.72628 0.02379
C 4.93858 16.98302 0.00907
C 4.90956 15.54593 0.00643
C 6.12773 14.90293 -0.01509
C 6.09689 13.45276 0.03267
C 4.93129 24.1946 0.03284
C 2.36193 4.28135 0.0064
C 3.60682 4.97041 -0.00039
C 3.63593 6.42965 0.02728
C 3.72571 30.56452 -0.01471
C 2.49878 29.81546 -0.02827
C 2.48502 28.36258 0.01078
C 3.68318 27.63732 -0.00112
C 3.69907 26.29687 0.03345
C 2.52867 25.57537 0.00748
C 2.46181 24.19024 0.00662
C 3.68513 23.52087 -0.0154
C 3.65811 22.05357 -0.01299
C 2.44381 21.34401 -0.00407
C 2.42011 19.92802 0.01138
C 3.69073 19.23039 0.03278
C 3.70721 17.77386 -0.00177
C 2.48648 17.10224 0.04421
C 2.46429 15.59935 0.00088
C 3.68722 14.86774 0.00828
C 3.56723 13.44126 -0.02375
C 2.34625 12.71109 0.00558
C 2.31507 11.31567 -0.0059
C 3.56951 10.65682 -0.01386
C 3.60755 9.25249 -0.02805
C 2.39981 8.5494 0.00081
C 2.4031 7.1397 0.00245
C 4.86234 12.73737 0.02374
C 4.83355 11.30875 0.00402
C 6.0852 10.70315 0.0073
C 6.16048 9.33441 0.0174
C 8.56093 13.51639 0.01227
C 7.33546 12.82019 0.00873
C 7.34677 11.36075 -0.00049
C 8.65257 10.70824 0.00848
C 8.64176 9.30753 -0.01303
C 7.3712 8.63805 -0.01378
C 7.4134 7.15495 0.02635
C 8.57908 6.47613 0.0127
C 8.52617 5.03815 0.01396
C 7.28195 4.39488 0.01849
C 7.29368 2.9667 -0.01142
C 8.54894 2.19962 -0.00562
C 8.58029 0.73302 -0.00494
C 7.38312 0.04954 0.00054
C 9.81014 32.72999 0.03007
C 10.98517 31.96133 -0.00095
C 11.03492 30.59311 0.01572
C 9.81174 29.86148 -0.04848
C 9.88728 28.46207 -0.00892
C 11.02217 27.70412 -0.01362
C 10.9844 26.33938 -0.0008
C 9.82391 25.56436 0.0288
C 9.82294 24.16448 0.00393
C 8.60192 14.96584 -0.03337
C 17.21916 8.51839 0.03338
C 7.36608 15.66093 -0.00966
C 8.60255 17.80081 0.03368
C 4.91765 8.63513 0.03828
C 4.93147 7.14271 0.01226
C 6.10671 6.48806 -0.00279
C 6.10043 5.05233 0.01996
C 4.8773 4.30734 -0.03996
C 4.85406 2.90003 0.01465
C 6.08192 2.17997 -0.00074
C 6.14875 0.76433 -0.00518
C 4.92495 0.05974 0.0086
C 7.34271 32.70015 -0.00643
C 8.59807 32.05842 0.017
C 8.60331 30.55567 -0.03113
C 7.3448 29.8681 -0.02566
C 7.33466 28.46537 -0.00094
C 8.6067 27.74561 0.02322
C 8.6232 26.29512 -0.00725
C 7.39397 25.54509 -0.05697
C 7.40079 24.13808 0.01087
C 8.58807 23.40378 -0.01343
C 8.58284 22.08274 0.00988
C 7.37096 21.37068 0.0276
C 7.39365 19.89031 0.01305
C 8.66656 19.18288 -0.00077
C 7.4168 17.02865 -0.02929
C 3.76946 31.99878 0.01218
C 17.25611 7.11108 -0.0258
C 18.50966 5.00385 -0.00316
C 29.53806 11.33053 -0.02155
C 30.75173 10.61859 -0.00944
C 30.79832 9.261 -0.03735
C 29.52967 8.45542 -0.00971
C 29.49537 7.04934 0.01518
C 30.70968 6.31685 0.01908
C 30.68691 4.90841 0.07705
C 29.40329 4.26195 0.0103
C 29.42316 2.85032 0.02108
C 30.7122 2.09761 0.00716
C 29.52442 12.76832 -0.01461
C 30.76137 0.64797 0.00307
C 32.02943 32.6153 0.01713
C 33.28704 31.90507 -0.01694
C 33.26053 30.46316 0.01428
C 31.97458 29.74667 -0.02142
C 31.95682 28.37115 0.0544
C 33.21836 27.63181 0.00026
C 33.2218 26.15932 0.00682
C 31.9532 25.45056 -0.01779
C 31.88128 24.10914 0.03794
C 33.1581 23.43609 0.01927
C 29.49581 0.01533 0.00346
C 30.70387 13.47602 -0.01303
C 30.70772 14.90334 -0.0405
C 29.48203 15.65145 0.01705
C 28.30974 6.34545 0.01094
C 28.24809 5.00304 0.00235
C 27.05179 4.30263 0.01495
C 26.98928 2.882 0.01259
C 28.20361 2.12965 0.01799
C 28.21296 0.73001 0.01699
C 27.01129 0.07151 -0.00416
C 29.50102 32.69972 0.01177
C 30.83478 31.89619 0.04266
C 30.72062 30.49785 0.01324
C 29.54 29.80333 0.0014
C 29.49799 28.35057 0.00924
C 30.73624 27.62932 0.02326
C 30.71904 26.23576 0.00261
C 29.51033 25.59897 0.03265
C 29.46654 24.1258 -0.02049
C 30.65403 23.4299 -0.01854
C 30.63508 22.02226 -0.01415
C 29.44607 21.30895 -0.03039
C 29.50688 19.84325 0.01836
C 30.74145 19.14122 0.03531
C 30.75093 17.78326 -0.00669
C 29.51801 17.13005 0.0101
C 33.13782 22.02902 0.01574
C 27.05998 7.07792 0.02198
C 31.95929 21.27598 -0.02383
C 33.19817 19.20434 -0.0136
C 1.23282 23.42349 0.00723
C 1.15825 22.0188 0.02712
C 34.37001 21.29569 -0.02213
C 34.37888 19.89077 0.01951
C 1.22391 19.21262 -0.01678
C 1.31179 17.79737 0.01223
C 0.07684 17.03861 0.00648
C 0.00194 15.65794 0.02114
C 1.21227 14.91365 -0.02957
C 1.15571 13.53376 0.00343
C 34.40202 24.09357 0.03076
C 34.3502 12.763 -0.02656
C 1.11609 10.58347 -0.00027
C 1.11445 9.18889 -0.00583
C 34.36062 8.49023 -0.02302
C 34.41651 7.05846 -0.02849
C 1.17311 6.37714 0.02931
C 1.12774 4.97086 0.00628
C 34.36669 4.23519 -0.0345
C 34.36338 2.80213 -0.00931
C 1.15639 2.12243 -0.00939
C 1.2555 0.6668 -0.00468
C 34.35757 11.33343 -0.02442
C 0.07447 25.49809 -0.05239
C 1.28925 26.24301 -0.00598
C 1.27886 27.57578 -0.00439
C 33.20363 17.78346 0.00594
C 31.94827 17.10779 -0.02474
C 31.92378 15.60698 0.00369
C 33.22202 14.96953 0.00455
C 33.15274 13.53084 -0.00644
C 31.89044 12.82377 -0.01839
C 31.9451 11.35156 0.00137
C 33.16683 10.60985 0.00199
C 33.16567 9.19396 0.04381
C 32.02482 8.38411 0.02806
C 31.93249 6.98709 0.01504
C 33.1753 6.25432 -0.00069
C 33.08262 4.87102 0.04926
C 31.90415 4.16202 -0.03838
C 31.9236 2.81892 0.00349
C 33.1174 2.0906 -0.00323
C 33.17751 0.64413 -0.00841
C 31.98443 34.0658 0.0001
C 0.02463 32.61688 -0.02927
C 1.26009 31.93016 -0.01404
C 1.26897 30.47277 0.01027
C 0.03915 29.73305 0.01831
C 0.05693 28.34953 -0.01037
C 31.97176 19.8744 -0.01429
C 27.11076 8.54295 0.02611
C 28.3334 9.21167 -0.00621
C 28.30758 10.58917 0.00194
C 20.93497 2.06263 0.00742
C 20.91328 0.61856 -0.01594
C 19.65587 34.03347 0.0106
C 22.02488 32.62086 -0.01154
C 23.34814 31.92613 -0.01721
C 23.29809 30.52576 -0.02422
C 22.08825 29.82831 0.01277
C 22.54437 28.39876 0.00096
C 23.4395 19.25251 -0.01527
C 23.30129 17.8309 0.01087
C 19.68429 2.79598 -0.00311
C 22.06965 17.12525 0.00199
C 23.37857 14.99199 -0.00478
C 23.37195 13.50643 -0.01662
C 22.1114 12.85653 -0.01185
C 22.18811 11.39618 0.01126
C 23.4035 10.70589 0.01852
C 23.44976 9.27655 -0.00381
C 22.2265 8.54419 0.03046
C 22.17603 7.13618 0.0296
C 23.37796 6.41119 0.03374
C 23.33117 4.95628 -0.02845
C 22.0556 15.70926 0.01511
C 19.69966 4.2497 0.00675
C 20.93315 4.98776 -0.00865
C 20.92312 6.382 0.0058
C 17.26791 4.33201 0.02188
C 17.27008 2.85707 -0.01979
C 18.46523 2.09492 0.02691
C 18.45977 0.66612 -0.01581
C 17.23876 0.00102 0.01452
C 19.59768 32.61765 0.04892
C 20.82929 31.88942 -0.00111
C 20.83717 30.40959 -0.03557
C 19.73918 29.6518 0.03754
C 19.57518 28.3136 0.01739
C 19.48552 19.71379 0.00755
C 20.76556 19.12692 -0.0054
C 20.82383 17.79889 0.00667
C 19.61833 17.08979 0.00143
C 19.65052 15.65765 -0.017
C 20.86381 14.9792 0.00364
C 20.88508 13.51011 -0.00831
C 19.6631 12.78483 -0.02957
C 19.73949 11.39483 -0.04422
C 20.96139 10.73334 0.00654
C 20.97904 9.23968 -0.00703
C 19.76252 8.59393 -0.04076
C 19.67664 7.15189 -0.00652
C 22.1171 4.20036 -0.03213
C 22.10886 2.85758 0.02239
C 23.3624 2.11508 0.01153
C 23.33443 0.6537 0.02734
C 25.82605 0.72458 -0.01154
C 24.59612 34.01857 0.00684
C 27.00752 32.67042 -0.01052
C 28.30563 31.92914 -0.01679
C 28.24799 30.51948 0.00367
C 27.05132 29.78262 0.04306
C 26.89421 28.31023 0.00996
C 28.17034 27.5817 0.00195
C 28.16126 26.16584 -0.00802
C 26.83605 25.34584 -0.00218
C 26.87231 23.91723 -0.01654
C 28.22799 23.39411 -0.00037
C 28.19897 22.04795 -0.0032
C 26.95532 21.31571 0.00622
C 27.04752 19.88691 -0.02815
C 28.26002 19.20045 -0.00942
C 28.29141 17.83284 0.00487
C 27.05681 17.12575 0.00826
C 27.09369 15.68506 -0.00294
C 28.28976 14.89838 0.00152
C 28.33104 13.51672 0.01257
C 27.02794 12.77465 0.02316
C 27.08606 11.33263 0.04185
C 25.74375 2.10014 -0.0264
C 18.46564 6.37692 -0.0331
C 24.57117 2.84435 -0.00938
C 25.84925 4.96573 -0.01199
C 22.11489 34.04243 -0.0055
C 24.64649 32.64999 0.01515
C 25.82248 31.92992 -0.00225
C 25.80622 30.56176 0.00071
C 24.60028 29.83877 -0.01107
C 24.28046 28.47287 -0.01586
C 25.54784 27.66579 -0.01971
C 25.85395 26.30763 -0.02118
C 25.67419 21.79503 0.00733
C 24.64785 19.94525 -0.00178
C 25.82117 19.20288 0.00768
C 25.79556 17.83354 -0.0276
C 24.54237 17.20155 0.03005
C 24.61313 15.6957 -0.04078
C 25.86878 14.88665 0.02117
C 25.82471 13.4473 0.02737
C 24.60642 12.75451 -0.00498
C 24.64213 11.40694 0.00135
C 25.86613 10.64002 0.03102
C 25.86343 9.20408 0.02555
C 24.67384 8.5592 0.01423
C 24.62702 7.1304 -0.00285
C 25.82716 6.40723 -0.009
C 24.53165 4.28468 -0.00229
C 2.46002 32.62947 0.02426
