387
Graphene
C 34.36087 34.02909 0.01295
C 12.35078 28.45141 0.00415
C 12.20044 15.74073 -0.0014
C 13.41126 15.05141 0.02162
C 13.48691 13.63735 0.0076
C 12.32727 12.88611 0.01241
C 12.35787 11.52193 -0.01454
C 13.56926 10.77838 0.01945
C 13.50846 9.27749 0.01416
C 12.33696 8.65992 0.03542
C 12.25877 29.85376 -0.02162
C 12.25829 7.21609 0.02299
C 13.53262 4.93436 -0.01717
C 12.30043 4.25261 0.05265
C 12.26095 2.87975 -0.01952
C 13.57682 2.05881 -0.02813
C 13.49239 0.62713 0.00374
C 12.25798 34.04012 0.00052
C 14.82236 32.59045 -0.03682
C 15.98964 31.80087 0.01965
C 16.04709 30.4328 0.02058
C 13.44253 6.35212 0.00244
C 14.67963 29.79117 -0.01957
C 13.51552 30.46148 0.01363
C 12.2815 32.59347 -0.00925
C 9.85308 29.87973 0.03592
C 9.86063 28.39859 0.00406
C 11.09701 27.84114 0.00943
C 9.93116 17.00451 0.02841
C 9.74306 15.61713 -0.01111
C 10.99285 14.94361 -0.01275
C 11.04502 13.57898 0.00985
C 9.80443 12.84486 -0.02245
C 9.87689 11.40501 -0.00428
C 13.4695 31.94272 0.01877
C 11.15677 10.74792 0.03101
C 9.8516 8.62685 -0.02689
C 9.78403 7.13095 -0.01046
C 11.03715 6.48126 -0.00891
C 11.04512 5.04828 0.02819
C 9.79716 4.26729 0.00165
C 9.78003 2.87897 -0.02971
C 11.06456 2.15135 0.02894
C 11.05129 0.71315 -0.01789
C 9.7791 0.06726 0.00444
C 11.14322 9.26867 -0.01536
C 15.96958 13.54376 -0.0108
C 14.8106 12.85713 -0.00368
C 14.79756 11.44363 -0.02696
C 17.16795 4.25836 -0.00491
C 17.21782 2.78831 0.03338
C 18.36937 2.02569 -0.0258
C 18.34285 0.63132 -0.0331
C 17.18033 33.91284 -0.00316
C 19.6275 32.55966 0.02188
C 20.90329 32.02653 -0.01979
C 20.85222 30.5305 0.02691
C 19.62835 29.81227 -0.01581
C 18.38755 4.93714 -0.00109
C 19.69133 28.42423 0.01452
C 19.67706 15.4444 -0.00111
C 20.8936 14.94282 -0.03557
C 20.90086 13.46833 0.03754
C 19.69547 12.74008 0.01739
C 19.5751 11.34121 0.00755
C 20.77687 10.62806 -0.0054
C 20.79557 9.20706 0.00667
C 19.59739 8.46296 0.00143
C 19.65006 7.05207 -0.017
C 20.9304 27.77846 0.04892
C 18.48428 6.33613 0.03698
C 17.16723 7.15539 -0.02213
C 17.17328 8.56425 0.00028
C 15.90244 10.5935 -0.00114
C 15.9297 9.19394 0.00228
C 14.65028 8.52725 0.00798
C 14.66966 7.04269 0.00422
C 15.93694 6.40668 0.0351
C 15.96506 4.92319 -0.03113
C 14.79384 4.17409 0.02098
C 14.78418 2.75277 0.01848
C 16.04344 2.03545 -0.00619
C 16.01223 0.63286 -0.02162
C 14.79457 33.98113 0.00889
C 17.17823 32.53413 -0.00481
C 18.42471 31.96879 0.00979
C 18.37925 30.51149 0.01443
C 17.24726 29.76746 0.03505
C 18.38536 14.76237 -0.02815
C 18.41988 13.41432 -0.04147
C 17.11125 12.67752 -0.05302
C 17.09579 11.24594 0.00213
C 18.41042 10.59839 -0.00066
C 18.38764 9.23253 -0.00289
C 11.05397 30.5741 0.00572
C 20.80553 6.31293 0.00364
C 11.03405 31.9705 0.0402
C 7.322 0.02183 0.03589
C 3.6265 5.05184 -0.00643
C 2.3475 4.30474 0.017
C 2.36352 2.96073 -0.03113
C 3.62114 2.17796 -0.02566
C 3.67024 0.77277 -0.00094
C 2.45628 0.07284 0.02322
C 4.86539 32.76341 -0.00725
C 6.12788 31.93668 -0.05697
C 6.12254 30.56313 0.01087
C 3.59287 6.39887 0.0086
C 4.86495 29.90656 -0.01343
C 6.11737 27.75452 0.0276
C 6.09745 26.36036 0.01305
C 4.8637 25.57229 -0.00077
C 4.95709 24.15756 0.03368
C 6.1295 23.51752 -0.02929
C 6.21695 22.0723 -0.00966
C 5.05094 21.39428 -0.03337
C 4.94945 19.91224 0.01227
C 6.08154 19.1684 0.00873
C 4.87965 28.5088 0.00988
C 6.12167 17.80976 -0.00049
C 2.39878 7.12786 -0.00518
C 3.65647 9.20067 0.01465
C 3.64091 30.60986 0.03284
C 2.41719 29.88272 -0.04307
C 2.4407 28.44732 0.03189
C 3.65229 27.76624 0.00031
C 3.66386 26.32803 -0.003
C 2.38395 25.55629 0.01402
C 2.52631 24.18751 0.02379
C 3.71394 23.39895 0.00907
C 3.79564 22.03516 0.00643
C 2.41006 8.57522 -0.00074
C 2.51064 21.33579 -0.01509
C 3.71216 19.22801 0.02374
C 3.68745 17.79446 0.00402
C 2.46778 17.08804 0.0073
C 2.47731 15.66334 0.0174
C 3.61277 14.88936 0.03828
C 3.67052 13.5035 0.01226
C 2.45182 12.80731 -0.00279
C 2.35042 11.43289 0.01996
C 3.54955 10.71232 -0.03996
C 2.51016 19.87747 0.03267
C 4.91709 17.08568 0.00848
C 4.84901 15.66208 -0.01303
C 6.11015 14.93173 -0.01378
C 7.46195 21.38458 -0.01004
C 7.38262 19.87494 -0.02896
C 8.45935 19.17481 -0.00131
C 8.72717 17.82917 -0.01118
C 7.37384 17.04362 -0.014
C 7.41648 15.66275 0.02147
C 8.49619 14.88941 0.00373
C 8.55583 13.50404 -0.00191
C 7.38607 12.80056 0.00438
C 8.53174 22.18204 0.00488
C 7.40067 11.38508 0.01291
C 8.64858 9.28576 0.00057
C 7.37757 8.62172 -0.01634
C 7.30243 7.22971 -0.00334
C 8.51038 6.45142 0.02339
C 8.58345 5.01663 0.01641
C 7.33017 4.33063 -0.00719
C 7.30526 2.88328 0.01364
C 8.53558 2.1712 -0.01062
C 8.53973 0.74994 -0.00033
C 8.60096 10.66732 0.00093
C 8.43879 23.55435 0.01745
C 7.31304 24.23691 0.03693
C 7.33088 25.72258 -0.01384
C 6.17011 13.50362 0.02635
C 4.87939 12.7834 0.0127
C 4.79139 11.3542 0.01396
C 6.08027 10.71299 0.01849
C 6.07422 9.29972 -0.01142
C 4.8962 8.53867 -0.00562
C 4.90703 7.13744 -0.00494
C 6.12592 6.47305 0.00054
C 6.17174 5.07435 0.03007
C 4.87352 4.359 -0.00095
C 4.86423 2.92632 0.01572
C 6.07434 2.22666 -0.04848
C 6.11398 0.74299 -0.00892
C 4.92414 0.08725 -0.01362
C 7.34199 32.60489 -0.0008
C 8.57355 32.02 0.0288
C 8.59205 30.58811 0.00393
C 7.40888 29.89094 0.00895
C 7.28997 28.49851 0.00685
C 8.5096 27.66157 0.02888
C 8.71565 26.26493 -0.00482
C 9.84584 32.69727 -0.02759
C 3.61602 32.05698 0.04505
C 20.82073 4.86953 -0.00831
C 19.62246 2.74707 -0.04422
C 30.63492 5.04016 0.07705
C 29.44653 4.3481 0.0103
C 29.44626 2.85474 0.02108
C 30.68894 2.13442 0.00716
C 30.61891 0.68097 0.00307
C 29.44562 34.02213 0.00346
C 31.96412 32.62861 0.01713
C 33.12201 31.85556 -0.01694
C 33.17476 30.46397 0.01428
C 30.60946 6.44414 0.01908
C 31.89345 29.78544 -0.02142
C 33.18471 27.6401 0.00026
C 33.10243 26.26334 0.00682
C 31.88632 25.54415 -0.01779
C 31.92541 24.02332 0.03794
C 33.23387 23.35698 0.01927
C 33.22312 21.96671 0.01574
C 31.9711 21.33672 -0.02383
C 32.02967 19.92475 -0.01429
C 33.21641 19.16491 -0.0136
C 31.94954 28.39448 0.0544
C 33.30122 17.78032 0.00594
C 29.38134 7.1561 0.01518
C 30.64346 9.19989 -0.03735
C 30.69402 30.55859 0.01324
C 29.52443 29.74296 0.0014
C 29.43249 28.32377 0.00924
C 30.74174 27.64047 0.02326
C 30.66588 26.17539 0.00261
C 29.4648 25.51654 0.03265
C 29.4018 24.081 -0.02049
C 30.66522 23.31913 -0.01854
C 30.77139 21.96607 -0.01415
C 29.42722 8.56875 -0.00971
C 29.53138 21.27316 -0.03039
C 30.79622 19.21908 0.03531
C 30.81662 17.8159 -0.00669
C 29.56218 17.05355 0.0101
C 29.55553 15.73272 0.01705
C 30.72561 14.99847 -0.0405
C 30.7601 13.5965 -0.01303
C 29.49032 12.86916 -0.01461
C 29.48363 11.45635 -0.02155
C 30.64359 10.6615 -0.00944
C 29.59707 19.93777 0.01836
C 32.04895 17.04852 -0.02474
C 31.96633 15.70575 0.00369
C 33.23292 14.98077 0.00455
C 0.03582 21.33822 -0.02213
C 34.42487 19.87985 0.01951
C 1.20977 19.20433 -0.01678
C 1.26705 17.83479 0.01223
C 0.0719 17.08796 0.00648
C 0.06506 15.73989 0.02114
C 1.1946 14.93606 -0.02957
C 1.1978 13.52944 0.00343
C 34.41189 12.8221 -0.02656
C 1.26016 22.05332 0.02712
C 34.24743 11.42787 -0.02442
C 1.15723 9.36272 -0.00583
C 34.35409 8.55632 -0.02302
C 34.31341 7.19287 -0.02849
C 1.09923 6.45007 0.02931
C 1.09323 5.08206 0.00628
C 34.29294 4.3032 -0.0345
C 34.323 2.85783 -0.00931
C 1.12826 2.13983 -0.00939
C 1.13264 0.74368 -0.00468
C 1.09521 10.77103 -0.00027
C 1.25985 23.44189 0.00723
C 34.4281 24.11968 0.03076
C 34.31421 25.53423 -0.05239
C 33.19434 13.52571 -0.00644
C 32.01984 12.78694 -0.01839
C 31.86996 11.42716 0.00137
C 33.11034 10.67626 0.00199
C 33.09176 9.25724 0.04381
C 31.82134 8.54149 0.02806
C 31.78195 7.12509 0.01504
C 33.05547 6.47488 -0.00069
C 33.0924 5.05108 0.04926
C 31.91725 4.28914 -0.03838
C 31.89773 2.81636 0.00349
C 33.13168 2.12197 -0.00323
C 33.13933 0.67084 -0.00841
C 31.88708 34.01356 0.0001
C 34.38661 32.55454 -0.02927
C 1.23581 31.8988 -0.01404
C 1.18562 30.49773 0.01027
C 34.40084 29.74086 0.01831
C 0.01924 28.32611 -0.01037
C 1.18952 27.63891 -0.00439
C 1.14313 26.19563 -0.00598
C 30.7088 31.96252 0.04266
C 19.62511 4.15376 -0.02957
C 29.52179 32.59315 0.01177
C 28.24961 0.70956 0.01699
C 23.2701 6.4193 0.01852
C 23.27144 5.03828 -0.00381
C 22.06528 4.26713 0.03046
C 22.11121 2.79977 0.0296
C 23.33278 2.09531 0.03374
C 23.25215 0.65758 -0.02845
C 22.03676 34.03089 -0.03213
C 24.58179 32.57159 0.02239
C 25.82765 31.88198 0.01153
C 22.09301 7.0826 0.01126
C 25.86084 30.51093 0.02734
C 24.60714 28.32983 0.01515
C 25.7871 27.65002 -0.00225
C 25.75217 26.18892 0.00071
C 24.45201 25.45505 -0.01107
C 24.51703 24.10375 -0.01586
C 25.7879 23.3787 -0.01971
C 25.90181 21.99203 -0.02118
C 24.66584 21.25855 0.00733
C 24.6931 19.85756 -0.00178
C 24.57351 29.78393 -0.0055
C 25.92945 19.06379 0.00768
C 22.0127 8.53038 -0.01185
C 23.29382 10.71394 -0.00478
C 20.8717 2.09714 0.00654
C 20.88448 0.76239 -0.00703
C 19.58375 34.01307 -0.04076
C 22.14988 32.61897 -0.00652
C 23.38559 31.91872 0.0058
C 23.34668 30.52277 -0.00865
C 22.08409 29.80328 0.00675
C 22.1171 28.29953 -0.00311
C 23.38419 27.57241 0.00742
C 23.26499 9.22106 -0.01662
C 23.22297 26.26219 -0.01594
C 23.52906 21.94374 -0.01154
C 23.46796 19.2294 -0.01721
C 23.3639 17.83209 -0.02422
C 22.18023 17.08194 0.01277
C 22.14874 15.56375 0.00096
C 23.35222 14.84684 -0.01527
C 23.29805 13.40366 0.01087
C 22.08484 12.72852 0.00199
C 22.02121 11.34911 0.01511
C 23.39929 23.279 0.0106
C 25.89138 17.69591 -0.0276
C 24.63124 17.0361 0.03005
C 24.50923 15.65884 -0.04078
C 28.32165 21.99125 -0.0032
C 27.12802 21.24206 0.00622
C 27.1086 19.85017 -0.02815
C 28.3483 19.16176 -0.00942
C 28.4014 17.76726 0.00487
C 27.07844 17.09055 0.00826
C 27.08891 15.711 -0.00294
C 28.20651 14.93492 0.00152
C 28.16522 13.45249 0.01257
C 28.1862 23.38066 -0.00037
C 26.93104 12.7628 0.02316
C 28.18229 10.75876 0.00194
C 28.2369 9.31585 -0.00621
C 26.94954 8.59206 0.02611
C 26.94083 7.14222 0.02198
C 28.11457 6.48965 0.01094
C 28.21622 5.04303 0.00235
C 26.99505 4.2457 0.01495
C 27.0712 2.80858 0.01259
C 28.24586 2.11061 0.01799
C 26.93089 11.39325 0.04185
C 27.01952 24.08272 -0.01654
C 26.99462 25.48832 -0.00218
C 28.21719 26.13867 -0.00802
C 25.75425 15.03818 0.02117
C 25.80968 13.52303 0.02737
C 24.58508 12.81593 -0.00498
C 24.55978 11.38005 0.00135
C 25.73877 10.64899 0.03102
C 25.72951 9.28701 0.02555
C 24.4893 8.53346 0.01423
C 24.48703 7.10337 -0.00285
C 25.70051 6.36026 -0.009
C 25.77362 4.94661 -0.01199
C 24.49842 4.27013 -0.00229
C 24.50137 2.80885 -0.00938
C 25.78697 2.13597 -0.0264
C 25.77812 0.6394 -0.01154
C 24.56368 0.00602 0.00684
C 27.08611 32.61095 -0.01052
C 28.29231 31.85092 -0.01679
C 28.25062 30.4486 0.00367
C 27.04639 29.72715 0.04306
C 26.99561 28.37293 0.00996
C 28.22598 27.57508 0.00195
C 27.0672 34.02601 -0.00416
C 2.38511 32.70415 -0.04999
