417
Graphene
C 34.38343 34.01243 0.01295
C 13.5545 5.02816 -0.01111
C 12.29496 4.29568 -0.01275
C 12.30493 2.85503 0.00985
C 13.5296 2.11811 -0.02245
C 13.51751 0.72029 -0.00428
C 12.22677 0.05971 0.03101
C 14.68244 32.54645 -0.01536
C 15.8942 31.93758 -0.02689
C 15.89542 30.49759 -0.01046
C 14.68857 29.81578 -0.00891
C 13.4793 6.47191 0.02841
C 14.65517 28.29099 0.02819
C 15.94627 26.31751 -0.02971
C 15.94188 14.71063 0.02894
C 16.04312 13.39156 -0.01789
C 14.83459 12.73873 0.00444
C 14.78014 11.34883 -0.00925
C 16.00968 10.71828 0.01877
C 16.01412 9.24663 0.01363
C 14.69069 8.54629 -0.02162
C 14.72525 7.14434 0.00415
C 16.11124 6.329 -0.0014
C 15.97226 27.75294 0.00165
C 15.95403 5.00288 0.02162
C 12.23448 7.19581 0.00943
C 13.53182 9.28455 0.03592
C 9.84104 11.51621 -0.00131
C 11.0887 10.78476 -0.01118
C 11.09699 9.35242 -0.014
C 9.87786 8.66532 0.02147
C 9.88156 7.25605 0.00373
C 11.0627 6.46976 -0.00191
C 11.08229 5.01923 0.00438
C 9.8045 4.45567 0.01291
C 9.83513 2.93721 0.00093
C 11.04588 2.19807 0.00057
C 12.30682 8.59518 0.00406
C 11.04504 0.79195 -0.01634
C 12.28686 32.63608 0.02339
C 13.49012 31.95433 0.01641
C 13.47294 30.48023 -0.00719
C 12.22562 29.79482 0.01364
C 12.29023 28.39834 -0.01062
C 13.47332 27.50196 -0.00033
C 13.68901 13.59634 0.03589
C 12.44663 12.84783 -0.02759
C 12.34692 11.47666 0.0402
C 13.55125 10.73605 0.00572
C 9.79119 0.08506 -0.00334
C 9.81873 12.89015 -0.02896
C 14.73717 4.33971 0.0076
C 15.97063 2.15067 -0.01454
C 17.30114 7.10097 -0.00619
C 18.4991 6.36979 -0.02162
C 18.4743 4.90675 0.00889
C 17.24795 4.2907 -0.00481
C 17.21401 2.82212 0.00979
C 18.43949 2.18604 0.01443
C 18.39724 0.68756 0.03505
C 17.12462 34.02564 -0.02815
C 19.57468 32.64644 -0.04147
C 20.81165 31.98742 -0.05302
C 17.19065 8.4957 0.01848
C 20.81674 30.55161 0.00213
C 19.56634 28.41493 -0.00289
C 20.81433 27.70966 0.00028
C 20.7902 26.26807 -0.02213
C 19.46501 25.5549 0.03698
C 19.59218 24.09787 -0.00109
C 20.81625 23.44891 -0.00491
C 20.82967 22.03329 0.03338
C 19.64343 21.30115 -0.0258
C 19.71191 19.87047 -0.0331
C 20.92644 19.18478 -0.00316
C 19.58341 29.83034 -0.00066
C 14.75896 2.88703 0.01241
C 18.42577 9.1862 0.02098
C 17.26005 11.30991 0.0351
C 15.91649 0.76826 0.01945
C 14.74595 34.07112 0.01416
C 17.13838 32.62852 0.03542
C 18.36532 31.90319 0.02299
C 18.28458 30.51732 0.00244
C 17.10272 29.84538 -0.01717
C 17.16645 28.46517 0.05265
C 18.38961 27.65763 -0.01952
C 18.29726 26.19058 -0.02813
C 17.04579 25.46486 0.00374
C 18.44151 10.57634 -0.03113
C 17.14169 24.06806 0.00052
C 18.45734 22.06069 0.01965
C 17.26008 21.21557 0.02058
C 17.33538 19.99155 -0.01957
C 18.55146 19.10737 -0.0108
C 18.53857 17.68314 -0.00368
C 17.21256 17.13576 -0.02696
C 17.08067 15.6416 -0.00114
C 18.36305 14.88433 0.00228
C 18.41097 13.43444 0.00798
C 17.27919 12.62699 0.00422
C 18.39513 23.45705 -0.03682
C 11.08227 13.55884 -0.01004
C 10.8328 14.97524 0.00488
C 9.80597 15.63859 0.01745
C 2.35251 2.92061 0.02769
C 3.59834 2.15632 -0.03291
C 3.54025 0.78069 -0.04999
C 2.36519 34.02314 0.04505
C 4.85629 32.72981 0.03284
C 6.06992 32.00919 -0.04307
C 6.13618 30.56006 0.03189
C 4.89662 29.86743 0.00031
C 4.95589 28.44867 -0.003
C 6.18815 27.71197 0.01402
C 2.38644 4.24941 0.01707
C 6.20369 26.24587 0.02379
C 4.91158 24.19969 0.00643
C 6.19338 23.46431 -0.01509
C 6.18352 22.03423 0.03267
C 4.85917 21.3149 0.02374
C 4.86978 19.96893 0.00402
C 6.08306 19.19354 0.0073
C 6.13859 17.78202 0.0174
C 4.91631 17.06823 0.03828
C 4.86626 15.65309 0.01226
C 6.06413 14.96576 -0.00279
C 4.93275 25.5517 0.00907
C 6.11912 13.52082 0.01996
C 3.59061 5.04846 0.00208
C 2.41461 7.12364 -0.01977
C 3.62021 30.56692 -0.01299
C 2.42618 29.87891 -0.00407
C 2.39344 28.3304 0.01138
C 3.72294 27.69776 0.03278
C 3.67913 26.2461 -0.00177
C 2.45752 25.51306 0.04421
C 2.48102 24.1169 0.00088
C 3.69385 23.45508 0.00828
C 3.64276 22.05141 -0.02375
C 2.4213 21.32364 0.00558
C 3.67534 6.37702 -0.00561
C 2.38669 19.86742 -0.0059
C 3.73499 17.7992 -0.02805
C 2.43416 17.105 0.00081
C 2.46245 15.66571 0.00245
C 3.6614 14.90861 0.02728
C 3.71871 13.54509 -0.00039
C 2.41247 12.74467 0.0064
C 2.40778 11.38564 0.00211
C 3.62295 10.67225 -0.00449
C 3.62118 9.21358 -0.01979
C 2.44134 8.49474 0.02784
C 3.64245 19.17146 -0.01386
C 4.95476 12.82171 -0.03996
C 4.93776 11.31045 0.01465
C 6.08861 10.66953 -0.00074
C 7.40752 12.78021 0.0127
C 7.32387 11.3576 0.01396
C 8.58565 10.74589 0.01849
C 8.60534 9.32544 -0.01142
C 7.38868 8.59135 -0.00562
C 7.39253 7.16219 -0.00494
C 8.61137 6.49803 0.00054
C 8.57738 5.0354 0.03007
C 7.35437 4.33847 -0.00095
C 7.3841 2.91628 0.01572
C 8.60429 13.6003 0.02635
C 8.60182 2.23937 -0.04848
C 7.34727 0.0944 -0.01362
C 9.81665 32.77848 -0.0008
C 11.01945 31.9647 0.0288
C 11.05209 30.53469 0.00393
C 9.76612 29.924 0.00895
C 9.82511 28.49296 0.00685
C 11.02132 27.80943 0.02888
C 11.15044 26.41804 -0.00482
C 9.93785 25.65008 -0.01384
C 9.73343 24.21209 0.03693
C 8.55086 0.79892 -0.00892
C 8.53917 14.97101 -0.01378
C 7.30746 15.72421 -0.01303
C 7.25106 17.1392 0.00848
C 6.07742 9.27801 -0.00518
C 4.92367 8.6313 0.0086
C 4.90434 7.14927 -0.00643
C 6.10903 6.5385 0.017
C 6.08207 5.07444 -0.03113
C 4.87751 4.34606 -0.02566
C 4.85131 2.9088 -0.00094
C 6.09685 2.27105 0.02322
C 6.11027 0.86884 -0.00725
C 4.86273 0.09492 -0.05697
C 7.32245 32.75975 0.01087
C 8.52463 32.05352 -0.01343
C 8.52037 30.65988 0.00988
C 7.34669 29.85316 0.0276
C 7.43353 28.46066 0.01305
C 8.65583 27.76777 -0.00077
C 8.67257 26.30082 0.03368
C 7.44913 25.57557 -0.02929
C 7.38051 24.13332 -0.00966
C 8.62061 23.4431 -0.03337
C 8.49806 22.05709 0.01227
C 7.3938 21.22419 0.00873
C 7.3054 19.78341 -0.00049
C 20.91594 17.69475 0.02188
C 3.62746 31.92096 -0.0154
C 19.74795 16.94343 -0.01979
C 20.84549 14.88942 -0.01581
C 30.77594 10.65218 -0.00944
C 30.74038 9.21258 -0.03735
C 29.49839 8.52028 -0.00971
C 29.48442 7.11799 0.01518
C 30.75182 6.4051 0.01908
C 30.78663 4.88423 0.07705
C 29.57416 4.24892 0.0103
C 29.52718 2.8295 0.02108
C 30.74673 2.16948 0.00716
C 30.73683 0.67072 0.00307
C 29.42266 11.33094 -0.02155
C 29.51179 0.01222 0.00346
C 33.17727 31.88919 -0.01694
C 33.2012 30.52615 0.01428
C 31.96912 29.75852 -0.02142
C 31.97179 28.38495 0.0544
C 33.17142 27.63218 0.00026
C 33.21953 26.13969 0.00682
C 31.97048 25.50763 -0.01779
C 31.95272 24.1614 0.03794
C 33.20178 23.35133 0.01927
C 33.16606 21.86079 0.01574
C 31.98831 32.65715 0.01713
C 31.94685 21.21028 -0.02383
C 29.44787 12.73747 -0.01461
C 30.7015 14.82905 -0.0405
C 27.07586 4.27908 0.01495
C 27.04439 2.84827 0.01259
C 28.28465 2.16802 0.01799
C 28.22457 0.68686 0.01699
C 27.02676 0.06218 -0.00416
C 29.51128 32.75274 0.01177
C 30.71547 31.94187 0.04266
C 30.71591 30.46191 0.01324
C 29.45697 29.84984 0.0014
C 29.58571 28.41287 0.00924
C 30.67564 13.42674 -0.01303
C 30.75545 27.71168 0.02326
C 29.53162 25.56891 0.03265
C 29.55799 24.16767 -0.02049
C 30.69023 23.36139 -0.01854
C 30.66208 22.0107 -0.01415
C 29.45673 21.3199 -0.03039
C 29.48677 19.85082 0.01836
C 30.6199 19.06371 0.03531
C 30.64571 17.68962 -0.00669
C 29.43897 16.95139 0.0101
C 29.4533 15.56324 0.01705
C 30.73828 26.23043 0.00261
C 28.29441 5.04244 0.00235
C 31.95281 19.83615 -0.01429
C 33.1646 17.68283 0.00594
C 1.24373 23.40889 0.00723
C 1.14891 21.97713 0.02712
C 34.34896 21.26808 -0.02213
C 34.38489 19.87524 0.01951
C 1.15194 19.14621 -0.01678
C 1.25568 17.76164 0.01223
C 34.4072 17.01987 0.00648
C 0.00225 15.58412 0.02114
C 1.21494 14.93632 -0.02957
C 1.20352 13.49609 0.00343
C 34.3792 24.09955 0.03076
C 34.42167 12.78581 -0.02656
C 1.19881 10.63446 -0.00027
C 1.18071 9.19485 -0.00583
C 34.34414 8.44913 -0.02302
C 34.39324 7.01631 -0.02849
C 1.23755 6.32454 0.02931
C 1.13067 4.97069 0.00628
C 34.36794 4.27801 -0.0345
C 34.41472 2.88403 -0.00931
C 1.10618 2.13734 -0.00939
C 1.1437 0.66187 -0.00468
C 34.41255 11.36036 -0.02442
C 33.12908 19.07453 -0.0136
C 0.00834 25.51506 -0.05239
C 1.18139 27.66855 -0.00439
C 31.90094 16.94641 -0.02474
C 31.85208 15.5949 0.00369
C 33.17118 14.90635 0.00455
C 33.19529 13.50056 -0.00644
C 31.95525 12.77957 -0.01839
C 31.93897 11.32904 0.00137
C 33.15972 10.65085 0.00199
C 33.16179 9.26085 0.04381
C 31.96726 8.49879 0.02806
C 31.95478 7.05331 0.01504
C 1.31486 26.2118 -0.00598
C 33.14703 6.37433 -0.00069
C 31.93041 4.2482 -0.03838
C 31.93191 2.8 0.00349
C 33.23194 2.0987 -0.00323
C 33.15742 0.69948 -0.00841
C 31.95923 34.06696 0.0001
C 0.04567 32.59935 -0.02927
C 1.15173 31.93486 -0.01404
C 1.15793 30.51122 0.01027
C 0.03282 29.78612 0.01831
C 34.36307 28.34797 -0.01037
C 33.19149 4.92135 0.04926
C 28.29643 6.37076 0.01094
C 27.09734 7.13914 0.02198
C 27.0187 8.52892 0.02611
C 22.20005 19.86254 -0.01154
C 23.40999 19.12417 -0.01721
C 23.38596 17.72576 -0.02422
C 22.13538 17.00582 0.01277
C 22.12489 15.61645 0.00096
C 23.25008 14.8462 -0.01527
C 23.36576 13.44079 0.01087
C 22.08075 12.77778 0.00199
C 22.04976 11.33342 0.01511
C 23.33695 10.63201 -0.00478
C 22.05835 21.3489 0.0106
C 23.45042 9.21967 -0.01662
C 22.10671 7.07194 0.01126
C 23.39824 6.40621 0.01852
C 23.39527 4.98512 -0.00381
C 22.18055 4.31827 0.03046
C 22.09487 2.8569 0.0296
C 23.26291 2.13532 0.03374
C 23.3132 0.68029 -0.02845
C 22.11011 34.05593 -0.03213
C 24.5137 32.68762 0.02239
C 25.80491 31.96142 0.01153
C 22.15971 8.53695 -0.01185
C 25.83556 30.52501 0.02734
C 23.39812 22.04934 -0.01594
C 22.06496 24.19942 -0.00311
C 20.82694 13.42453 0.01452
C 19.655 12.73455 0.04892
C 19.65903 11.33163 -0.00111
C 20.87218 10.67278 -0.03557
C 20.90907 9.24157 0.03754
C 19.74472 8.56784 0.01739
C 19.68807 7.04952 0.00755
C 20.9968 6.37296 -0.0054
C 20.93962 4.98325 0.00667
C 19.72206 4.27592 0.00143
C 23.35795 23.47336 0.00742
C 19.62381 2.89157 -0.017
C 20.88262 0.70168 -0.00831
C 19.60205 34.05171 -0.02957
C 22.03759 32.66987 -0.04422
C 23.30481 31.95639 0.00654
C 23.29624 30.5076 -0.00703
C 22.10244 29.8164 -0.04076
C 22.08661 28.40558 -0.00652
C 23.30833 27.69523 0.0058
C 23.27475 26.30715 -0.00865
C 22.08293 25.55473 0.00675
C 20.90171 2.14431 0.00364
C 24.6205 29.91291 -0.0055
C 24.57454 28.42536 0.01515
C 25.74144 27.67564 -0.00225
C 28.26395 31.99951 -0.01679
C 28.22324 30.55557 0.00367
C 27.04501 29.84248 0.04306
C 26.99664 28.36317 0.00996
C 28.22943 27.72196 0.00195
C 28.32765 26.33485 -0.00802
C 27.09748 25.5938 -0.00218
C 27.00908 24.11067 -0.01654
C 28.30301 23.38201 -0.00037
C 28.31332 22.05338 -0.0032
C 27.03579 32.68614 -0.01052
C 27.04842 21.25161 0.00622
C 28.16591 19.05998 -0.00942
C 28.18741 17.71625 0.00487
C 26.9946 17.01145 0.00826
C 26.9896 15.54202 -0.00294
C 28.23692 14.83757 0.00152
C 28.2396 13.40684 0.01257
C 26.99943 12.72699 0.02316
C 26.99527 11.34093 0.04185
C 28.2306 10.59926 0.00194
C 28.22836 9.23431 -0.00621
C 27.0257 19.86013 -0.02815
C 24.5315 0.01473 0.00684
C 25.82693 0.69898 -0.01154
C 25.85872 2.14032 -0.0264
C 25.80168 26.288 0.00071
C 24.53739 25.61439 -0.01107
C 24.52584 24.20852 -0.01586
C 25.83214 23.44239 -0.01971
C 25.77411 22.04385 -0.02118
C 24.60954 21.28976 0.00733
C 24.62524 19.89399 -0.00178
C 25.80751 19.16194 0.00768
C 25.8448 17.76436 -0.0276
C 24.64026 16.99716 0.03005
C 24.63782 15.56867 -0.04078
C 25.80321 14.8049 0.02117
C 25.76914 13.43715 0.02737
C 24.59761 12.68206 -0.00498
C 24.54473 11.29428 0.00135
C 25.81921 10.65062 0.03102
C 25.87068 9.24081 0.02555
C 24.69066 8.54326 0.01423
C 24.62167 7.1471 -0.00285
C 25.88291 6.4577 -0.009
C 25.86681 4.93652 -0.01199
C 24.70824 4.30104 -0.00229
C 24.58151 2.89916 -0.00938
C 19.64891 15.54461 0.02691
C 2.38583 32.68334 0.00662
