391
Graphene
C 0.022 0.04369 0.01295
C 15.98851 13.46884 0.01363
C 14.68555 12.80732 -0.02162
C 14.76205 11.51491 0.00415
C 15.96853 10.65895 -0.0014
C 16.06289 9.26669 0.02162
C 14.7414 8.60212 0.0076
C 14.71914 7.07071 0.01241
C 15.90032 6.34527 -0.01454
C 16.00945 4.85186 0.01945
C 16.04503 14.86392 0.01877
C 14.75951 4.25019 0.01416
C 15.97753 2.08689 0.02299
C 16.04693 0.69904 0.00244
C 14.81 0.02019 -0.01717
C 17.18714 32.7424 0.05265
C 18.46304 31.90602 -0.01952
C 18.42269 30.41469 -0.02813
C 17.12706 29.76439 0.00374
C 17.25269 28.33067 0.00052
C 18.41972 27.63382 -0.03682
C 14.74274 2.87841 0.03542
C 14.77335 15.56787 -0.00925
C 14.71998 17.11345 0.00444
C 15.8708 17.81489 -0.01789
C 13.44096 6.46871 -0.02759
C 13.55615 5.00673 0.0402
C 12.30081 4.33049 0.00572
C 12.28352 2.84298 0.03592
C 13.5073 2.15247 0.00406
C 13.56688 0.73284 0.00943
C 12.30431 0.03531 0.02841
C 14.7585 32.7386 -0.01111
C 15.96028 31.99437 -0.01275
C 15.95539 30.60699 0.00985
C 14.79138 29.77059 -0.02245
C 14.80242 28.37662 -0.00428
C 16.01818 27.66912 0.03101
C 16.05563 26.28188 -0.01536
C 14.7583 25.53528 -0.02689
C 14.76038 24.10571 -0.01046
C 15.98032 23.39929 -0.00891
C 15.96105 21.98553 0.02819
C 14.75699 21.30469 0.00165
C 14.83627 19.92183 -0.02971
C 16.00958 19.23695 0.02894
C 18.46194 26.278 0.01965
C 12.25236 7.24745 0.03589
C 17.23287 25.618 0.02058
C 18.4166 23.39574 -0.0108
C 19.7077 29.76828 0.03698
C 19.69953 28.44082 -0.00109
C 20.91424 27.69385 -0.00491
C 20.89041 26.26846 0.03338
C 19.63408 25.56144 -0.0258
C 19.68092 24.13192 -0.0331
C 20.97894 23.47962 -0.00316
C 20.92814 22.01632 0.02188
C 19.69641 21.31062 -0.01979
C 20.94245 30.50111 -0.02213
C 19.68541 19.82052 0.02691
C 20.8323 17.74566 0.01452
C 19.63401 16.98714 0.04892
C 19.68198 15.52794 -0.00111
C 20.98095 14.88905 -0.03557
C 20.87633 13.46045 0.03754
C 19.60468 12.79547 0.01739
C 19.60065 11.38686 0.00755
C 20.79883 10.70991 -0.0054
C 20.91143 9.25897 0.00667
C 20.87001 19.16302 -0.01581
C 20.92906 31.89188 0.00028
C 19.71674 32.60856 -0.00289
C 17.29345 0.04948 -0.00066
C 18.46691 22.00792 -0.00368
C 17.26567 21.32501 -0.02696
C 17.25399 19.88676 -0.00114
C 18.4683 19.10079 0.00228
C 18.3873 17.70473 0.00798
C 17.1735 17.04111 0.00422
C 17.22213 15.6652 0.0351
C 18.44839 14.90743 -0.03113
C 18.39065 13.48907 0.02098
C 17.18983 12.78019 0.01848
C 17.17022 11.35694 -0.00619
C 18.37586 10.63409 -0.02162
C 18.46123 9.23563 0.00889
C 17.28223 8.49816 -0.00481
C 17.19066 7.06 0.00979
C 18.405 6.30899 0.01443
C 18.40626 4.94137 0.03505
C 17.19579 4.20635 -0.02815
C 17.19521 2.77979 -0.04147
C 18.47717 2.09141 -0.05302
C 18.53619 0.73761 0.00213
C 17.20456 24.16632 -0.01957
C 19.69167 8.53035 0.00143
C 13.53127 9.22637 -0.00033
C 12.20721 17.17925 0.01364
C 4.95277 25.5766 -0.00074
C 4.91852 24.09926 -0.00518
C 6.14433 23.44049 0.0086
C 6.10621 22.04349 -0.00643
C 4.86263 21.32982 0.017
C 4.92638 19.85886 -0.03113
C 6.17023 19.33594 -0.02566
C 6.13687 4.83114 -0.00094
C 4.92381 4.36452 0.02322
C 6.13595 26.31202 0.01465
C 4.89049 2.84972 -0.00725
C 6.09824 0.75821 0.01087
C 4.93959 0.02076 -0.01343
C 7.34327 32.65168 0.00988
C 8.57723 31.93952 0.0276
C 8.57989 30.56768 0.01305
C 7.42722 29.78312 -0.00077
C 7.42104 28.37955 0.03368
C 8.58911 27.67495 -0.02929
C 8.63954 26.23996 -0.00966
C 6.1732 2.16688 -0.05697
C 6.08958 27.73213 -0.03996
C 4.85851 28.4889 0.01996
C 4.98392 29.86977 -0.00279
C 3.68596 30.5193 0.02769
C 2.48015 29.83624 -0.03291
C 2.51221 28.37268 -0.04999
C 3.68128 27.63845 0.04505
C 3.70649 26.22446 0.03284
C 2.32323 25.57118 -0.04307
C 2.42662 24.21895 0.03189
C 3.6438 23.51306 0.00031
C 3.65305 22.05455 -0.003
C 2.48978 21.34661 0.01402
C 2.48549 19.78549 0.02379
C 3.69575 19.23474 0.00907
C 3.67587 5.02227 0.00643
C 2.5022 4.31232 -0.01509
C 2.43674 2.86377 0.03267
C 3.65063 2.05934 0.02374
C 3.67752 0.67081 0.00402
C 2.5137 34.06701 0.0073
C 4.90892 32.64219 0.0174
C 6.14688 31.9784 0.03828
C 6.15085 30.59759 0.01226
C 7.38744 25.57311 -0.03337
C 13.62038 14.88491 -0.01062
C 7.43493 24.16655 0.01227
C 8.6351 22.10058 -0.00049
C 9.75576 4.18207 0.03693
C 9.78367 2.78131 0.01745
C 11.00595 2.12024 0.00488
C 11.0236 0.67489 -0.01004
C 9.78731 34.03262 -0.02896
C 12.279 32.69391 -0.00131
C 13.49282 32.00289 -0.01118
C 13.56814 30.46533 -0.014
C 12.2749 29.86612 0.02147
C 11.06904 4.982 -0.01384
C 12.2706 28.46108 0.00373
C 13.47827 26.30463 0.00438
C 12.32305 25.57872 0.01291
C 12.30415 24.18197 0.00093
C 13.53604 23.48921 0.00057
C 13.51713 22.0553 -0.01634
C 12.31291 21.35081 -0.00334
C 12.32785 19.93028 0.02339
C 13.55857 19.2477 0.01641
C 13.50405 17.82393 -0.00719
C 13.49752 27.762 -0.00191
C 11.15425 17.76503 -0.00482
C 11.06375 19.22898 0.02888
C 9.78361 19.84904 0.00685
C 7.40164 21.39525 0.00848
C 7.39613 19.81546 -0.01303
C 8.64796 19.15673 -0.01378
C 8.60631 4.99291 0.02635
C 7.35606 4.40489 0.0127
C 7.37208 2.88844 0.01396
C 8.51297 2.11855 0.01849
C 8.49834 0.73249 -0.01142
C 7.3462 0.01328 -0.00562
C 9.80239 32.67844 -0.00494
C 11.02198 32.0136 0.00054
C 11.0459 30.61133 0.03007
C 9.8414 29.89976 -0.00095
C 9.86258 28.36418 0.01572
C 11.0799 27.70492 -0.04848
C 11.0067 26.29582 -0.00892
C 9.87403 25.58204 -0.01362
C 9.83551 24.19322 -0.0008
C 10.97172 23.46795 0.0288
C 11.00414 22.00504 0.00393
C 9.79276 21.27308 0.00895
C 8.62395 23.49428 0.00873
C 3.64972 31.94536 0.01707
C 19.69842 7.11153 -0.017
C 20.88467 4.94614 -0.00831
C 30.70886 9.23023 0.07705
C 29.51386 8.56312 0.0103
C 29.55072 7.09118 0.02108
C 30.77851 6.43752 0.00716
C 30.70883 4.9651 0.00307
C 29.48324 4.27491 0.00346
C 29.49528 2.84072 0.01713
C 30.69456 2.19506 -0.01694
C 30.78326 0.72875 0.01428
C 30.72146 10.60451 0.01908
C 29.57559 34.02678 -0.02142
C 33.18967 31.97705 0.00026
C 33.19979 30.59428 0.00682
C 31.98014 29.84717 -0.01779
C 31.97392 28.39551 0.03794
C 33.17929 27.70866 0.01927
C 33.2077 26.3132 0.01574
C 32.01115 25.57555 -0.02383
C 32.01777 24.05226 -0.01429
C 33.25181 23.38927 -0.0136
C 31.95523 32.68492 0.0544
C 29.49662 11.36812 0.01518
C 29.51658 12.7649 -0.00971
C 30.67773 13.46873 -0.03735
C 28.29107 2.04597 0.04266
C 28.28544 0.61964 0.01324
C 27.0168 0.0124 0.0014
C 29.50092 32.62903 0.00924
C 30.69754 31.97689 0.02326
C 30.73455 30.51806 0.00261
C 29.51706 29.73318 0.03265
C 29.50766 28.37553 -0.02049
C 30.76491 27.69672 -0.01854
C 30.85488 26.25161 -0.01415
C 29.54345 25.48344 -0.03039
C 29.55238 24.12386 0.01836
C 30.79735 23.3762 0.03531
C 30.71505 21.9844 -0.00669
C 29.51779 21.26067 0.0101
C 29.47569 19.87975 0.01705
C 30.72758 19.21878 -0.0405
C 30.74668 17.84249 -0.01303
C 29.51214 17.08959 -0.01461
C 29.50241 15.69549 -0.02155
C 30.67415 14.97112 -0.00944
C 33.25736 21.99232 0.00594
C 27.10721 2.80599 0.01177
C 32.0073 21.3153 -0.02474
C 33.21573 19.15502 0.00455
C 34.37328 25.54446 -0.02213
C 0.00084 24.14915 0.01951
C 1.1961 23.45503 -0.01678
C 1.24461 22.07505 0.01223
C 34.37636 21.23155 0.00648
C 34.41545 19.82608 0.02114
C 1.22009 19.12827 -0.02957
C 1.30572 17.75983 0.00343
C 0.00333 16.95732 -0.02656
C 1.13239 26.2822 0.02712
C 34.35884 15.55581 -0.02442
C 34.32618 11.48231 -0.00583
C 34.33298 8.49382 -0.02302
C 0.05865 7.17353 -0.02849
C 1.209 6.3933 0.02931
C 1.2086 5.00386 0.00628
C 34.38875 4.22714 -0.0345
C 34.33618 2.78172 -0.00931
C 1.15258 2.13619 -0.00939
C 1.24741 0.7491 -0.00468
C 0.01454 12.60104 -0.00027
C 1.22205 27.71067 0.00723
C 34.39945 28.47316 0.03076
C 34.42768 29.8629 -0.05239
C 33.16324 17.776 -0.00644
C 31.95291 17.06331 -0.01839
C 31.91555 15.66061 0.00137
C 33.18745 14.95357 0.00199
C 33.26791 13.49436 0.04381
C 31.96398 12.80886 0.02806
C 31.96563 11.33094 0.01504
C 33.1994 10.64094 -0.00069
C 33.20471 9.24754 0.04926
C 31.94687 8.59791 -0.03838
C 32.00324 7.05169 0.00349
C 33.19347 6.34464 -0.00323
C 33.16778 4.95729 -0.00841
C 31.93786 4.25667 0.0001
C 31.97332 2.86148 -0.02927
C 33.11116 2.0391 -0.01404
C 33.17727 0.69074 0.01027
C 32.01219 34.07855 0.01831
C 34.42755 32.62141 -0.01037
C 1.21601 31.97076 -0.00439
C 1.26657 30.48997 -0.00598
C 32.01501 19.91227 0.00369
C 20.93523 6.38643 0.00364
C 27.02651 4.24898 -0.00416
C 28.31881 6.38097 0.01799
C 22.078 11.34465 0.01126
C 23.35318 10.63588 0.01852
C 23.35057 9.24419 -0.00381
C 22.17456 8.54505 0.03046
C 22.119 7.14375 0.0296
C 23.297 6.38434 0.03374
C 23.2841 4.94272 -0.02845
C 22.10377 4.2258 -0.03213
C 22.11046 2.76961 0.02239
C 22.17918 12.7546 -0.01185
C 23.32862 2.09003 0.01153
C 22.02609 34.06035 -0.0055
C 24.55648 32.63732 0.01515
C 25.83145 31.95734 -0.00225
C 25.8544 30.49618 0.00071
C 24.66182 29.75877 -0.01107
C 24.64394 28.33409 -0.01586
C 25.86016 27.63377 -0.01971
C 25.82324 26.24761 -0.02118
C 24.65414 25.42061 0.00733
C 23.3099 0.698 0.02734
C 23.38366 13.48733 -0.01662
C 23.43237 14.88091 -0.00478
C 22.24472 15.58662 0.01511
C 19.63686 4.22687 -0.02957
C 19.68329 2.82417 -0.04422
C 20.90608 2.12325 0.00654
C 20.89297 0.75519 -0.00703
C 19.69392 34.06527 -0.04076
C 22.0918 32.63707 -0.00652
C 23.35342 31.9537 0.0058
C 23.47312 30.51558 -0.00865
C 22.20953 29.83432 0.00675
C 22.19503 28.42266 -0.00311
C 23.39169 27.68599 0.00742
C 23.37991 26.19714 -0.01594
C 22.1096 25.59582 0.0106
C 22.15143 24.19343 -0.01154
C 23.33009 23.46298 -0.01721
C 23.34737 22.02814 -0.02422
C 22.11586 21.31922 0.01277
C 22.11969 19.91623 0.00096
C 23.36179 19.17423 -0.01527
C 23.38964 17.80727 0.01087
C 22.1183 17.10609 0.00199
C 24.60406 24.07866 -0.00178
C 28.30753 4.98667 0.01699
C 25.91882 23.4313 0.00768
C 24.6108 21.31712 0.03005
C 28.20232 27.6626 -0.00037
C 28.29708 26.23812 -0.0032
C 27.06667 25.55841 0.00622
C 27.17557 24.20986 -0.02815
C 28.32652 23.42341 -0.00942
C 28.27828 21.99203 0.00487
C 27.03758 21.30885 0.00826
C 26.94958 19.88861 -0.00294
C 28.16397 19.20547 0.00152
C 27.02139 28.40958 -0.01654
C 28.19798 17.7298 0.01257
C 27.03076 15.53662 0.04185
C 28.24146 14.85657 0.00194
C 28.26076 13.45781 -0.00621
C 27.00411 12.77058 0.02611
C 27.00859 11.34914 0.02198
C 28.22851 10.68946 0.01094
C 28.25272 9.24795 0.00235
C 27.06202 8.49334 0.01495
C 27.04179 7.06264 0.01259
C 27.07145 16.93785 0.02316
C 27.05864 29.81448 -0.00218
C 28.2899 30.48008 -0.00802
C 28.2706 31.92845 0.00195
C 24.67453 19.9632 -0.04078
C 25.79912 19.14623 0.02117
C 25.80325 17.67019 0.02737
C 24.56674 17.01066 -0.00498
C 24.60439 15.6343 0.00135
C 25.76739 14.93325 0.03102
C 25.83358 13.51893 0.02555
C 24.61408 12.7856 0.01423
C 24.59784 11.38748 -0.00285
C 25.80487 10.61627 -0.009
C 25.78428 9.19593 -0.01199
C 24.61193 8.52482 -0.00229
C 24.52966 7.09913 -0.00938
C 25.79701 6.37693 -0.0264
C 25.74859 4.91995 -0.01154
C 24.57371 4.21381 0.00684
C 24.6038 2.82503 -0.01052
C 25.80688 2.11805 -0.01679
C 25.83463 0.69397 0.00367
C 24.52167 0.03363 0.04306
C 27.09543 32.69029 0.00996
C 25.80017 22.01603 -0.0276
C 2.43322 32.64379 0.00208
