318
Graphene
C 0.01301 0.02754 0.01295
C 12.35374 15.56022 -0.00109
C 13.4695 14.93874 -0.00491
C 13.522 13.5084 0.03338
C 13.57225 10.59727 -0.0258
C 13.59273 9.26735 -0.0331
C 12.26615 7.12863 -0.00316
C 13.45991 6.36591 0.02188
C 13.50772 4.95285 -0.01979
C 12.27771 4.18148 0.02691
C 12.29539 2.81606 -0.01581
C 13.56517 2.14406 0.01452
C 13.5749 0.66453 0.04892
C 12.3461 34.07465 -0.00111
C 14.79326 32.62484 -0.03557
C 15.97374 32.01959 0.03754
C 12.2832 17.00275 0.03698
C 13.55001 17.68664 -0.02213
C 13.50445 19.13072 0.00028
C 12.35917 19.809 -0.00289
C 9.79203 2.80761 0.0351
C 11.03837 2.13976 -0.03113
C 11.07241 0.65983 0.02098
C 9.81171 0.02375 0.01848
C 12.2365 32.71953 -0.00619
C 13.5386 31.99812 -0.02162
C 13.54305 30.5585 0.00889
C 16.01159 30.53866 0.01739
C 12.30148 29.83292 -0.00481
C 13.52716 27.71669 0.01443
C 13.52723 26.2559 0.03505
C 12.31181 25.58481 -0.02815
C 12.318 24.22727 -0.04147
C 13.50618 23.45993 -0.05302
C 13.49867 22.07127 0.00213
C 12.30732 21.2353 -0.00066
C 12.29555 28.38333 0.00979
C 14.7746 29.84107 0.00755
C 14.83298 28.3921 -0.0054
C 15.98376 27.62247 0.00667
C 14.74441 4.27035 0.01277
C 14.75782 2.78734 0.00096
C 15.91895 2.11658 -0.01527
C 16.01207 0.68268 0.01087
C 14.83907 34.06181 0.00199
C 17.21006 32.67788 0.01511
C 18.46942 31.96361 -0.00478
C 15.94404 5.06259 -0.02422
C 18.42168 30.55124 -0.01662
C 17.22519 28.3255 0.01126
C 18.48033 17.65877 0.01852
C 17.2321 17.07479 -0.00381
C 17.2218 15.57962 0.03046
C 18.4286 14.91599 0.0296
C 18.39638 13.49159 0.03374
C 17.25644 12.74988 -0.02845
C 17.2564 29.85874 -0.01185
C 9.80804 4.24646 0.00422
C 15.97339 6.39707 -0.01721
C 14.7436 8.51435 0.0106
C 16.02563 26.20971 0.00143
C 14.7197 25.5679 -0.017
C 14.75664 24.1504 0.00364
C 16.01087 23.34744 -0.00831
C 16.0031 22.04117 -0.02957
C 14.74426 21.35317 -0.04422
C 14.72736 19.89639 0.00654
C 14.74008 7.1223 -0.01154
C 15.89478 19.18238 -0.00703
C 14.76857 17.07378 -0.00652
C 14.75328 15.63242 0.0058
C 16.01134 14.87326 -0.00865
C 16.01938 13.47973 0.00675
C 14.74644 12.81052 -0.00311
C 14.78036 11.38264 0.00742
C 16.04569 10.63197 -0.01594
C 16.01069 17.76539 -0.04076
C 11.06318 4.92893 0.00798
C 11.07549 6.3902 0.00228
C 11.0707 17.74973 -0.00114
C 3.75824 0.7414 -0.00719
C 2.44736 0.00431 0.01364
C 4.90251 32.69468 -0.01062
C 6.1072 31.97171 -0.00033
C 6.13023 30.51759 0.03589
C 4.86632 29.8097 -0.02759
C 4.91326 28.42265 0.0402
C 3.73279 2.12531 0.01641
C 6.11706 27.683 0.00572
C 4.89307 25.51355 0.00406
C 4.88062 24.11574 0.00943
C 6.14979 23.42216 0.02841
C 6.10853 21.99411 -0.01111
C 4.94031 21.31263 -0.01275
C 4.97575 19.90377 0.00985
C 6.11638 19.24874 -0.02245
C 6.14605 26.24413 0.03592
C 6.10568 4.98469 -0.00428
C 2.46125 2.87011 0.02339
C 3.71241 5.02594 -0.01634
C 3.68609 30.45716 -0.01384
C 2.44054 29.83427 0.03693
C 2.4187 28.41522 0.01745
C 3.64312 27.69988 0.00488
C 3.65931 26.29053 -0.01004
C 2.44105 25.63034 -0.02896
C 2.48105 24.11376 -0.00131
C 2.48269 4.30679 -0.00334
C 3.70965 23.4284 -0.01118
C 2.46134 21.31677 0.02147
C 2.40476 19.94498 0.00373
C 3.71341 19.21294 -0.00191
C 3.67753 17.71008 0.00438
C 2.44365 17.06478 0.01291
C 2.46229 7.11175 0.00093
C 3.69559 6.35965 0.00057
C 3.72553 22.03074 -0.014
C 17.18641 4.23869 -0.03213
C 4.98937 4.24479 0.03101
C 6.14859 2.12137 -0.02689
C 8.5575 0.69949 0.03542
C 7.38046 0.07949 0.02299
C 9.85398 32.6599 0.00244
C 11.10523 31.93011 -0.01717
C 11.05677 30.53782 0.05265
C 9.8701 29.79232 -0.01952
C 9.79295 28.34792 -0.02813
C 8.63525 2.13139 0.01416
C 10.98657 27.63593 0.00374
C 9.82987 25.63866 -0.03682
C 9.80679 24.1792 0.01965
C 11.0558 23.43266 0.02058
C 11.08944 22.03975 -0.01957
C 9.83141 21.23541 -0.0108
C 9.88309 19.88172 -0.00368
C 11.09903 19.17939 -0.02696
C 11.05449 26.29455 0.00052
C 4.90388 2.82892 -0.01536
C 7.33429 2.79568 0.01945
C 8.59242 4.93937 0.01241
C 6.2111 0.73226 -0.01046
C 4.96635 34.0624 -0.00891
C 7.38954 32.68604 0.02819
C 8.6221 32.01556 0.00165
C 8.57761 30.54867 -0.02971
C 7.42234 29.81249 0.02894
C 7.42033 28.40281 -0.01789
C 7.40248 4.3048 -0.01454
C 8.55811 27.5945 0.00444
C 7.36104 25.54423 0.01877
C 7.34736 24.15181 0.01363
C 8.56043 23.36878 -0.02162
C 8.59449 21.99938 0.00415
C 7.36668 21.33198 -0.0014
C 7.37172 19.89253 0.02162
C 8.65095 19.0998 0.0076
C 8.58113 26.28987 -0.00925
C 17.20823 2.90284 0.02239
C 18.4773 2.13631 0.01153
C 18.40585 0.68956 0.02734
C 33.20869 27.68904 -0.01779
C 33.23867 26.31182 0.03794
C 31.97822 25.55449 0.01927
C 31.94247 24.16287 0.01574
C 33.25885 23.42137 -0.02383
C 33.22237 22.06245 -0.01429
C 31.96694 21.33274 -0.0136
C 32.01051 28.44761 0.00682
C 31.9071 19.95608 0.00594
C 33.19732 17.76998 0.00369
C 32.00285 17.03544 0.00455
C 31.9284 15.60607 -0.00644
C 33.19511 14.94134 -0.01839
C 33.21335 13.46305 0.00137
C 31.97833 12.75609 0.00199
C 31.93223 11.39813 0.04381
C 33.17443 19.22301 -0.02474
C 33.23146 10.65905 0.02806
C 31.92655 29.8222 0.00026
C 33.17594 31.97515 -0.02142
C 30.73442 14.88678 -0.01461
C 30.77108 13.47689 -0.02155
C 29.48016 12.82058 -0.00944
C 29.48148 11.39821 -0.03735
C 30.77346 10.70282 -0.00971
C 30.76527 9.19091 0.01518
C 29.51525 8.55131 0.01908
C 33.17561 30.51556 0.0544
C 29.52457 7.10608 0.07705
C 30.72065 5.00197 0.02108
C 29.43465 4.24576 0.00716
C 29.47683 2.82786 0.00307
C 30.71478 2.06422 0.00346
C 30.72999 0.74058 0.01713
C 29.46369 34.06678 -0.01694
C 31.9825 32.6959 0.01428
C 30.73187 6.36107 0.0103
C 29.51202 15.62485 -0.01303
C 33.17923 9.26754 0.01504
C 32.00049 7.09858 0.04926
C 1.25424 19.19409 0.00648
C 1.20578 17.72366 0.02114
C 34.41604 17.04651 -0.02957
C 34.42917 15.61835 0.00343
C 1.16243 14.93714 -0.02656
C 0.02642 12.76725 -0.02442
C 34.43082 11.37616 -0.00027
C 0.04572 19.84946 0.01223
C 1.21679 9.23846 -0.00583
C 34.42064 7.11731 -0.02849
C 1.23465 6.38256 0.02931
C 1.21309 4.94457 0.00628
C 34.42655 4.22347 -0.0345
C 34.42264 2.85082 -0.00931
C 1.29477 2.18141 -0.00939
C 1.25134 0.65002 -0.00468
C 0.03348 8.50165 -0.02302
C 31.98889 8.53811 -0.00069
C 0.00174 21.33993 -0.01678
C 1.23373 23.3907 -0.02213
C 33.16338 6.40822 -0.03838
C 33.249 4.94057 0.00349
C 31.93276 4.21448 -0.00323
C 31.93579 2.83895 -0.00841
C 33.17754 2.11087 0.0001
C 33.1657 0.73697 -0.02927
C 31.95606 0.02047 -0.01404
C 1.23773 21.9679 0.01951
C 0.02937 32.64915 0.01027
C 1.23239 30.57415 -0.01037
C 0.05887 29.78499 -0.00439
C 0.00273 28.33232 -0.00598
C 1.23652 27.70925 -0.05239
C 1.25146 26.26427 0.03076
C 34.40388 25.56724 0.00723
C 0.0061 24.1392 0.02712
C 1.22219 31.95771 0.01831
C 3.6805 31.95544 -0.00482
C 29.55497 17.11521 -0.0405
C 30.72013 19.16845 0.0101
C 23.37993 5.02267 0.01423
C 22.13013 4.28186 -0.00285
C 22.13796 2.85242 -0.009
C 23.37119 2.11115 -0.01199
C 23.39413 0.75823 -0.00229
C 22.18186 0.01674 -0.00938
C 24.55837 32.62404 -0.0264
C 22.09116 12.81245 0.02555
C 25.8388 31.96966 -0.01154
C 24.62708 15.62951 -0.01052
C 25.81043 14.8344 -0.01679
C 25.79465 13.47016 0.00367
C 24.59705 12.77702 0.04306
C 24.65325 11.37075 0.00996
C 25.76371 10.62124 0.00195
C 25.77861 9.24902 -0.00802
C 25.84439 30.48082 0.00684
C 24.57202 8.50766 -0.00218
C 23.34687 13.40515 0.03102
C 22.15401 15.69868 -0.00498
C 17.20926 0.0223 -0.0055
C 19.66949 32.66595 0.01515
C 20.90589 31.94192 -0.00225
C 20.78674 30.51388 0.00071
C 19.65062 29.85433 -0.01107
C 19.63788 17.06736 -0.01586
C 19.71045 15.60585 -0.01971
C 23.36951 14.93867 0.00135
C 20.87344 14.94434 -0.02118
C 19.67821 4.2514 -0.00178
C 19.64808 2.9082 0.00768
C 20.88183 2.16189 -0.0276
C 20.87234 0.72489 0.03005
C 19.65155 0.02371 -0.04078
C 22.15028 32.67029 0.02117
C 23.38554 31.97319 0.02737
C 20.88274 13.4628 0.00733
C 30.74666 17.74775 0.01705
C 24.58011 7.15165 -0.01654
C 25.82811 5.03672 -0.0032
C 28.2915 6.33463 -0.00416
C 28.26305 4.93489 0.01177
C 27.00973 4.23986 0.04266
C 27.04991 2.85051 0.01324
C 28.31586 2.11936 0.0014
C 28.22345 0.64341 0.00924
C 27.03219 34.06292 0.02326
C 27.06877 7.09473 0.01699
C 29.48294 32.6044 0.00261
C 30.71845 30.51538 -0.02049
C 29.53852 29.78447 -0.01854
C 29.53304 28.4193 -0.01415
C 30.78284 27.70847 -0.03039
C 30.74283 26.24138 0.01836
C 30.76917 23.31502 0.03531
C 30.74554 22.02298 -0.00669
C 30.70593 31.91931 0.03265
C 25.82151 6.38738 -0.00037
C 27.09491 8.48144 0.01799
C 28.26363 10.68045 0.01495
C 24.51377 4.26099 0.00622
C 24.53933 2.80329 -0.02815
C 25.82804 2.06433 -0.00942
C 25.78507 0.7033 0.00487
C 24.61149 34.06689 0.00826
C 27.07463 32.66046 -0.00294
C 28.19153 31.94962 0.00152
C 28.23405 9.19268 0.01259
C 28.30004 30.51888 0.01257
C 28.26047 17.68384 0.04185
C 27.14801 17.01364 0.00194
C 27.08955 15.5899 -0.00621
C 28.32974 14.91273 0.02611
C 28.27024 13.49614 0.02198
C 27.08695 12.71351 0.01094
C 27.02369 11.33137 0.00235
C 26.98487 29.86641 0.02316
C 2.50114 32.60064 0.02888
