384
Graphene
C 34.35628 0.02712 0.01295
C 13.48445 6.44285 0.02162
C 13.51014 5.01361 0.0076
C 12.28196 4.33801 0.01241
C 12.29635 2.87701 -0.01454
C 13.49179 2.16788 0.01945
C 13.60746 0.81244 0.01416
C 12.33608 0.08994 0.03542
C 14.3846 32.63781 0.02299
C 16.00924 17.65613 0.00244
C 12.24933 7.22587 -0.0014
C 14.75087 17.02585 -0.01717
C 15.99944 14.87073 -0.01952
C 15.97355 13.50455 -0.02813
C 14.82631 12.75303 0.00374
C 14.75922 11.37555 0.00052
C 16.00415 10.57634 -0.03682
C 15.96355 9.18651 0.01965
C 14.72937 8.50515 0.02058
C 14.72447 7.12009 -0.01957
C 15.9502 6.40823 -0.0108
C 14.80537 15.62436 0.05265
C 15.93815 4.95685 -0.00368
C 12.2609 8.63993 0.00415
C 13.47703 10.66522 0.01363
C 9.77719 11.39452 0.00943
C 10.98787 10.67673 0.02841
C 11.05085 9.26338 -0.01111
C 9.86675 8.57432 -0.01275
C 9.83584 7.1616 0.00985
C 11.07295 6.47388 -0.02245
C 11.04597 5.04756 -0.00428
C 9.82578 4.31512 0.03101
C 9.82073 2.85357 -0.01536
C 13.57216 9.24485 -0.02162
C 11.08107 2.16714 -0.02689
C 9.86714 34.04854 -0.00891
C 12.48222 32.76476 0.02819
C 13.56976 17.62805 0.00165
C 12.21371 17.18986 -0.02971
C 12.32718 15.69193 0.02894
C 13.59446 14.99083 -0.01789
C 13.55495 13.57615 0.00444
C 12.39076 12.84998 -0.00925
C 12.31116 11.41791 0.01877
C 11.10684 0.80347 -0.01046
C 9.83454 12.77896 0.00406
C 14.72882 4.24158 -0.02696
C 15.89617 2.12181 0.00228
C 20.88288 31.85221 0.03338
C 20.82421 30.49624 -0.0258
C 19.57283 19.87465 -0.0331
C 20.86289 19.24325 -0.00316
C 20.82891 17.83544 0.02188
C 19.74674 17.01839 -0.01979
C 19.74507 15.62261 0.02691
C 20.95647 14.9384 -0.01581
C 20.92512 13.50495 0.01452
C 19.7038 32.56966 -0.00491
C 19.79461 12.71565 0.04892
C 20.9282 10.56791 -0.03557
C 20.92074 9.18619 0.03754
C 19.68715 8.43178 0.01739
C 19.687 7.03432 0.00755
C 20.89745 6.3252 -0.0054
C 20.86404 4.95825 0.00667
C 19.62609 4.15197 0.00143
C 19.64081 2.74729 -0.017
C 20.80287 2.07402 0.00364
C 19.71329 11.34531 -0.00111
C 14.67627 2.78191 -0.00114
C 17.16164 0.04892 -0.00109
C 18.43155 2.05726 -0.02213
C 15.87387 0.71941 0.00798
C 14.67892 34.07795 0.00422
C 17.32164 32.74039 0.0351
C 18.30452 32.08535 -0.03113
C 18.63173 19.13516 0.02098
C 18.46181 17.61212 0.01848
C 17.24435 16.87225 -0.00619
C 17.32583 15.49209 -0.02162
C 18.54131 14.8172 0.00889
C 18.45222 0.67321 0.03698
C 18.50002 13.39335 -0.00481
C 17.21135 11.28836 0.01443
C 18.39593 10.53659 0.03505
C 18.36416 9.09902 -0.02815
C 17.14119 8.44096 -0.04147
C 17.24565 7.05312 -0.05302
C 18.48122 6.29453 0.00213
C 18.38866 4.90551 -0.00066
C 17.15141 4.23704 -0.00289
C 17.13019 2.78757 0.00028
C 17.19294 12.72913 0.00979
C 20.86124 0.64565 -0.00831
C 11.03925 13.55536 0.03592
C 9.85681 15.65837 0.0402
C 3.64447 5.05562 -0.02566
C 2.34046 4.329 -0.00094
C 2.31284 2.89689 0.02322
C 3.66843 2.18348 -0.00725
C 3.65193 0.85304 -0.05697
C 2.37411 0.14078 0.01087
C 4.92483 32.71294 -0.01343
C 6.18598 31.99058 0.00988
C 6.14855 30.6208 0.0276
C 3.60832 6.44132 -0.03113
C 4.94845 29.85344 0.01305
C 6.18199 27.7226 0.03368
C 6.08204 26.24156 -0.02929
C 4.80255 25.60811 -0.00966
C 4.77952 24.16463 -0.03337
C 5.98446 23.54099 0.01227
C 6.05463 22.16422 0.00873
C 4.87938 21.36039 -0.00049
C 4.96292 19.93802 0.00848
C 6.2526 19.27445 -0.01303
C 4.91934 28.42114 -0.00077
C 6.28708 17.78721 -0.01378
C 2.31723 7.09598 0.017
C 3.59529 9.23172 0.0086
C 3.66883 30.62931 0.00031
C 2.40861 29.9138 -0.003
C 2.4162 28.42335 0.01402
C 3.6468 27.74645 0.02379
C 3.63757 26.28076 0.00907
C 2.30484 25.60039 0.00643
C 2.43938 24.17392 -0.01509
C 3.56913 23.37696 0.03267
C 3.67601 22.01762 0.02374
C 2.36845 8.49783 -0.00643
C 2.42239 21.29126 0.00402
C 3.73004 19.33252 0.0174
C 3.76722 17.77655 0.03828
C 2.55191 17.09358 0.01226
C 2.52077 15.67957 -0.00279
C 3.73611 14.95747 0.01996
C 3.68492 13.54421 -0.03996
C 2.43563 12.8204 0.01465
C 2.40738 11.41242 -0.00074
C 3.63731 10.68425 -0.00518
C 2.46515 19.85105 0.0073
C 11.08921 14.97661 0.00572
C 4.98869 17.07458 0.02635
C 6.15626 14.88264 0.01396
C 7.41058 15.61248 -0.00131
C 8.62336 14.91265 -0.01118
C 8.61995 13.53693 -0.014
C 7.34242 12.79012 0.02147
C 7.37532 11.42246 0.00373
C 8.58589 10.71501 -0.00191
C 8.59051 9.24452 0.00438
C 7.31038 8.60069 0.01291
C 7.33227 7.1876 0.00093
C 7.41143 17.0669 -0.02896
C 8.63344 6.39658 0.00057
C 7.35329 4.30106 -0.00334
C 7.37458 2.89824 0.02339
C 8.64786 2.22883 0.01641
C 8.57358 0.80356 -0.00719
C 7.32991 0.08723 0.01364
C 9.83602 32.66332 -0.01062
C 11.19054 32.11188 -0.00033
C 11.05765 17.86893 0.03589
C 9.9484 17.1159 -0.02759
C 8.58099 5.04038 -0.01634
C 4.99489 15.59209 0.0127
C 8.633 17.73946 -0.01004
C 7.54963 20.087 0.01745
C 6.113 13.54281 0.01849
C 4.90561 12.80063 -0.01142
C 4.79217 11.34866 -0.00562
C 6.12655 10.66838 -0.00494
C 6.04532 9.2315 0.00054
C 4.83965 8.50649 0.03007
C 4.84302 7.15077 -0.00095
C 6.06736 6.43421 0.01572
C 6.09505 4.96629 -0.04848
C 8.59126 19.0943 0.00488
C 4.89299 4.29859 -0.00892
C 6.12675 2.18413 -0.0008
C 6.11576 0.77003 0.0288
C 4.87127 0.12244 0.00393
C 7.37656 32.72172 0.00895
C 8.61009 32.02571 0.00685
C 8.68239 30.55873 0.02888
C 7.48935 29.93586 -0.00482
C 7.1524 28.59974 -0.01384
C 7.37866 21.49322 0.03693
C 4.90557 2.92045 -0.01362
C 19.61875 33.97895 -0.02957
C 22.07141 32.67567 -0.04422
C 23.29683 31.83083 0.00654
C 29.42519 4.21685 0.0103
C 29.393 2.82332 0.02108
C 30.62095 2.14461 0.00716
C 30.6656 0.72251 0.00307
C 29.45623 0.0332 0.00346
C 31.96607 32.72581 0.01713
C 33.24049 31.96836 -0.01694
C 33.18417 30.58746 0.01428
C 31.92798 29.86125 -0.02142
C 30.62057 4.9848 0.07705
C 31.90413 28.46657 0.0544
C 33.15916 26.21316 0.00682
C 31.92164 25.53728 -0.01779
C 31.84953 24.14871 0.03794
C 33.12432 23.44088 0.01927
C 33.13802 21.99239 0.01574
C 31.92791 21.27708 -0.02383
C 31.9954 19.86742 -0.01429
C 33.19655 19.13925 -0.0136
C 33.18354 17.74667 0.00594
C 33.1411 27.69874 0.00026
C 32.02987 17.08935 -0.02474
C 30.67734 6.37223 0.01908
C 29.52922 8.48795 -0.00971
C 29.46983 29.79674 0.0014
C 29.39211 28.39153 0.00924
C 30.6779 27.6837 0.02326
C 30.60563 26.31611 0.00261
C 29.44336 25.5808 0.03265
C 29.45685 24.10785 -0.02049
C 30.66254 23.42575 -0.01854
C 30.65505 21.96798 -0.01415
C 29.43242 21.35369 -0.03039
C 29.48137 7.13676 0.01518
C 29.5035 19.8526 0.01836
C 30.82575 17.75641 -0.00669
C 29.58904 17.06866 0.0101
C 29.56448 15.63205 0.01705
C 30.76968 14.8674 -0.0405
C 30.80069 13.50261 -0.01303
C 29.62078 12.77963 -0.01461
C 29.51491 11.34327 -0.02155
C 30.82055 10.62354 -0.00944
C 30.74293 9.25252 -0.03735
C 30.71467 19.20618 0.03531
C 30.7081 30.57815 0.01324
C 32.00434 15.61334 0.00369
C 33.24505 13.54716 -0.00644
C 34.37623 21.29652 -0.02213
C 0.02717 19.85633 0.01951
C 1.25069 19.15377 -0.01678
C 1.3052 17.793 0.01223
C 0.05447 17.07993 0.00648
C 0.06922 15.66486 0.02114
C 1.26602 14.94343 -0.02957
C 1.23416 13.50714 0.00343
C 0.01082 12.82903 -0.02656
C 1.15722 21.99008 0.02712
C 0.01162 11.40713 -0.02442
C 1.17225 9.14829 -0.00583
C 34.41103 8.5075 -0.02302
C 34.36985 7.0669 -0.02849
C 1.10404 6.37365 0.02931
C 1.11099 4.9648 0.00628
C 34.3112 4.32296 -0.0345
C 34.3748 2.91276 -0.00931
C 1.11859 2.18087 -0.00939
C 1.14459 0.7604 -0.00468
C 1.23454 10.66134 -0.00027
C 33.29812 14.95668 0.00455
C 1.1465 23.45179 0.00723
C 34.41609 25.54676 -0.05239
C 31.9778 12.78934 -0.01839
C 32.05504 11.3003 0.00137
C 33.24861 10.69844 0.00199
C 33.12296 9.28029 0.04381
C 31.96629 8.48703 0.02806
C 31.91245 7.11263 0.01504
C 33.16408 6.40062 -0.00069
C 33.0744 4.95043 0.04926
C 31.84444 4.24103 -0.03838
C 34.36889 24.13445 0.03076
C 31.86561 2.80023 0.00349
C 33.11519 0.76023 -0.00841
C 31.88405 0.06964 0.0001
C 34.40248 32.67217 -0.02927
C 1.19135 32.02737 -0.01404
C 1.19766 30.55742 0.01027
C 34.40185 29.86817 0.01831
C 34.37245 28.46122 -0.01037
C 1.18472 27.70294 -0.00439
C 1.19124 26.32551 -0.00598
C 33.10645 2.19035 -0.00323
C 30.70625 31.94391 0.04266
C 29.44437 32.67487 0.01177
C 27.04226 34.06403 -0.00416
C 23.32555 4.96062 -0.00381
C 22.13549 4.17875 0.03046
C 22.0429 2.78221 0.0296
C 23.30347 2.08768 0.03374
C 23.2281 0.62435 -0.02845
C 22.02668 34.0082 -0.03213
C 24.52459 32.61528 0.02239
C 25.74173 31.90803 0.01153
C 25.79035 30.48831 0.02734
C 23.34134 6.3568 0.01852
C 24.51439 29.77408 -0.0055
C 25.7461 27.66776 -0.00225
C 25.78412 26.23577 0.00071
C 24.59216 25.5002 -0.01107
C 24.51073 24.12995 -0.01586
C 25.73984 23.35503 -0.01971
C 25.76466 21.96658 -0.02118
C 24.51898 21.28404 0.00733
C 24.58793 19.86039 -0.00178
C 25.75795 19.16383 0.00768
C 24.5739 28.34019 0.01515
C 25.89558 17.75728 -0.0276
C 22.12211 7.03894 0.01126
C 23.39227 9.14164 -0.01662
C 23.19737 30.37455 -0.00703
C 21.94927 29.56364 -0.04076
C 22.01446 28.16471 -0.00652
C 23.31911 27.69968 0.0058
C 23.39049 26.25266 -0.00865
C 22.33322 25.26774 0.00675
C 22.03743 24.13027 -0.00311
C 23.34258 23.31015 0.00742
C 23.34285 21.87396 -0.01594
C 22.14331 8.48106 -0.01185
C 22.03852 21.30118 0.0106
C 23.37457 19.24366 -0.01721
C 23.33737 17.83484 -0.02422
C 22.08456 17.0973 0.01277
C 22.12835 15.62333 0.00096
C 23.42675 14.95135 -0.01527
C 23.40373 13.47344 0.01087
C 22.16104 12.75819 0.00199
C 22.13572 11.35185 0.01511
C 23.42728 10.56655 -0.00478
C 22.09062 19.92988 -0.01154
C 24.62554 17.08254 0.03005
C 24.7207 15.62353 -0.04078
C 25.91181 14.9136 0.02117
C 26.96951 21.2251 0.00622
C 27.01922 19.79957 -0.02815
C 28.27999 19.18072 -0.00942
C 28.3668 17.66814 0.00487
C 27.13375 17.05348 0.00826
C 27.13271 15.60959 -0.00294
C 28.37038 14.92642 0.00152
C 28.35027 13.52695 0.01257
C 27.10674 12.80634 0.02316
C 28.21774 22.00175 -0.0032
C 27.103 11.39026 0.04185
C 28.30774 9.26405 -0.00621
C 27.06642 8.55223 0.02611
C 27.01876 7.05179 0.02198
C 28.24858 6.37839 0.01094
C 28.22677 4.95127 0.00235
C 26.99529 4.2496 0.01495
C 26.92896 2.83579 0.01259
C 28.2362 2.1717 0.01799
C 28.20488 0.75784 0.01699
C 28.30395 10.65106 0.00194
C 28.23097 23.43217 -0.00037
C 26.92159 24.03662 -0.01654
C 27.02304 25.51695 -0.00218
C 25.86693 13.50003 0.02737
C 24.63923 12.74645 -0.00498
C 24.61976 11.36792 0.00135
C 25.80766 10.63832 0.03102
C 25.86948 9.31721 0.02555
C 24.66095 8.54082 0.01423
C 24.56352 7.10422 -0.00285
C 25.8205 6.35427 -0.009
C 25.82017 4.90471 -0.01199
C 24.58777 4.22026 -0.00229
C 24.54751 2.80716 -0.00938
C 25.74066 2.0465 -0.0264
C 25.73576 0.60565 -0.01154
C 24.49197 33.96002 0.00684
C 26.96922 32.67857 -0.01052
C 28.21692 31.9532 -0.01679
C 28.26097 30.55157 0.00367
C 27.04423 29.78402 0.04306
C 27.00731 28.39118 0.00996
C 28.18929 27.66083 0.00195
C 28.18097 26.28253 -0.00802
C 3.621 32.00116 0.03189
C 2.38071 32.71355 -0.04307
