364
Graphene
C 0.01466 0.02475 0.01295
C 9.86518 11.32309 0.00052
C 11.04792 10.71312 -0.03682
C 11.07394 9.26588 0.01965
C 9.8604 8.48272 0.02058
C 9.87364 7.1341 -0.01957
C 11.08628 6.40972 -0.0108
C 11.04026 4.94175 -0.00368
C 9.813 4.22356 -0.02696
C 9.81356 12.67647 0.00374
C 9.83613 2.80996 -0.00114
C 11.10875 0.72577 0.00798
C 9.83288 34.0791 0.00422
C 12.33313 32.62416 0.0351
C 13.55567 31.90945 -0.03113
C 13.49337 30.57681 0.02098
C 12.31115 29.77287 0.01848
C 12.30874 28.35723 -0.00619
C 12.23162 17.02167 -0.02162
C 11.11889 2.08647 0.00228
C 11.01353 13.45982 -0.02813
C 11.02999 14.91165 -0.01952
C 9.85293 15.57153 0.05265
C 8.57534 2.16986 0.02894
C 8.532 0.77444 -0.01789
C 7.38865 0.03044 0.00444
C 9.85248 32.68074 -0.00925
C 11.08589 31.9635 0.01877
C 11.0954 30.53257 0.01363
C 9.83117 29.81768 -0.02162
C 9.82382 28.40143 0.00415
C 11.11116 27.71132 -0.0014
C 11.07623 26.34702 0.02162
C 9.82794 25.56051 0.0076
C 9.82802 24.18806 0.01241
C 11.08392 23.31668 -0.01454
C 11.06596 22.04567 0.01945
C 9.85835 21.34213 0.01416
C 9.89915 19.86991 0.03542
C 11.07806 19.12418 0.02299
C 11.08022 17.77708 0.00244
C 9.85814 17.00212 -0.01717
C 12.24529 15.62479 0.00889
C 13.51579 14.901 -0.00481
C 13.58233 13.49517 0.00979
C 12.30432 12.81629 0.01443
C 15.99849 6.39219 -0.03557
C 15.97167 5.04019 0.03754
C 14.75725 4.2673 0.01739
C 14.73169 2.78166 0.00755
C 16.00043 2.09788 -0.0054
C 15.98741 0.75423 0.00667
C 14.76739 34.04257 0.00143
C 17.1869 32.67635 -0.017
C 18.43796 31.99291 0.00364
C 18.48271 30.52798 -0.00831
C 18.49482 13.55392 -0.02957
C 17.21577 12.78554 -0.04422
C 17.23056 11.38057 0.00654
C 18.44201 10.61999 -0.00703
C 18.4877 9.18738 -0.04076
C 17.20125 8.53162 -0.00652
C 17.20438 7.07959 0.0058
C 18.45266 6.34211 -0.00865
C 18.47817 4.93676 0.00675
C 14.76077 7.13587 -0.00111
C 7.34369 2.85428 -0.02971
C 14.73693 8.51607 0.04892
C 15.94318 10.69368 -0.01581
C 12.27915 11.38006 0.03505
C 13.50919 10.66195 -0.02815
C 13.56788 9.2204 -0.04147
C 12.3078 8.54113 -0.05302
C 12.2993 7.11293 0.00213
C 13.52402 6.41528 -0.00066
C 13.56979 4.98902 -0.00289
C 12.33363 4.26776 0.00028
C 12.32065 2.80455 -0.02213
C 13.5012 2.10306 0.03698
C 13.51876 0.66555 -0.00109
C 12.32991 34.07105 -0.00491
C 14.7174 32.64875 0.03338
C 15.97065 31.95174 -0.0258
C 15.91365 30.52156 -0.0331
C 14.75107 29.85393 -0.00316
C 15.93509 13.48572 0.02188
C 14.77974 12.79853 -0.01979
C 14.79724 11.36925 0.02691
C 15.97052 9.22316 0.01452
C 17.20702 4.2121 -0.00311
C 7.34929 4.26078 0.00165
C 8.65281 6.36671 -0.00891
C 3.67212 6.37987 -0.01303
C 3.71773 4.98341 -0.01378
C 2.5179 4.2742 0.02635
C 2.44807 2.89715 0.0127
C 3.71513 2.0969 0.01396
C 3.67921 0.73459 0.01849
C 2.47114 0.01415 -0.01142
C 4.92109 32.68611 -0.00562
C 2.46096 7.04212 0.00848
C 6.13501 31.94431 -0.00494
C 4.89286 29.82392 0.03007
C 4.89356 28.3868 -0.00095
C 6.12837 27.70708 0.01572
C 6.11864 26.31026 -0.04848
C 4.943 25.51076 -0.00892
C 4.90813 24.16511 -0.01362
C 6.14772 23.46807 -0.0008
C 6.16165 22.02308 0.0288
C 6.10551 30.57534 0.00054
C 2.48584 8.53308 -0.00049
C 3.71358 9.23056 0.00873
C 3.66396 10.64975 0.01227
C 3.68598 30.55734 0.0086
C 2.48578 29.779 -0.00643
C 2.49964 28.42925 0.017
C 3.6837 27.67247 -0.03113
C 3.75765 26.24759 -0.02566
C 2.46453 25.55365 -0.00094
C 2.39768 24.10925 0.02322
C 3.67452 23.48258 -0.00725
C 3.68924 22.0252 -0.05697
C 2.48263 21.30273 0.01087
C 2.44999 19.8976 -0.01343
C 3.72393 19.16999 0.00988
C 3.64596 17.74304 0.0276
C 2.48952 17.03724 0.01305
C 2.38243 15.59751 -0.00077
C 3.67098 14.98387 0.03368
C 3.67408 13.51699 -0.02929
C 2.45034 12.80006 -0.00966
C 2.46967 11.39522 -0.03337
C 4.92816 21.25735 0.00393
C 4.95773 19.89928 0.00895
C 6.16864 19.22189 0.00685
C 6.14835 17.76789 0.02888
C 8.60864 26.3024 -0.01062
C 7.33697 25.52537 -0.00033
C 7.3563 24.12628 0.03589
C 8.63675 23.42258 -0.02759
C 8.61725 21.99514 0.0402
C 7.37215 21.32564 0.00572
C 7.36362 19.9529 0.03592
C 8.56587 19.18355 0.00406
C 8.64784 17.73239 0.00943
C 7.41662 17.04935 0.02841
C 7.39062 15.65364 -0.01111
C 8.58029 14.85431 -0.01275
C 8.59966 13.47495 0.00985
C 7.33888 12.80349 -0.02245
C 7.32072 11.33265 -0.00428
C 8.60279 10.64304 0.03101
C 8.58622 9.23423 -0.01536
C 7.35658 8.54251 -0.02689
C 7.42659 7.0688 -0.01046
C 8.58981 27.73286 0.01364
C 8.61501 4.97894 0.02819
C 7.41792 28.43656 -0.00719
C 8.60474 30.53758 0.02339
C 4.92164 17.04527 -0.00482
C 4.93531 15.63271 -0.01384
C 6.14937 14.9071 0.03693
C 6.11057 13.51041 0.01745
C 4.93557 12.77874 0.00488
C 4.89239 11.40956 -0.01004
C 6.12584 10.70462 -0.02896
C 6.17974 9.29273 -0.00131
C 4.90657 8.57256 -0.01118
C 4.89068 7.1342 -0.014
C 6.15871 6.4107 0.02147
C 6.10022 4.98428 0.00373
C 4.93124 4.31276 -0.00191
C 4.95415 2.83219 0.00438
C 6.15206 2.12493 0.01291
C 6.13958 0.74389 0.00093
C 4.90228 0.03609 0.00057
C 7.39395 32.68286 -0.01634
C 8.57829 31.9595 -0.00334
C 7.3554 29.87277 0.01641
C 17.22658 2.80728 0.00742
C 18.48798 2.07855 -0.01594
C 18.41856 0.72681 0.0106
C 29.48593 34.0781 0.00346
C 31.9966 32.7006 0.01713
C 33.22076 31.90934 -0.01694
C 33.20007 30.53949 0.01428
C 31.94007 29.80265 -0.02142
C 32.00105 28.39592 0.0544
C 33.1933 27.73227 0.00026
C 33.12105 26.27186 0.00682
C 30.70875 0.69992 0.00307
C 31.94034 25.50358 -0.01779
C 33.22238 23.45793 0.01927
C 33.17389 21.99854 0.01574
C 32.00471 21.33754 -0.02383
C 31.97786 19.86059 -0.01429
C 33.2009 19.17461 -0.0136
C 33.18363 17.77877 0.00594
C 32.00943 17.04641 -0.02474
C 32.01812 15.64126 0.00369
C 31.96905 24.13511 0.03794
C 30.7348 2.12165 0.00716
C 29.50789 2.85052 0.02108
C 29.45034 4.29931 0.0103
C 29.5411 24.09231 -0.02049
C 30.76191 23.40028 -0.01854
C 30.79168 22.0095 -0.01415
C 29.53287 21.33034 -0.03039
C 29.51123 19.88249 0.01836
C 30.75396 19.15859 0.03531
C 30.73883 17.72561 -0.00669
C 29.50038 17.01896 0.0101
C 29.50183 15.63315 0.01705
C 30.81275 14.95507 -0.0405
C 30.75013 13.43644 -0.01303
C 29.53386 12.75965 -0.01461
C 29.54054 11.37373 -0.02155
C 30.7446 10.66044 -0.00944
C 30.74905 9.21336 -0.03735
C 29.46582 8.53265 -0.00971
C 29.5618 7.0635 0.01518
C 30.71759 6.36761 0.01908
C 30.71922 4.99782 0.07705
C 33.19392 14.86727 0.00455
C 33.19036 13.49848 -0.00644
C 31.95104 12.78675 -0.01839
C 31.97316 11.29522 0.00137
C 0.02483 19.87908 0.01951
C 1.24068 19.20979 -0.01678
C 1.27239 17.73018 0.01223
C 34.4305 16.95944 0.00648
C 34.43272 15.61093 0.02114
C 1.25568 14.88685 -0.02957
C 1.20481 13.48782 0.00343
C 0.01264 12.74222 -0.02656
C 34.40928 11.37406 -0.02442
C 1.20507 10.68632 -0.00027
C 1.25206 9.28153 -0.00583
C 34.41322 8.52898 -0.02302
C 0.02273 7.14537 -0.02849
C 1.18222 6.38905 0.02931
C 1.22588 4.95403 0.00628
C 34.43162 4.22541 -0.0345
C 0.04754 2.86167 -0.00931
C 1.28237 2.13694 -0.00939
C 1.2325 0.67486 -0.00468
C 34.42445 21.32378 -0.02213
C 29.50322 25.54771 0.03265
C 1.23889 22.07648 0.02712
C 34.38917 24.09288 0.03076
C 33.15587 10.62441 0.00199
C 33.17653 9.23365 0.04381
C 32.02877 8.51255 0.02806
C 31.90973 7.08658 0.01504
C 33.15307 6.40637 -0.00069
C 33.19211 4.93834 0.04926
C 31.94853 4.2649 -0.03838
C 31.96889 2.81557 0.00349
C 33.19973 2.17038 -0.00323
C 33.2075 0.72959 -0.00841
C 31.97733 0.00126 0.0001
C 34.43029 32.64684 -0.02927
C 1.19415 31.9381 -0.01404
C 1.18533 30.53584 0.01027
C 34.42758 29.8328 0.01831
C 0.03819 28.37847 -0.01037
C 1.24012 27.6657 -0.00439
C 1.21084 26.30185 -0.00598
C 34.42843 25.60369 -0.05239
C 1.20918 23.49206 0.00723
C 30.70186 26.27174 0.00261
C 30.73808 27.66533 0.02326
C 29.52233 28.41739 0.00924
C 22.12357 12.77414 -0.0055
C 22.1447 11.36945 0.01515
C 23.33542 10.63416 -0.00225
C 23.32372 9.24961 0.00071
C 22.11627 8.52128 -0.01107
C 22.12765 7.15159 -0.01586
C 23.37296 6.36058 -0.01971
C 23.34752 4.94311 -0.02118
C 22.07804 4.24819 0.00733
C 22.12887 2.83451 -0.00178
C 23.37498 2.12918 0.00768
C 23.30867 0.68442 -0.0276
C 22.10621 0.00199 0.03005
C 24.58503 32.65299 -0.04078
C 25.7911 31.92482 0.02117
C 25.8132 30.55876 0.02737
C 24.62688 29.83823 -0.00498
C 24.58057 15.60783 0.00135
C 25.85418 14.91946 0.03102
C 23.31101 13.46282 0.02734
C 25.82577 13.42328 0.02555
C 23.41872 14.89667 0.01153
C 23.32507 31.93298 -0.03213
C 17.21338 0.01439 -0.01154
C 19.70121 32.64424 -0.01721
C 20.87624 31.96561 -0.02422
C 20.84176 30.52365 0.01277
C 20.82613 13.43857 0.00096
C 19.66211 12.73953 -0.01527
C 19.65175 11.3344 0.01087
C 20.94428 10.62343 0.00199
C 20.91551 9.2115 0.01511
C 19.60803 8.52317 -0.00478
C 19.61257 7.05183 -0.01662
C 20.90623 6.37436 -0.01185
C 20.92063 4.9388 0.01126
C 19.69949 4.19788 0.01852
C 19.71801 2.78207 -0.00381
C 20.93889 2.10373 0.03046
C 20.90026 0.71219 0.0296
C 19.68817 34.01019 0.03374
C 22.09974 32.633 -0.02845
C 23.38017 30.58618 0.02239
C 3.73796 31.9127 -0.00518
C 24.65229 12.74991 0.01423
C 25.8087 10.60955 -0.009
C 28.2791 14.89412 0.00152
C 28.30105 13.50066 0.01257
C 27.0447 12.74205 0.02316
C 27.09522 11.35837 0.04185
C 28.27027 10.64434 0.00194
C 28.28901 9.25813 -0.00621
C 27.10502 8.51783 0.02611
C 27.10262 7.11127 0.02198
C 28.32783 6.41359 0.01094
C 28.29022 5.00008 0.00235
C 27.07881 4.1968 0.01495
C 27.05175 2.84994 0.01259
C 28.31105 2.13845 0.01799
C 28.25614 0.75022 0.01699
C 27.02584 34.0703 -0.00416
C 29.49168 32.67439 0.01177
C 30.73332 31.95894 0.04266
C 30.73801 30.51624 0.01324
C 29.54369 29.82621 0.0014
C 27.02908 15.6941 -0.00294
C 24.59835 11.30748 -0.00285
C 27.06455 17.0771 0.00826
C 28.33327 19.1639 -0.00942
C 25.87748 9.1879 -0.01199
C 24.51534 8.51495 -0.00229
C 24.63398 7.14216 -0.00938
C 25.80757 6.37961 -0.0264
C 25.95965 5.0175 -0.01154
C 24.56422 4.28403 0.00684
C 24.59341 2.80342 -0.01052
C 25.86153 2.10695 -0.01679
C 25.74837 0.72771 0.00367
C 24.54611 0.02488 0.04306
C 27.00605 32.65706 0.00996
C 28.25546 31.9492 0.00195
C 28.31775 30.51084 -0.00802
C 26.99357 29.80294 -0.00218
C 27.04825 28.42299 -0.01654
C 28.23726 27.68411 -0.00037
C 28.2912 26.2556 -0.0032
C 28.2449 23.40958 0.00622
C 28.29031 22.02759 -0.02815
C 28.25834 17.73296 0.00487
C 2.44918 32.67115 -0.00074
