374
Graphene
C 34.39441 0.01557 0.01295
C 9.83407 8.53186 0.02299
C 9.7806 7.16768 0.00244
C 11.02468 6.38937 -0.01717
C 10.9554 4.92863 0.05265
C 9.78682 4.22135 -0.01952
C 9.79741 2.83177 -0.02813
C 10.96523 2.14402 0.00374
C 10.95085 0.75537 0.00052
C 9.73455 34.03199 -0.03682
C 12.1967 32.6065 0.01965
C 13.49191 32.00741 0.02058
C 13.52266 30.51057 -0.01957
C 12.29228 29.81243 -0.0108
C 12.28848 28.41995 -0.00368
C 13.47383 27.72465 -0.02696
C 13.5311 26.24592 -0.00114
C 12.26204 25.58872 0.00228
C 12.29001 24.22153 0.00798
C 13.59285 23.42892 0.00422
C 11.00155 9.29238 0.03542
C 13.5172 22.03586 0.0351
C 10.97295 10.66444 0.01416
C 9.90945 12.77744 -0.01454
C 9.81297 32.69637 -0.01536
C 11.03601 31.93787 -0.02689
C 10.98819 30.49559 -0.01046
C 9.73701 29.84846 -0.00891
C 9.81816 28.4726 0.02819
C 11.01787 27.73208 0.00165
C 11.01156 26.32564 -0.02971
C 9.83177 25.56548 0.02894
C 9.86074 24.15216 -0.01789
C 11.12343 23.47386 0.00444
C 11.04358 22.04252 -0.00925
C 9.81591 21.28921 0.01877
C 9.80899 19.87382 0.01363
C 11.0484 19.16683 -0.02162
C 11.13901 17.73035 0.00415
C 9.81547 17.01025 -0.0014
C 9.89601 15.67335 0.02162
C 11.14255 14.88392 0.0076
C 11.08048 13.45496 0.01241
C 9.82108 11.33402 0.01945
C 12.35674 21.28213 -0.03113
C 12.3137 19.82172 0.02098
C 13.60899 19.15851 0.01848
C 15.98828 26.20941 0.02691
C 14.75051 25.59648 -0.01581
C 14.75928 24.09475 0.01452
C 16.01781 23.3992 0.04892
C 16.05244 22.00722 -0.00111
C 14.83463 21.26882 -0.03557
C 14.84318 19.82865 0.03754
C 16.06022 19.17521 0.01739
C 16.00734 17.74956 0.00755
C 14.79126 17.01514 -0.0054
C 14.85885 15.49519 0.00667
C 16.08414 14.84487 0.00143
C 16.01611 13.40278 -0.017
C 14.76874 12.70272 0.00364
C 14.67109 11.35428 -0.00831
C 15.93001 10.52637 -0.02957
C 15.89786 9.0734 -0.04422
C 14.61729 8.37132 0.00654
C 14.71341 7.03698 -0.00703
C 15.94315 27.53938 -0.01979
C 14.73111 28.30953 0.02188
C 14.74239 29.78484 -0.00316
C 16.00104 30.56334 -0.0331
C 13.57581 17.73748 -0.00619
C 12.34571 17.02342 -0.02162
C 12.39726 15.59912 0.00889
C 13.5908 14.8387 -0.00481
C 13.51171 13.44022 0.00979
C 12.31056 12.75758 0.01443
C 12.25838 11.37959 0.03505
C 13.45166 10.6235 -0.02815
C 13.38234 9.20978 -0.04147
C 7.31291 0.02219 0.03101
C 12.21777 8.5338 -0.05302
C 13.46854 6.25723 -0.00066
C 13.41667 4.90721 -0.00289
C 12.13227 4.26043 0.00028
C 12.22559 2.85259 -0.02213
C 13.36851 2.06967 0.03698
C 13.45145 0.67983 -0.00109
C 12.20071 0.01191 -0.00491
C 14.69424 32.65027 0.03338
C 15.94881 31.88091 -0.0258
C 12.28636 7.06731 0.00213
C 8.55802 0.71872 -0.00428
C 8.50026 2.14984 -0.02245
C 7.34719 2.94094 0.00985
C 3.66521 5.06204 -0.00077
C 2.34471 4.40831 0.03368
C 2.45136 2.93168 -0.02929
C 3.66892 2.22817 -0.00966
C 3.60765 0.87351 -0.03337
C 2.43392 0.13404 0.01227
C 4.82654 32.72409 0.00873
C 6.01128 32.00885 -0.00049
C 6.10018 30.58169 0.00848
C 4.84792 29.88876 -0.01303
C 4.90754 28.48256 -0.01378
C 6.11441 27.84786 0.02635
C 6.10685 26.33213 0.0127
C 4.92956 25.62265 0.01396
C 4.94125 24.16376 0.01849
C 6.18108 23.44063 -0.01142
C 6.15678 22.03116 -0.00562
C 4.89558 21.41995 -0.00494
C 4.96526 19.94 0.00054
C 3.67213 6.49641 0.01305
C 2.3662 7.22397 0.0276
C 2.47297 8.55935 0.00988
C 3.66312 9.33301 -0.01343
C 3.60654 30.54215 0.0073
C 2.38083 29.8728 0.0174
C 2.39653 28.4304 0.03828
C 3.57137 27.71438 0.01226
C 3.66112 26.2971 -0.00279
C 2.42598 25.58254 0.01996
C 2.44279 24.14878 -0.03996
C 3.59687 23.49454 0.01465
C 3.64325 22.0584 -0.00074
C 6.1623 19.22852 0.03007
C 2.47278 21.31515 -0.00518
C 3.69086 19.19819 -0.00643
C 3.71193 17.84344 0.017
C 2.4482 17.08134 -0.03113
C 2.35359 15.67673 -0.02566
C 3.59981 15.05158 -0.00094
C 3.62399 13.55733 0.02322
C 2.47348 12.85795 -0.00725
C 2.41651 11.48292 -0.05697
C 3.59642 10.71616 0.01087
C 2.46052 19.88737 0.0086
C 16.00131 6.34871 -0.04076
C 6.14848 17.80952 -0.00095
C 4.91594 15.71638 -0.04848
C 8.57535 23.46238 0.00057
C 8.60583 22.05446 -0.01634
C 7.44437 21.31841 -0.00334
C 7.4028 19.87137 0.02339
C 8.64329 19.13941 0.01641
C 8.64176 17.75498 -0.00719
C 7.4062 17.14242 0.01364
C 7.36651 15.56074 -0.01062
C 8.6643 14.92696 -0.00033
C 8.70466 13.48028 0.03589
C 7.3669 12.7832 -0.02759
C 7.3686 11.39149 0.0402
C 8.54129 10.73803 0.00572
C 8.56009 9.28836 0.03592
C 7.37067 8.54066 0.00406
C 7.37509 7.20103 0.00943
C 8.5581 6.4354 0.02841
C 8.55233 5.02854 -0.01111
C 7.27323 4.29943 -0.01275
C 7.35838 24.25763 0.00093
C 7.38059 25.73762 0.01291
C 8.56979 26.36532 0.00438
C 8.59341 27.76221 -0.00191
C 6.17041 14.96388 -0.00892
C 6.12556 13.56598 -0.01362
C 4.81815 12.83288 -0.0008
C 4.90507 11.40291 0.0288
C 6.15094 10.70156 0.00393
C 6.076 9.27949 0.00895
C 4.87251 8.59549 0.00685
C 4.9222 7.17447 0.02888
C 6.18283 6.48343 -0.00482
C 4.97338 17.11234 0.01572
C 6.10533 5.04242 -0.01384
C 4.9126 2.91779 0.01745
C 6.15366 2.16902 0.00488
C 6.13637 0.75627 -0.01004
C 4.79811 0.12835 -0.02896
C 7.23695 32.68981 -0.00131
C 8.56565 32.02428 -0.01118
C 8.55504 30.55533 -0.014
C 7.27882 29.87102 0.02147
C 7.35495 28.45172 0.00373
C 4.89953 4.31982 0.03693
C 15.95318 4.93908 -0.00652
C 14.68694 4.23893 0.0058
C 14.591 2.79374 -0.00865
C 30.85628 22.12111 0.00716
C 29.57868 21.37254 0.00307
C 29.48937 19.84508 0.00346
C 30.71382 19.11632 0.01713
C 30.85567 17.69281 -0.01694
C 30.55438 4.91935 0.01428
C 29.5955 4.28628 -0.02142
C 29.44599 2.82879 0.0544
C 30.69334 2.172 0.00026
C 30.70821 0.79886 0.00682
C 29.56027 0.0344 -0.01779
C 31.9567 32.72431 0.03794
C 33.17404 32.02744 0.01927
C 33.21441 30.58131 0.01574
C 32.007 29.85208 -0.02383
C 32.00831 28.32265 -0.01429
C 33.15953 27.60976 -0.0136
C 33.16838 26.12342 0.00594
C 31.8943 25.31202 -0.02474
C 29.3423 25.40877 0.02108
C 30.58495 26.03636 0.0103
C 30.70565 27.61824 0.07705
C 29.5311 28.32762 0.01908
C 28.27192 30.62452 0.02326
C 27.09822 29.80894 0.00261
C 27.05777 28.41729 0.03265
C 28.31248 27.72717 -0.02049
C 28.24143 26.24109 -0.01854
C 27.03284 25.62346 -0.01415
C 27.06711 24.17969 -0.03039
C 28.34115 23.72066 0.01836
C 28.39876 22.08938 0.03531
C 31.84487 23.9227 0.00369
C 27.14374 21.34291 -0.00669
C 28.33108 19.0507 0.01705
C 27.10268 2.9638 -0.0405
C 28.23794 2.09484 -0.01303
C 28.32211 0.7387 -0.01461
C 27.06693 0.09342 -0.02155
C 29.48958 32.68907 -0.00944
C 30.70132 31.97013 -0.03735
C 30.74164 30.58988 -0.00971
C 29.53401 29.80456 0.01518
C 27.09735 19.8616 0.0101
C 28.28136 32.03066 0.00924
C 33.17535 23.30028 0.00455
C 31.93661 21.27619 -0.01839
C 34.29295 19.91264 0.01951
C 1.1224 19.2539 -0.01678
C 1.21239 17.76086 0.01223
C 34.41847 17.11857 0.00648
C 34.37656 15.65229 0.02114
C 1.19042 15.02428 -0.02957
C 1.20795 13.63099 0.00343
C 0.07229 12.81232 -0.02656
C 0.1744 11.60358 -0.02442
C 1.25163 10.70163 -0.00027
C 1.25458 9.28374 -0.00583
C 0.0687 8.55166 -0.02302
C 34.2204 7.27515 -0.02849
C 1.12004 6.50864 0.02931
C 1.18111 5.13649 0.00628
C 34.37325 4.34962 -0.0345
C 34.34465 3.00034 -0.00931
C 1.19164 2.25649 -0.00939
C 1.19517 0.83802 -0.00468
C 34.39558 21.31069 -0.02213
C 1.17873 22.06838 0.02712
C 1.18676 23.42768 0.00723
C 34.35782 24.09988 0.03076
C 31.85563 19.80488 0.00137
C 33.05508 19.18492 0.00199
C 33.19214 17.7365 0.04381
C 31.85379 17.02454 0.02806
C 33.19911 15.03634 0.01504
C 33.11897 6.35461 -0.00069
C 33.14007 5.03248 0.04926
C 31.95854 4.32272 -0.03838
C 31.89795 2.85279 0.00349
C 33.22315 21.9257 -0.00644
C 33.11557 2.27788 -0.00323
C 31.92802 0.08718 0.0001
C 34.38947 32.72665 -0.02927
C 1.1874 32.04037 -0.01404
C 1.08377 30.66082 0.01027
C 34.39978 29.87706 0.01831
C 34.36371 28.40411 -0.01037
C 1.17512 27.75633 -0.00439
C 1.20464 26.26616 -0.00598
C 34.38473 25.50374 -0.05239
C 33.15612 0.80027 -0.00841
C 3.63198 32.03741 0.00402
C 27.07086 32.71227 0.0014
C 25.83077 0.78887 0.04266
C 17.07233 8.50871 -0.03213
C 17.19822 7.13611 0.02239
C 18.41523 6.32388 0.01153
C 18.19397 4.8896 0.02734
C 17.03315 4.16887 -0.0055
C 17.08802 2.76757 0.01515
C 18.34137 2.05498 -0.00225
C 18.37115 0.64747 0.00071
C 17.19958 33.98951 -0.01107
C 19.63201 32.57741 -0.01586
C 20.90515 31.89842 -0.01971
C 20.89439 30.4821 -0.02118
C 19.66672 29.76117 0.00733
C 19.67577 28.3679 -0.00178
C 20.92989 27.64152 0.00768
C 20.94637 26.16399 -0.0276
C 19.70184 25.4664 0.03005
C 19.71194 24.10883 -0.04078
C 20.87313 23.33722 0.02117
C 17.1961 11.08268 -0.02845
C 17.18367 12.53342 0.03374
C 18.32426 13.52433 0.0296
C 18.40838 14.80777 0.03046
C 15.86943 2.06171 0.00675
C 15.90186 0.66202 -0.00311
C 14.66293 34.03788 0.00742
C 17.19063 32.59716 -0.01594
C 18.38282 31.91875 0.0106
C 18.43636 30.50309 -0.01154
C 17.25328 29.75425 -0.01721
C 17.23879 28.35108 -0.02422
C 18.41944 27.6924 0.01277
C 20.93144 21.92161 0.02737
C 18.38438 26.23367 0.00096
C 17.21656 24.13505 0.01087
C 18.46459 23.41057 0.00199
C 18.47115 22.06638 0.01511
C 17.22968 21.30033 -0.00478
C 17.24113 19.88626 -0.01662
C 18.43172 19.13144 -0.01185
C 18.35104 17.67893 0.01126
C 17.18008 17.05357 0.01852
C 17.19181 15.65463 -0.00381
C 17.19005 25.50128 -0.01527
C 24.56731 0.09822 0.01324
C 19.63205 21.36441 -0.00498
C 20.90704 19.19813 0.03102
C 23.30084 2.15683 0.00487
C 23.28718 0.67424 0.00826
C 22.09466 34.05578 -0.00294
C 24.62597 32.73639 0.00152
C 25.83477 31.97834 0.01257
C 25.81967 30.49006 0.02316
C 24.60177 29.80817 0.04185
C 24.6005 28.44713 0.00194
C 25.8402 27.71828 -0.00621
C 25.84328 26.33152 0.02611
C 24.62537 25.55774 0.02198
C 24.67168 24.02349 0.01094
C 25.84727 23.3397 0.00235
C 25.83059 21.88381 0.01495
C 24.59986 21.16646 0.01259
C 24.44092 19.7433 0.01799
C 25.82911 19.27178 0.01699
C 24.50432 2.69689 -0.00416
C 25.94664 2.28671 0.01177
C 22.09102 2.83413 -0.00942
C 21.89921 4.20099 -0.02815
C 23.29359 18.9743 0.00622
C 22.11884 19.91355 -0.0032
C 20.71362 17.69671 0.02555
C 19.61914 17.02209 0.01423
C 20.84247 4.73426 -0.00285
C 19.5191 4.16507 -0.009
C 19.54839 2.72908 -0.01199
C 20.92147 2.09588 -0.00229
C 20.87177 0.68235 -0.00938
C 19.6505 33.99565 -0.0264
C 22.05317 32.65659 -0.01154
C 19.60489 19.90361 0.00135
C 23.35896 31.91219 0.00684
C 22.13319 29.85181 -0.01679
C 22.16263 28.38071 0.00367
C 23.37192 27.73972 0.04306
C 23.4106 26.21322 0.00996
C 22.19584 25.44251 0.00195
C 22.2794 24.1065 -0.00802
C 23.46831 23.40301 -0.00218
C 23.40591 21.98957 -0.01654
C 22.20754 21.31857 -0.00037
C 23.40472 30.55876 -0.01052
C 2.42569 32.74822 0.02374
