425
Graphene
C 0.01736 0.02187 0.01295
C 12.33159 7.08997 0.00572
C 13.48663 6.46773 0.03592
C 13.50735 5.02448 0.00406
C 12.31081 4.25285 0.00943
C 12.34513 2.88589 0.02841
C 13.54608 2.15742 -0.01111
C 13.4719 0.68502 -0.01275
C 12.25691 34.0714 0.00985
C 14.73949 32.56123 -0.02245
C 15.98931 31.91877 -0.00428
C 12.33859 8.55168 0.0402
C 16.02303 30.48979 0.03101
C 14.79273 28.38216 -0.02689
C 16.02719 27.6713 -0.01046
C 15.96706 26.35299 -0.00891
C 14.78838 25.53098 0.02819
C 14.76974 24.0813 0.00165
C 15.9418 23.38783 -0.02971
C 16.03431 21.93985 0.02894
C 14.6881 21.27858 -0.01789
C 14.75277 19.90174 0.00444
C 15.94464 19.13976 -0.00925
C 14.73196 29.84323 -0.01536
C 13.43739 9.29359 -0.02759
C 13.54216 10.73553 0.03589
C 12.30524 11.36965 -0.00033
C 11.09211 9.24131 -0.01384
C 9.85122 8.52642 0.03693
C 9.82279 7.116 0.01745
C 11.07114 6.38622 0.00488
C 11.08695 5.00767 -0.01004
C 9.84129 4.37136 -0.02896
C 9.82823 2.87709 -0.00131
C 11.0566 2.19898 -0.01118
C 11.07311 0.64992 -0.014
C 9.84178 34.0615 0.02147
C 12.33695 32.68877 0.00373
C 13.60296 31.93507 -0.00191
C 13.50151 30.47614 0.00438
C 12.28234 29.83359 0.01291
C 12.34086 28.37381 0.00093
C 13.46458 27.67383 0.00057
C 13.56399 26.25758 -0.01634
C 12.42149 25.56825 -0.00334
C 12.29655 24.19211 0.02339
C 13.55636 23.46795 0.01641
C 13.4876 22.13147 -0.00719
C 12.27683 21.34609 0.01364
C 12.25883 19.83405 -0.01062
C 14.78356 11.29341 0.01877
C 11.09049 10.71635 -0.00482
C 15.98837 10.61587 0.01363
C 14.70284 8.54662 0.00415
C 17.20221 11.38877 0.0351
C 18.46292 10.6229 -0.03113
C 18.51404 9.27329 0.02098
C 17.22495 8.47695 0.01848
C 17.2352 7.09873 -0.00619
C 18.44068 6.37178 -0.02162
C 18.4703 4.92425 0.00889
C 17.15136 4.25989 -0.00481
C 17.18288 2.82321 0.00979
C 18.45544 2.09155 0.01443
C 17.21427 12.73609 0.00422
C 18.423 0.7475 0.03505
C 19.63068 32.67173 -0.04147
C 20.85924 31.96922 -0.05302
C 20.82676 30.5802 0.00213
C 19.65098 29.852 -0.00066
C 19.66637 28.40817 -0.00289
C 20.97928 27.66428 0.00028
C 20.94569 26.26304 -0.02213
C 19.70175 25.5766 0.03698
C 19.68344 24.1607 -0.00109
C 20.94788 23.43802 -0.00491
C 17.20949 0.01188 -0.02815
C 18.4079 13.46143 0.00798
C 18.43125 14.91273 0.00228
C 17.22723 17.02948 -0.00114
C 14.79787 7.14389 -0.0014
C 15.96488 6.39401 0.02162
C 15.93102 4.98202 0.0076
C 14.6968 4.27752 0.01241
C 14.7357 2.82691 -0.01454
C 15.92338 2.13541 0.01945
C 15.97213 0.73749 0.01416
C 14.78911 34.06649 0.03542
C 17.20266 32.64141 0.02299
C 18.44852 31.88366 0.00244
C 18.40383 30.49873 -0.01717
C 17.22961 29.77802 0.05265
C 17.18945 28.37094 -0.01952
C 18.47207 27.66089 -0.02813
C 18.50079 26.28034 0.00374
C 17.18986 25.615 0.00052
C 17.23645 24.10778 -0.03682
C 18.42944 23.42596 0.01965
C 18.43423 22.00883 0.02058
C 17.22644 21.33463 -0.01957
C 17.21871 19.80513 -0.0108
C 18.42581 19.18481 -0.00368
C 18.40013 17.74618 -0.02696
C 15.94456 9.20597 -0.02162
C 9.83777 11.38273 0.02888
C 9.82126 12.83706 0.00685
C 9.84797 16.99262 0.00895
C 3.70676 2.14076 -0.00449
C 3.71883 0.72177 -0.01979
C 2.47479 0.00468 0.02784
C 4.85271 32.73702 -0.01977
C 6.15069 31.97262 -0.00561
C 6.15815 30.50719 0.00208
C 4.89848 29.82322 0.01707
C 4.90082 28.43214 0.02769
C 6.20167 27.63771 -0.03291
C 6.24878 26.27077 -0.04999
C 2.45027 2.82514 0.00211
C 5.0186 25.53494 0.04505
C 6.13505 23.40519 -0.04307
C 6.08119 21.98237 0.03189
C 4.87474 21.38718 0.00031
C 4.92285 19.89976 -0.003
C 6.1696 19.17033 0.01402
C 6.13502 17.78713 0.02379
C 4.97514 17.0278 0.00907
C 4.89102 15.57911 0.00643
C 6.18979 14.88274 -0.01509
C 6.06718 13.43982 0.03267
C 4.9001 24.19847 0.03284
C 2.4063 4.29221 0.0064
C 3.64589 4.98935 -0.00039
C 3.72725 6.42464 0.02728
C 3.69066 30.44875 -0.01471
C 2.48972 29.83134 -0.02827
C 2.49321 28.43931 0.01078
C 3.69709 27.72394 -0.00112
C 3.69469 26.24518 0.03345
C 2.43332 25.47736 0.00748
C 2.44538 24.0911 0.00662
C 3.71718 23.42165 -0.0154
C 3.69062 21.98366 -0.01299
C 2.45744 21.33119 -0.00407
C 2.49062 19.9382 0.01138
C 3.67197 19.16595 0.03278
C 3.76002 17.73363 -0.00177
C 2.51706 17.04103 0.04421
C 2.48365 15.66928 0.00088
C 3.64048 14.81728 0.00828
C 3.66394 13.47016 -0.02375
C 2.41349 12.79439 0.00558
C 2.40696 11.30681 -0.0059
C 3.70799 10.63805 -0.01386
C 3.6678 9.2506 -0.02805
C 2.43293 8.53558 0.00081
C 2.48964 7.03297 0.00245
C 4.88586 12.81621 0.02374
C 4.92938 11.39123 0.00402
C 6.20458 10.68146 0.0073
C 6.12733 9.21786 0.0174
C 7.37512 12.78435 0.01227
C 7.44302 11.41152 0.00873
C 8.61234 10.65638 -0.00049
C 8.58527 9.27626 0.00848
C 7.42602 8.52284 -0.01303
C 7.38961 7.16375 -0.01378
C 8.59675 6.43277 0.02635
C 8.63507 5.04 0.0127
C 7.33168 4.36303 0.01396
C 7.36553 2.90333 0.01849
C 8.63257 2.15721 -0.01142
C 8.54065 0.7051 -0.00562
C 7.37483 0.01977 -0.00494
C 9.86093 32.6416 0.00054
C 11.09351 31.92762 0.03007
C 11.01339 30.54761 -0.00095
C 9.78322 29.89269 0.01572
C 9.83368 24.13359 -0.04848
C 10.99285 23.44758 -0.00892
C 11.00073 22.05524 -0.01362
C 9.82811 21.28059 -0.0008
C 9.86137 19.8633 0.0288
C 11.06554 19.27781 0.00393
C 8.59658 13.52763 -0.03337
C 20.95812 22.05629 0.03338
C 8.62228 14.88125 -0.00966
C 7.36623 17.07396 0.03368
C 4.85694 8.51064 0.03828
C 4.91315 7.11425 0.01226
C 6.12954 6.44843 -0.00279
C 6.04499 4.99007 0.01996
C 4.85124 4.26544 -0.03996
C 4.89596 2.78627 0.01465
C 6.16695 2.1887 -0.00074
C 6.11965 0.72041 -0.00518
C 4.93904 0.05077 0.0086
C 7.37215 32.62196 -0.00643
C 8.60555 31.96185 0.017
C 8.60916 30.56659 -0.03113
C 7.41619 29.83533 -0.02566
C 7.4288 28.44039 -0.00094
C 8.55326 27.65928 0.02322
C 7.37398 25.55859 -0.00725
C 7.34649 24.15554 -0.05697
C 8.55663 23.5086 0.01087
C 8.64019 22.01561 -0.01343
C 7.38091 21.2613 0.00988
C 7.42412 19.86205 0.0276
C 8.59891 19.22052 0.01305
C 8.61961 17.78159 -0.00077
C 7.42366 15.61687 -0.02929
C 3.66154 31.94317 0.01218
C 19.67191 21.2868 -0.0258
C 20.87974 19.21256 -0.00316
C 29.57195 11.39483 -0.02155
C 30.75421 10.57456 -0.00944
C 30.7823 9.17587 -0.03735
C 29.54431 8.54057 -0.00971
C 29.51919 7.14474 0.01518
C 30.74442 6.35351 0.01908
C 30.68172 4.9899 0.07705
C 29.54779 4.21331 0.0103
C 29.47976 2.79378 0.02108
C 30.70225 2.14504 0.00716
C 29.489 12.76208 -0.01461
C 30.70905 0.7336 0.00307
C 31.96336 32.65813 0.01713
C 33.21813 31.88662 -0.01694
C 33.24388 30.50672 0.01428
C 31.98547 29.85318 -0.02142
C 32.04744 28.38201 0.0544
C 33.21034 27.61597 0.00026
C 33.21635 26.26981 0.00682
C 32.01512 25.52851 -0.01779
C 31.94803 24.12115 0.03794
C 33.21656 23.39844 0.01927
C 29.50719 0.0057 0.00346
C 30.7328 13.51257 -0.01303
C 30.7764 14.97811 -0.0405
C 29.50516 15.62195 0.01705
C 28.3322 6.44419 0.01094
C 28.25034 4.99809 0.00235
C 27.05918 4.25913 0.01495
C 27.05472 2.83087 0.01259
C 28.32332 2.16549 0.01799
C 28.31633 0.69718 0.01699
C 27.02515 34.02995 -0.00416
C 29.51703 32.68791 0.01177
C 30.74185 31.96454 0.04266
C 30.77526 30.57856 0.01324
C 29.46345 29.73359 0.0014
C 29.4852 28.35545 0.00924
C 30.75105 27.67054 0.02326
C 30.79911 26.24906 0.00261
C 29.43896 25.49832 0.03265
C 29.44979 24.12486 -0.02049
C 30.72597 23.39578 -0.01854
C 30.7261 22.02003 -0.01415
C 29.52039 21.25426 -0.03039
C 29.52239 19.93462 0.01836
C 30.75493 19.20822 0.03531
C 30.74912 17.73698 -0.00669
C 29.50591 17.02126 0.0101
C 33.17062 21.97774 0.01574
C 27.0104 7.12067 0.02198
C 31.97476 21.32871 -0.02383
C 33.23899 19.13142 -0.0136
C 1.22078 23.42789 0.00723
C 1.18383 22.06515 0.02712
C 34.43176 21.33397 -0.02213
C 34.42813 19.94751 0.01951
C 1.21171 19.20195 -0.01678
C 1.19948 17.75048 0.01223
C 34.42445 17.06552 0.00648
C 0.01364 15.6119 0.02114
C 1.24699 14.91766 -0.02957
C 1.20908 13.45669 0.00343
C 34.41129 24.14105 0.03076
C 34.41841 12.78846 -0.02656
C 1.18502 10.74037 -0.00027
C 1.22653 9.17849 -0.00583
C 34.41628 8.49435 -0.02302
C 34.37108 7.09057 -0.02849
C 1.21908 6.39875 0.02931
C 1.24191 4.95892 0.00628
C 34.35698 4.18003 -0.0345
C 34.40328 2.80953 -0.00931
C 1.26087 2.12824 -0.00939
C 1.22762 0.66822 -0.00468
C 34.36953 11.38164 -0.02442
C 0.02676 25.53433 -0.05239
C 1.26029 26.25011 -0.00598
C 1.2761 27.70442 -0.00439
C 33.17617 17.73514 0.00594
C 31.99509 16.9737 -0.02474
C 31.98774 15.58952 0.00369
C 33.18252 14.87466 0.00455
C 33.21955 13.47555 -0.00644
C 32.01246 12.75349 -0.01839
C 31.94657 11.38694 0.00137
C 33.0987 10.64541 0.00199
C 33.12181 9.2071 0.04381
C 31.96565 8.45642 0.02806
C 31.93042 7.10113 0.01504
C 33.22823 6.37374 -0.00069
C 33.22433 4.95583 0.04926
C 31.87023 4.28299 -0.03838
C 31.90437 2.78888 0.00349
C 33.20558 2.10651 -0.00323
C 33.20965 0.67896 -0.00841
C 32.00486 34.02928 0.0001
C 0.04279 32.61328 -0.02927
C 1.26718 31.93672 -0.01404
C 1.21581 30.53408 0.01027
C 0.02685 29.74894 0.01831
C 34.4032 28.35511 -0.01037
C 31.9591 19.91876 -0.01429
C 27.11099 8.46605 0.02611
C 28.37009 9.19482 -0.00621
C 28.28892 10.61026 0.00194
C 23.3675 23.39882 0.00742
C 23.37615 21.99971 -0.01594
C 22.14307 21.28163 0.0106
C 22.16012 19.8972 -0.01154
C 23.31731 19.15394 -0.01721
C 23.35489 17.76014 -0.02422
C 22.1758 17.01721 0.01277
C 22.18551 15.62556 0.00096
C 23.3835 14.93772 -0.01527
C 23.3764 13.53075 0.01087
C 22.18081 24.05153 -0.00311
C 22.12734 12.77406 0.00199
C 23.39508 10.67935 -0.00478
C 23.3283 9.29482 -0.01662
C 22.10578 8.51735 -0.01185
C 22.1433 7.11708 0.01126
C 23.34061 6.3969 0.01852
C 23.34712 4.95362 -0.00381
C 22.168 4.28667 0.03046
C 22.1264 2.90843 0.0296
C 23.36575 2.09377 0.03374
C 23.38775 0.75454 -0.02845
C 22.16214 11.35169 0.01511
C 22.18471 25.50821 0.00675
C 23.29823 26.23338 -0.00865
C 23.40046 27.70771 0.0058
C 20.91515 17.74014 0.02188
C 19.83172 17.08472 -0.01979
C 19.63818 15.6569 0.02691
C 20.90457 14.89231 -0.01581
C 20.91206 13.46778 0.01452
C 19.59662 12.7803 0.04892
C 19.59935 11.36959 -0.00111
C 20.85526 10.64279 -0.03557
C 20.87503 9.21664 0.03754
C 19.71183 8.4717 0.01739
C 19.59082 7.05175 0.00755
C 20.90039 6.39009 -0.0054
C 20.86644 4.9884 0.00667
C 19.636 4.23058 0.00143
C 19.64413 2.86294 -0.017
C 20.90749 2.15795 0.00364
C 20.9143 0.70848 -0.00831
C 19.65905 0.02831 -0.02957
C 22.14618 32.57824 -0.04422
C 23.38971 31.94785 0.00654
C 23.35798 30.5025 -0.00703
C 22.12778 29.83109 -0.04076
C 22.25475 28.48183 -0.00652
C 22.146 0.00152 -0.03213
C 24.5618 32.61964 0.02239
C 25.81608 31.91573 0.01153
C 25.80196 30.54869 0.02734
C 25.7829 0.74394 -0.01154
C 24.6019 34.07571 0.00684
C 27.11545 32.66781 -0.01052
C 28.3259 31.95874 -0.01679
C 28.27252 30.53632 0.00367
C 27.02194 29.78118 0.04306
C 27.04989 28.44029 0.00996
C 28.28128 27.6931 0.00195
C 28.24533 26.25449 -0.00802
C 27.0112 25.55069 -0.00218
C 27.04467 24.12482 -0.01654
C 28.24419 23.40389 -0.00037
C 28.30763 21.99761 -0.0032
C 27.07759 21.27635 0.00622
C 27.04409 19.92745 -0.02815
C 28.32904 19.19807 -0.00942
C 28.23473 17.74252 0.00487
C 27.05073 17.02475 0.00826
C 27.04828 15.64629 -0.00294
C 28.28916 14.96208 0.00152
C 28.28615 13.46248 0.01257
C 27.04044 12.72737 0.02316
C 27.14011 11.34099 0.04185
C 25.79274 2.19673 -0.0264
C 19.67583 19.89542 -0.0331
C 24.59158 2.89311 -0.00938
C 25.82375 4.94744 -0.01199
C 24.58504 29.74181 -0.0055
C 24.5532 28.35253 0.01515
C 25.86741 27.69313 -0.00225
C 25.79223 26.2598 0.00071
C 24.52866 25.57879 -0.01107
C 24.58077 24.13345 -0.01586
C 25.78081 23.43822 -0.01971
C 25.83131 21.99359 -0.02118
C 24.53798 21.20187 0.00733
C 24.53745 19.85309 -0.00178
C 25.81072 19.21352 0.00768
C 25.82906 17.81287 -0.0276
C 24.5664 16.96181 0.03005
C 24.61007 15.61765 -0.04078
C 25.81742 14.98124 0.02117
C 25.82712 13.51434 0.02737
C 24.60678 12.851 -0.00498
C 24.62877 11.34889 0.00135
C 25.84554 10.60696 0.03102
C 25.83846 9.20061 0.02555
C 24.57721 8.51278 0.01423
C 24.59606 7.05894 -0.00285
C 25.86036 6.39898 -0.009
C 24.59165 4.2625 -0.00229
C 2.47052 32.69908 0.02426
