377
Graphene
C 34.33569 34.06985 0.01295
C 10.95267 6.49531 0.03542
C 11.02109 4.94077 0.02299
C 9.79943 4.26694 0.00244
C 9.79083 2.91221 -0.01717
C 10.94402 2.1534 0.05265
C 10.99634 0.79436 -0.01952
C 9.81559 0.02185 -0.02813
C 12.34492 32.69679 0.00374
C 13.58828 31.94762 0.00052
C 13.61032 30.52175 -0.03682
C 12.35385 29.82841 0.01965
C 12.32484 28.46253 0.02058
C 13.5669 27.65218 -0.01957
C 13.55347 26.21209 -0.0108
C 12.33018 25.47824 -0.00368
C 12.21708 24.07186 -0.02696
C 13.42101 23.45975 -0.00114
C 12.40427 21.29038 0.00228
C 12.35179 19.8387 0.00798
C 9.79509 7.19062 0.01416
C 9.81298 8.56369 0.01945
C 11.03458 9.30723 -0.01454
C 10.97647 10.6528 0.01241
C 11.10318 31.96184 -0.00428
C 11.07858 30.53487 0.03101
C 9.78722 29.82534 -0.01536
C 9.84 28.34984 -0.02689
C 11.06958 27.66009 -0.01046
C 11.0882 26.25656 -0.00891
C 9.87649 25.60181 0.02819
C 9.80386 24.21326 0.00165
C 10.97096 23.34706 -0.02971
C 11.94133 16.25036 0.00422
C 11.05246 21.91695 0.02894
C 10.06164 19.68051 0.00444
C 11.3648 18.77622 -0.00925
C 11.2472 17.4377 0.01877
C 9.84227 16.98695 0.01363
C 9.77157 15.62996 -0.02162
C 11.22199 15.06584 0.00415
C 11.27991 13.67004 -0.0014
C 9.96275 12.89281 0.02162
C 9.76685 11.45661 0.0076
C 9.90092 21.1148 -0.01789
C 9.83081 32.68511 -0.02245
C 13.83092 12.82664 0.0351
C 12.17952 11.37839 0.02098
C 14.67139 7.2273 -0.01979
C 15.90888 6.4634 0.02691
C 15.93634 5.01285 -0.01581
C 14.76333 4.20675 0.01452
C 14.72495 2.79982 0.04892
C 15.98408 2.04502 -0.00111
C 16.01864 0.62135 -0.03557
C 14.70838 34.06913 0.03754
C 17.21712 32.50769 0.01739
C 18.45397 31.84454 0.00755
C 18.4034 30.40095 -0.0054
C 17.29033 29.5744 0.00667
C 17.29808 28.17524 0.00143
C 18.4847 27.41452 -0.017
C 18.48254 25.95672 0.00364
C 17.23519 25.28401 -0.00831
C 17.01002 11.45951 -0.02957
C 18.32351 10.85434 -0.04422
C 18.32732 9.33817 0.00654
C 14.67424 8.64926 0.02188
C 15.85928 9.40263 -0.00316
C 15.83204 10.96847 -0.0331
C 14.46077 11.72418 -0.0258
C 13.37597 10.79594 0.01848
C 13.46799 9.36268 -0.00619
C 12.25925 8.56962 -0.02162
C 12.22537 7.15411 0.00889
C 13.43155 6.47003 -0.00481
C 13.54527 4.96359 0.00979
C 12.25661 4.23049 0.01443
C 12.26803 2.83839 0.03505
C 13.48463 2.1327 -0.02815
C 12.41157 12.84411 -0.03113
C 13.50521 0.68969 -0.04147
C 14.75385 32.59531 0.00213
C 16.04321 31.83932 -0.00066
C 16.02382 30.35308 -0.00289
C 14.73574 29.75995 0.00028
C 14.73971 28.34311 -0.02213
C 16.02952 27.51713 0.03698
C 16.09778 26.05651 -0.00109
C 14.75652 25.47065 -0.00491
C 14.58112 24.15253 0.03338
C 12.25047 0.05585 -0.05302
C 7.34528 0.09014 0.00985
C 8.54307 0.76707 -0.01275
C 8.53818 2.23656 -0.01111
C 3.67175 4.97446 0.00988
C 2.36025 4.32022 0.0276
C 2.36736 2.87891 0.01305
C 3.59603 2.16622 -0.00077
C 3.60734 0.70759 0.03368
C 2.32632 0.09081 -0.02929
C 4.84912 32.71332 -0.00966
C 6.12131 31.99704 -0.03337
C 6.06405 30.57727 0.01227
C 4.82867 29.90002 0.00873
C 4.88934 28.46017 -0.00049
C 6.11075 27.81151 0.00848
C 6.09754 26.29816 -0.01303
C 4.88667 25.51752 -0.01378
C 4.94457 24.17466 0.02635
C 6.20499 23.40464 0.0127
C 6.22292 22.03117 0.01396
C 4.95857 21.3524 0.01849
C 4.91122 19.95144 -0.01142
C 3.65479 6.43582 -0.01343
C 2.36798 7.20442 0.01087
C 2.37266 8.62052 -0.05697
C 3.67404 9.3027 -0.00725
C 3.64605 30.6438 0.03267
C 2.47756 29.86749 0.02374
C 2.46639 28.44098 0.00402
C 3.71741 27.68535 0.0073
C 3.70763 26.25184 0.0174
C 2.36621 25.60549 0.03828
C 2.37202 24.20072 0.01226
C 3.68233 23.53691 -0.00279
C 3.66146 22.09204 0.01996
C 6.21482 19.28636 -0.00562
C 2.43216 21.33998 -0.03996
C 3.66591 19.21192 -0.00074
C 3.73604 17.81847 -0.00518
C 2.4188 17.1299 0.0086
C 2.45998 15.6094 -0.00643
C 3.73095 15.02256 0.017
C 3.62205 13.62616 -0.03113
C 2.4691 12.86856 -0.02566
C 2.47222 11.43318 -0.00094
C 3.63154 10.69701 0.02322
C 2.44866 19.95315 0.01465
C 6.23739 17.88256 -0.00494
C 4.94135 17.11482 0.00054
C 4.972 15.68114 0.03007
C 8.59495 23.45818 0.00438
C 8.62391 21.97008 0.01291
C 7.41798 21.26682 0.00093
C 7.4508 19.86751 0.00057
C 8.71167 19.21289 -0.01634
C 8.70503 17.7728 -0.00334
C 7.41225 17.14052 0.02339
C 7.35855 15.67675 0.01641
C 8.53956 14.90264 -0.00719
C 7.37855 24.17258 -0.00191
C 8.61753 13.53722 0.01364
C 7.38045 11.40432 -0.00033
C 8.62842 10.71955 0.03589
C 8.54429 9.35664 -0.02759
C 7.32553 8.54405 0.0402
C 7.3309 7.17449 0.00572
C 8.56055 6.4526 0.03592
C 8.65166 5.04623 0.00406
C 7.33754 4.40783 0.00943
C 7.26599 2.9515 0.02841
C 7.35734 12.83273 -0.01062
C 17.09053 8.69641 -0.00703
C 7.36613 25.64743 0.00373
C 8.59145 27.73972 -0.014
C 6.18178 14.99779 -0.00095
C 6.09982 13.55167 0.01572
C 4.8853 12.83663 -0.04848
C 4.88248 11.36346 -0.00892
C 6.14013 10.65972 -0.01362
C 6.13666 9.2134 -0.0008
C 4.83265 8.52826 0.0288
C 4.84357 7.15668 0.00393
C 6.06369 6.47887 0.00895
C 8.67408 26.33607 0.02147
C 6.10303 5.03061 0.00685
C 4.82655 2.85606 -0.00482
C 6.11676 2.15331 -0.01384
C 6.10813 0.74804 0.03693
C 4.88139 0.09163 0.01745
C 7.38957 32.76932 0.00488
C 8.66839 32.04727 -0.01004
C 8.58065 30.6549 -0.02896
C 7.25082 29.85613 -0.00131
C 7.33715 28.48821 -0.01118
C 4.88013 4.28313 0.02888
C 3.6856 32.02979 -0.01509
C 17.12866 7.14893 -0.04076
C 18.31315 4.96853 0.0058
C 30.70053 6.42075 0.00716
C 30.63536 5.00049 0.00307
C 29.4473 4.28139 0.00346
C 29.41141 2.82737 0.01713
C 30.62619 2.15773 -0.01694
C 30.55381 0.70217 0.01428
C 29.36746 33.9975 -0.02142
C 32.0377 32.74276 0.0544
C 33.12912 32.00387 0.00026
C 33.30832 26.29186 0.00682
C 32.06888 25.71059 -0.01779
C 31.89966 24.29937 0.03794
C 33.10022 23.4895 0.01927
C 33.12078 22.05172 0.01574
C 31.88881 21.4218 -0.02383
C 31.86101 19.99892 -0.01429
C 33.18002 19.28033 -0.0136
C 33.19906 17.80945 0.00594
C 32.03275 17.01077 -0.02474
C 29.45129 7.11415 0.02108
C 29.44457 8.53636 0.0103
C 30.66043 9.22089 0.07705
C 30.69207 10.6094 0.01908
C 28.22726 6.41778 0.02326
C 28.18224 4.93399 0.00261
C 26.9541 4.2648 0.03265
C 26.92619 2.84291 -0.02049
C 28.25237 2.18647 -0.01854
C 28.23605 0.74052 -0.01415
C 26.9458 34.06203 -0.03039
C 29.36577 24.30502 0.01836
C 30.57893 23.6096 0.03531
C 32.01318 15.64272 0.00369
C 30.7051 22.18362 -0.00669
C 29.5509 19.98741 0.01705
C 30.70349 19.21952 -0.0405
C 30.69995 17.73403 -0.01303
C 29.49511 16.98579 -0.01461
C 29.55374 15.61462 -0.02155
C 30.74433 14.93336 -0.00944
C 30.7073 13.50214 -0.03735
C 29.48555 12.80838 -0.00971
C 29.47186 11.32255 0.01518
C 29.5593 21.38687 0.0101
C 26.98842 7.10495 0.00924
C 33.19439 14.86118 0.00455
C 32.00157 12.783 -0.01839
C 34.40085 20.00847 0.01951
C 1.16287 19.2277 -0.01678
C 1.17091 17.88637 0.01223
C 34.41438 17.12112 0.00648
C 0.00898 15.66989 0.02114
C 1.22806 14.93487 -0.02957
C 1.22688 13.52159 0.00343
C 34.40551 12.8101 -0.02656
C 34.38958 11.40494 -0.02442
C 1.18076 10.68796 -0.00027
C 1.11772 9.24099 -0.00583
C 34.37572 8.505 -0.02302
C 34.34508 7.07699 -0.02849
C 1.17222 6.44739 0.02931
C 1.10504 5.01032 0.00628
C 34.35607 4.29118 -0.0345
C 34.34606 2.91964 -0.00931
C 1.15173 2.18946 -0.00939
C 1.12684 0.77184 -0.00468
C 34.42459 21.44197 -0.02213
C 1.2418 22.03557 0.02712
C 1.14802 23.53486 0.00723
C 34.34855 24.18434 0.03076
C 31.94445 11.34864 0.00137
C 33.22674 10.67364 0.00199
C 33.18348 9.23326 0.04381
C 31.92296 8.64136 0.02806
C 31.91719 7.1966 0.01504
C 33.11642 6.38932 -0.00069
C 33.10984 4.96632 0.04926
C 31.85163 4.26312 -0.03838
C 31.85509 2.80117 0.00349
C 33.20344 13.46862 -0.00644
C 33.16749 2.14862 -0.00323
C 31.8292 34.05246 0.0001
C 34.33974 32.69511 -0.02927
C 1.15208 32.00163 -0.01404
C 1.1534 30.55769 0.01027
C 34.35864 29.76252 0.01831
C 0.06074 28.4034 -0.01037
C 1.25534 27.69876 -0.00439
C 1.20621 26.30673 -0.00598
C 0.026 25.61305 -0.05239
C 33.13562 0.73031 -0.00841
C 26.95163 8.49156 0.0014
C 28.22759 9.2777 0.01324
C 28.22094 10.69301 0.04266
C 19.54031 33.99693 -0.02845
C 22.1401 32.63581 -0.03213
C 23.36493 31.87874 0.02239
C 23.23871 30.46107 0.01153
C 22.07047 29.72621 0.02734
C 22.1153 28.22874 -0.0055
C 23.25681 27.52745 0.01515
C 23.41624 26.1653 -0.00225
C 22.26897 25.32535 0.00071
C 22.39509 23.88555 -0.01107
C 23.53829 23.23236 -0.01586
C 22.26274 11.32232 -0.01971
C 23.36752 10.55138 -0.02118
C 23.19444 9.10363 0.00733
C 21.94744 8.44816 -0.00178
C 21.97847 7.04678 0.00768
C 23.258 6.3379 -0.0276
C 23.29113 4.927 0.03005
C 22.09283 4.27509 -0.04078
C 20.85295 0.64725 0.03374
C 20.82672 2.09109 0.0296
C 19.58448 2.79942 0.03046
C 19.62858 4.24874 -0.00381
C 17.16881 4.32948 -0.00865
C 17.14284 2.86524 0.00675
C 18.40499 2.07089 -0.00311
C 18.3444 0.63296 0.00742
C 17.18113 34.0233 -0.01594
C 19.61637 32.57454 0.0106
C 20.86987 31.87877 -0.01154
C 20.83623 30.43183 -0.01721
C 19.63936 29.64637 -0.02422
C 22.06473 2.77987 0.02117
C 19.59551 28.20572 0.01277
C 20.93081 26.08648 -0.01527
C 19.79741 25.34133 0.01087
C 19.62959 11.37234 0.00199
C 20.89843 10.79825 0.01511
C 20.83336 9.21592 -0.00478
C 19.55758 8.62035 -0.01662
C 19.55658 7.19344 -0.01185
C 20.72662 6.39834 0.01126
C 20.81243 4.94811 0.01852
C 20.83094 27.52924 0.00096
C 23.22455 2.08198 0.02737
C 23.31681 0.60194 -0.00498
C 22.04506 34.07223 0.00135
C 24.46307 4.16888 -0.00942
C 24.51488 2.75202 0.00487
C 25.77158 2.04917 0.00826
C 25.75206 0.68846 -0.00294
C 24.61057 33.97879 0.00152
C 26.98268 32.58183 0.01257
C 27.09677 25.54551 0.02316
C 27.04581 24.20761 0.04185
C 28.2509 23.53934 0.00194
C 25.66468 4.9574 -0.02815
C 28.34223 22.0568 -0.00621
C 27.06707 19.94844 0.02198
C 28.29523 19.26565 0.01094
C 28.38642 17.83665 0.00235
C 27.11266 17.17591 0.01495
C 27.0552 15.67093 0.01259
C 28.26184 14.8339 0.01799
C 28.18073 13.44672 0.01699
C 26.88757 12.73151 -0.00416
C 27.00694 11.34049 0.01177
C 27.13976 21.3692 0.02611
C 18.37419 6.39433 -0.00652
C 25.75361 6.3843 0.00622
C 24.47348 8.51253 -0.00037
C 24.6798 32.50893 0.03102
C 25.88985 31.82375 0.02555
C 25.72491 30.3557 0.01423
C 24.53873 29.74585 -0.00285
C 24.49044 28.32322 -0.009
C 25.8419 27.79372 -0.01199
C 25.97399 26.30624 -0.00229
C 24.6761 25.56324 -0.00938
C 24.81103 24.17046 -0.0264
C 24.42884 7.14157 -0.0032
C 25.92989 23.4697 -0.01154
C 24.50253 21.52261 -0.01052
C 25.85248 19.2248 -0.01679
C 26.01221 17.93003 0.00367
C 25.7539 14.87247 0.04306
C 25.6297 13.45718 0.00996
C 24.50439 12.6753 0.00195
C 24.52859 11.26486 -0.00802
C 25.8182 10.57438 -0.00218
C 25.73075 9.21945 -0.01654
C 25.68595 21.986 0.00684
C 2.37385 32.69329 0.00643
