440
Graphene
C 0.05246 0.02389 0.01295
C 12.16661 20.02322 -0.01634
C 13.51291 19.1911 -0.00334
C 13.4821 17.79779 0.02339
C 12.25248 17.14326 0.01641
C 12.3157 15.63866 -0.00719
C 13.47759 14.81765 0.01364
C 13.47473 13.44543 -0.01062
C 12.24682 12.69237 -0.00033
C 12.26332 11.34525 0.03589
C 13.54474 10.64375 -0.02759
C 13.56406 9.20126 0.0402
C 12.31197 8.56066 0.00572
C 12.37097 7.15258 0.03592
C 13.56013 6.42129 0.00406
C 13.50638 4.88665 0.00943
C 12.28792 4.1894 0.02841
C 12.28491 2.74636 -0.01111
C 13.52797 2.06711 -0.01275
C 13.43934 0.63162 0.00985
C 12.25453 34.04051 -0.02245
C 14.7881 32.64991 -0.00428
C 15.98264 31.96726 0.03101
C 15.95319 30.49446 -0.01536
C 12.30055 21.35387 0.00057
C 13.51176 22.03341 0.00093
C 13.44695 23.4803 0.01291
C 12.28285 24.17401 0.00438
C 9.82614 15.62316 -0.00095
C 11.09641 14.95678 0.01572
C 11.05646 13.54637 -0.04848
C 9.79754 12.88652 -0.00892
C 9.80638 11.44553 -0.01362
C 11.02672 10.62593 -0.0008
C 11.09108 9.1549 0.0288
C 9.84203 8.5514 0.00393
C 9.88374 7.08065 0.00895
C 11.16101 6.35425 0.00685
C 11.06019 4.93377 0.02888
C 14.7523 29.80155 -0.02689
C 9.86656 4.29732 -0.00482
C 11.01846 2.1243 0.03693
C 11.02955 0.64243 0.01745
C 9.72241 0.02457 0.00488
C 12.23258 32.61321 -0.01004
C 13.55076 31.9394 -0.02896
C 13.5046 30.56889 -0.00131
C 12.23533 29.87813 -0.01118
C 12.29427 28.54274 -0.014
C 13.47379 27.75258 0.02147
C 13.51564 26.31061 0.00373
C 12.27685 25.59469 -0.00191
C 9.82881 2.89673 -0.01384
C 9.84782 17.06933 0.03007
C 14.76014 28.33879 -0.01046
C 16.00961 26.27726 0.02819
C 17.2107 29.81059 0.02058
C 17.25491 28.46569 -0.01957
C 18.49021 27.65668 -0.0108
C 18.42585 26.22181 -0.00368
C 17.17872 25.51822 -0.02696
C 17.24056 24.09554 -0.00114
C 18.44179 23.40001 0.00228
C 18.4317 22.01798 0.00798
C 17.18869 21.30495 0.00422
C 17.13524 19.8264 0.0351
C 18.34878 19.17965 -0.03113
C 18.37203 17.80532 0.02098
C 17.18653 17.04199 0.01848
C 17.21286 15.6543 -0.00619
C 18.44301 14.96732 -0.02162
C 18.40397 13.58436 0.00889
C 17.1818 12.8493 -0.00481
C 17.20444 11.39773 0.00979
C 18.43428 10.69014 0.01443
C 18.40163 9.24472 0.03505
C 17.23461 8.52023 -0.02815
C 17.2026 7.11981 -0.04147
C 18.41758 6.39919 -0.05302
C 18.4649 30.56086 0.01965
C 18.45104 31.97912 -0.03682
C 17.17485 32.62304 0.00052
C 14.75084 34.06475 0.00374
C 14.79849 25.58854 0.00165
C 14.74954 24.17691 -0.02971
C 16.00289 23.40308 0.02894
C 15.99905 21.99059 -0.01789
C 14.71795 21.32677 0.00444
C 14.71776 19.91841 -0.00925
C 15.9071 19.19074 0.01877
C 15.90162 17.76626 0.01363
C 14.66906 17.03262 -0.02162
C 14.71574 15.63233 0.00415
C 15.97857 14.94837 -0.0014
C 15.98226 27.66756 -0.00891
C 15.9783 13.4776 0.02162
C 14.71064 11.45024 0.01241
C 16.01854 10.68911 -0.01454
C 16.03749 9.25334 0.01945
C 14.81715 8.49591 0.01416
C 14.77035 7.145 0.03542
C 16.00413 6.37318 0.02299
C 15.9509 4.95005 0.00244
C 14.72359 4.25661 -0.01717
C 14.68082 2.79727 0.05265
C 15.90652 2.14239 -0.01952
C 15.93575 0.76598 -0.02813
C 14.69988 12.77508 0.0076
C 18.39151 4.9459 0.00213
C 11.06912 17.85339 0.00054
C 9.78545 19.91505 -0.00562
C 3.73359 0.74903 0.04421
C 2.54198 0.03255 0.00088
C 4.99155 32.67165 0.00828
C 6.20807 31.96726 -0.02375
C 6.14433 30.56871 0.00558
C 4.92097 29.7795 -0.0059
C 5.05259 28.37028 -0.01386
C 6.18762 27.68222 -0.02805
C 6.19299 26.28605 0.00081
C 4.94324 25.62989 0.00245
C 4.93274 24.11715 0.02728
C 6.15293 23.45516 -0.00039
C 6.15843 22.04506 0.0064
C 4.98378 21.28576 0.00211
C 4.85794 19.83347 -0.00449
C 6.13221 19.08961 -0.01979
C 6.12515 17.68363 0.02784
C 4.8938 17.09261 -0.01977
C 4.82679 15.65558 -0.00561
C 6.07279 14.94158 0.00208
C 6.03007 13.54456 0.01707
C 4.83656 12.75544 0.02769
C 4.86438 11.42001 -0.03291
C 3.6967 2.16838 -0.00177
C 2.48326 2.83992 0.03278
C 2.47659 4.29341 0.01138
C 3.70827 5.04087 -0.00407
C 3.75471 30.49903 0.01116
C 2.47858 29.78704 -0.0005
C 2.41575 28.37176 -0.00018
C 3.70887 27.74976 0.01073
C 3.6291 26.32484 0.01984
C 2.36324 25.55228 0.00535
C 2.44779 24.18028 -0.00198
C 3.62034 23.48159 -0.00012
C 3.6966 22.0036 -0.04306
C 2.48215 21.2697 -0.03672
C 2.43445 19.93939 0.01913
C 6.08708 10.73326 -0.04999
C 3.62764 19.10536 0.00267
C 2.35085 16.97238 0.02426
C 2.35243 15.56097 0.01218
C 3.61815 14.88437 -0.01471
C 3.6731 13.48532 -0.02827
C 2.44574 12.81516 0.01078
C 2.42687 11.33792 -0.00112
C 3.6206 10.6915 0.03345
C 3.61427 9.27108 0.00748
C 2.45191 8.51777 0.00662
C 2.47042 7.09444 -0.0154
C 3.71295 6.45722 -0.01299
C 3.56732 17.72032 0.00787
C 11.00988 19.24878 -0.00494
C 6.13895 9.3065 0.04505
C 4.92682 7.21803 -0.04307
C 8.60625 10.77648 -0.00725
C 8.63723 9.32618 -0.05697
C 7.45628 8.607 0.01087
C 7.43461 7.20238 -0.01343
C 8.59985 6.43352 0.00988
C 8.62539 5.01191 0.0276
C 7.33012 4.30597 0.01305
C 7.37388 2.89531 -0.00077
C 8.62677 2.23697 0.03368
C 8.58216 0.73422 -0.02929
C 7.33831 0.0432 -0.00966
C 9.7503 32.67915 -0.03337
C 11.05584 31.98589 0.01227
C 11.00868 30.60151 0.00873
C 9.74281 29.87213 -0.00049
C 9.8109 28.46639 0.00848
C 11.1468 27.77112 -0.01303
C 11.11171 26.35133 -0.01378
C 9.87745 25.5431 0.02635
C 9.83396 24.21527 0.0127
C 11.05932 23.47854 0.01396
C 11.05511 22.10827 0.01849
C 9.7715 21.40372 -0.01142
C 7.29944 11.38613 0.02322
C 7.27505 12.84555 -0.00094
C 8.53906 13.469 -0.02566
C 8.60422 14.88603 -0.03113
C 6.14597 6.52465 0.03189
C 6.14362 5.09674 0.00031
C 4.88399 4.32643 -0.003
C 4.96719 2.9233 0.01402
C 6.20715 2.17078 0.02379
C 6.13635 0.77439 0.00907
C 4.92519 0.01272 0.00643
C 7.33726 32.70652 -0.01509
C 8.5576 31.99134 0.03267
C 8.54924 30.5738 0.02374
C 7.40319 29.79905 0.00402
C 4.89661 8.61446 0.03284
C 7.42628 28.35044 0.0073
C 8.64504 26.28088 0.03828
C 7.41421 25.53844 0.01226
C 7.41146 24.13688 -0.00279
C 8.66163 23.41919 0.01996
C 8.51267 22.0416 -0.03996
C 7.37415 21.31478 0.01465
C 7.30911 19.88229 -0.00074
C 8.57607 19.19145 -0.00518
C 8.56639 17.76292 0.0086
C 7.4117 16.99207 -0.00643
C 7.34697 15.61273 0.017
C 8.67816 27.67101 0.0174
C 17.15188 4.28316 -0.00066
C 17.1252 2.95021 -0.00289
C 18.37319 2.15706 0.00028
C 30.71997 14.78893 -0.0405
C 30.76135 13.32936 -0.01303
C 29.44966 12.72267 -0.01461
C 29.42663 11.33555 -0.02155
C 30.68352 10.6006 -0.00944
C 30.67751 9.2374 -0.03735
C 29.43907 8.44636 -0.00971
C 29.53596 6.99218 0.01518
C 30.82424 6.28126 0.01908
C 30.79682 4.89207 0.07705
C 29.57442 4.2323 0.0103
C 29.51326 2.79741 0.02108
C 30.69973 2.04377 0.00716
C 30.74992 0.65813 0.00307
C 29.4931 34.00257 0.00346
C 31.95925 32.61964 0.01713
C 33.27283 32.01183 -0.01694
C 33.22387 30.54304 0.01428
C 31.96661 29.89707 -0.02142
C 31.87112 28.43095 0.0544
C 33.13653 27.73672 0.00026
C 33.13138 26.29549 0.00682
C 31.92495 25.63132 -0.01779
C 29.57212 15.57316 0.01705
C 29.51403 17.0228 0.0101
C 30.70956 17.83748 -0.00669
C 30.66847 19.21551 0.03531
C 27.10408 12.84307 0.00194
C 27.07645 11.34777 -0.00621
C 28.26353 10.60623 0.02611
C 28.2512 9.15135 0.02198
C 26.99014 8.50732 0.01094
C 27.02797 7.09606 0.00235
C 28.32639 6.33003 0.01495
C 28.35227 4.86771 0.01259
C 27.01301 4.24445 0.01799
C 27.07487 2.81125 0.01699
C 28.30417 2.11298 -0.00416
C 31.95774 24.16976 0.03794
C 28.23665 0.64779 0.01177
C 29.47334 32.56711 0.01324
C 30.72386 31.8917 0.0014
C 30.70079 30.51938 0.00924
C 29.53556 29.68919 0.02326
C 30.74694 27.68046 0.00261
C 30.68152 26.36852 0.03265
C 29.4952 24.29204 -0.02049
C 30.74918 23.49028 -0.01854
C 30.67633 22.04871 -0.01415
C 29.45455 21.34783 -0.03039
C 29.44433 19.92013 0.01836
C 27.07691 34.04808 0.04266
C 28.33555 13.59382 0.04185
C 33.16226 23.4333 0.01927
C 31.94221 21.31228 -0.02383
C 34.38362 24.15341 0.03076
C 1.23365 23.48565 0.00723
C 1.2899 22.02666 0.02712
C 0.0582 21.24204 -0.02213
C 34.39355 19.87891 0.01951
C 1.18762 19.12827 -0.01678
C 1.16257 17.66336 0.01223
C 34.34392 16.94971 0.00648
C 34.35296 15.57136 0.02114
C 1.198 14.81693 -0.02957
C 1.22592 13.40966 0.00343
C 34.38964 12.67296 -0.02656
C 0.02314 11.31414 -0.02442
C 1.27339 10.59197 -0.00027
C 1.21538 9.20073 -0.00583
C 0.00815 8.47609 -0.02302
C 0.04865 7.06237 -0.02849
C 1.27461 6.35711 0.02931
C 1.22255 4.98327 0.00628
C 0.06192 4.17855 -0.0345
C 0.05716 2.77551 -0.00931
C 1.26178 2.12346 -0.00939
C 1.30845 0.73962 -0.00468
C 34.35296 25.53292 -0.05239
C 1.1719 26.27963 -0.00598
C 1.23668 27.68248 -0.00439
C 34.38889 28.4776 -0.01037
C 31.9606 19.85599 -0.01429
C 33.11836 19.16033 -0.0136
C 33.06464 17.70588 0.00594
C 31.94957 16.98883 -0.02474
C 31.96387 15.55842 0.00369
C 33.16664 14.87584 0.00455
C 33.19299 13.44953 -0.00644
C 31.9759 12.7197 -0.01839
C 31.94182 11.27118 0.00137
C 33.20841 10.56431 0.00199
C 33.22488 9.16299 0.04381
C 33.17052 22.04617 0.01574
C 31.98308 8.51751 0.02806
C 33.29379 6.33394 -0.00069
C 33.25021 4.95199 0.04926
C 32.00787 4.17761 -0.03838
C 32.01291 2.79446 0.00349
C 33.23286 2.05083 -0.00323
C 33.20397 0.64584 -0.00841
C 31.97607 34.06102 0.0001
C 0.03306 32.70927 -0.02927
C 1.28598 31.9828 -0.01404
C 1.26462 30.4973 0.01027
C 34.38175 29.82344 0.01831
C 31.96557 7.08461 0.01504
C 28.30653 14.97995 0.02316
C 27.04233 15.57145 0.01257
C 26.96662 16.99221 0.00152
C 20.93326 4.95201 -0.00703
C 19.65091 4.29172 -0.04076
C 19.60256 2.85171 -0.00652
C 20.86936 2.19397 0.0058
C 20.83558 0.76957 -0.00865
C 19.62458 0.10299 0.00675
C 22.10644 32.75421 -0.00311
C 23.34669 32.06908 0.00742
C 23.33422 30.58515 -0.01594
C 22.11571 29.89809 0.0106
C 22.18766 28.36566 -0.01154
C 23.35179 27.64355 -0.01721
C 23.32449 26.24116 -0.02422
C 22.19037 25.52153 0.01277
C 22.11949 24.07165 0.00096
C 23.4266 23.50601 -0.01527
C 23.34791 21.98508 0.01087
C 22.20397 21.32524 0.00199
C 22.13034 19.94031 0.01511
C 23.27091 19.13863 -0.00478
C 23.35049 17.68623 -0.01662
C 22.06746 17.0271 -0.01185
C 22.08824 15.59276 0.01126
C 20.94317 6.40705 0.00654
C 19.63905 7.07232 -0.04422
C 19.65034 8.50429 -0.02957
C 20.83889 9.16203 -0.00831
C 18.35129 0.72898 -0.02213
C 17.19091 34.07921 0.03698
C 19.65568 32.72229 -0.00109
C 20.87832 31.99982 -0.00491
C 20.83247 30.56958 0.03338
C 19.68825 29.76445 -0.0258
C 19.74037 28.37694 -0.0331
C 20.97739 27.68626 -0.00316
C 20.93617 26.2603 0.02188
C 19.69002 25.53067 -0.01979
C 19.58547 24.06765 0.02691
C 23.30234 14.9156 0.01852
C 20.92992 23.39831 -0.01581
C 19.62901 21.2556 0.04892
C 19.60071 19.85389 -0.00111
C 20.88684 19.21572 -0.03557
C 20.83331 17.83837 0.03754
C 19.52851 17.0719 0.01739
C 19.60566 15.6424 0.00755
C 20.85242 14.88312 -0.0054
C 20.8932 13.5157 0.00667
C 19.65981 12.78147 0.00143
C 19.64658 11.37242 -0.017
C 20.85 10.64872 0.00364
C 20.90913 21.97629 0.01452
C 23.33447 13.51891 -0.00381
C 22.12695 12.76039 0.03046
C 22.08026 11.3308 0.0296
C 24.56139 12.83107 -0.009
C 24.65921 11.36248 -0.01199
C 25.80811 10.68233 -0.00229
C 25.82752 9.28724 -0.00938
C 24.5338 8.55638 -0.0264
C 24.6005 7.07921 -0.01154
C 25.82615 6.35739 0.00684
C 25.80402 5.00288 -0.01052
C 24.64511 4.31488 -0.01679
C 24.55493 2.87082 0.00367
C 25.88924 2.104 0.04306
C 25.8183 13.4592 -0.00285
C 25.81053 0.70822 0.00996
C 27.05085 32.60274 -0.00802
C 28.27183 31.83363 -0.00218
C 28.23017 30.29288 -0.01654
C 26.87142 29.69859 -0.00037
C 26.95225 24.14964 -0.0032
C 28.26153 23.62268 0.00622
C 28.25009 22.14511 -0.02815
C 27.09403 21.34587 -0.00942
C 26.9947 19.86879 0.00487
C 28.29386 19.18569 0.00826
C 28.26595 17.6801 -0.00294
C 24.62159 0.04501 0.00195
C 3.72115 31.85524 -0.0213
C 25.83146 14.93387 0.01423
C 24.52227 17.0093 0.03102
C 23.37153 10.68839 0.03374
C 23.36204 9.30727 -0.02845
C 22.11068 8.48896 -0.03213
C 22.14645 7.13612 0.02239
C 23.37712 6.37828 0.01153
C 23.34584 4.96343 0.02734
C 22.17637 4.25467 -0.0055
C 22.12703 2.87988 0.01515
C 23.34506 2.1224 -0.00225
C 23.35587 0.76509 0.00071
C 22.09252 0.03919 -0.01107
C 24.58276 15.63247 0.02555
C 24.66395 32.70102 -0.01586
C 25.74945 30.51596 -0.02118
C 24.55215 29.88711 0.00733
C 24.53881 28.45314 -0.00178
C 24.67407 25.60371 0.00768
C 24.58458 24.17799 -0.0276
C 25.76715 23.44755 0.03005
C 25.8278 21.96897 -0.04078
C 24.64664 21.28248 0.02117
C 24.549 19.83556 0.02737
C 25.81868 19.09664 -0.00498
C 25.78956 17.6752 0.00135
C 25.78135 31.92492 -0.01971
C 2.45398 32.64776 -0.00374
