313
Graphene
C 34.33814 34.02811 0.01295
C 17.17895 17.00899 -0.0331
C 17.29083 15.57276 -0.00316
C 18.45932 14.96618 0.02188
C 18.47141 13.53171 -0.01979
C 17.3135 12.5084 0.02691
C 17.94148 11.22675 -0.01581
C 18.4209 0.71522 0.01452
C 17.03921 0.21487 0.04892
C 19.29521 32.21316 -0.00111
C 20.65785 31.93967 -0.03557
C 20.87821 30.59859 0.03754
C 20.86562 23.51454 0.01739
C 20.9211 22.01511 0.00755
C 19.69508 21.33825 -0.0054
C 19.7349 19.71908 0.00667
C 18.3638 17.70914 -0.0258
C 18.47431 19.15716 0.03338
C 17.24473 19.92222 -0.00491
C 17.35314 21.3153 -0.00109
C 13.51888 0.84574 -0.00619
C 12.20688 0.10111 -0.02162
C 14.83099 32.64164 0.00889
C 14.53618 21.1758 -0.00481
C 14.79617 19.84712 0.00979
C 15.94948 19.09918 0.01443
C 15.96746 17.69375 0.03505
C 20.95872 19.18184 0.00143
C 14.69338 17.0275 -0.02815
C 16.05327 14.79261 -0.05302
C 16.05688 13.3468 0.00213
C 15.8089 0.89163 -0.00066
C 14.74594 0.09401 -0.00289
C 16.96282 32.78008 0.00028
C 18.03867 32.04462 -0.02213
C 18.46654 21.86162 0.03698
C 14.71527 15.56077 -0.04147
C 14.13265 2.04176 0.01848
C 20.81825 17.7185 -0.017
C 19.71132 15.63667 -0.00831
C 23.41248 19.15244 0.00199
C 23.37334 17.75 0.01511
C 22.20186 17.01802 -0.00478
C 22.22187 15.57009 -0.01662
C 23.30524 14.84494 -0.01185
C 23.29518 13.50607 0.01126
C 22.0721 12.77457 0.01852
C 21.97324 11.30255 -0.00381
C 23.23143 10.56384 0.03046
C 23.24803 9.18331 0.0296
C 23.35147 6.30911 0.03374
C 23.35085 5.12213 -0.02845
C 21.66017 2.3292 -0.03213
C 23.13895 2.08465 0.02239
C 23.29341 0.68752 0.01153
C 22.21528 19.89674 0.01087
C 22.15043 21.24118 -0.01527
C 23.33547 22.03405 0.00096
C 23.32217 23.43156 0.01277
C 20.92065 14.94654 -0.02957
C 20.8814 13.53034 -0.04422
C 19.72126 12.83712 0.00654
C 19.36052 11.45398 -0.00703
C 20.64604 10.81783 -0.04076
C 21.01002 1.2939 -0.00652
C 19.6417 0.95676 0.0058
C 19.61669 17.03365 0.00364
C 21.989 32.7424 -0.00865
C 23.26084 30.49045 -0.00311
C 21.98076 29.74984 0.00742
C 22.11801 28.35807 -0.01594
C 23.31512 27.75675 0.0106
C 23.4167 26.36581 -0.01154
C 22.17321 25.73428 -0.01721
C 22.02235 24.30704 -0.02422
C 23.18629 31.94822 0.00675
C 13.43549 15.05717 0.02098
C 12.44563 15.77871 -0.03113
C 12.19297 17.06188 0.0351
C 4.8779 32.79725 -0.02759
C 5.97103 31.87129 0.0402
C 5.61539 30.45297 0.00572
C 6.39664 26.65681 0.03592
C 5.17524 25.85494 0.00406
C 5.07458 24.361 0.00943
C 6.31055 23.44914 0.02841
C 6.21104 22.00204 -0.01111
C 4.94797 21.37033 -0.01275
C 4.89392 19.88604 0.00985
C 6.03849 19.06648 -0.02245
C 5.94778 17.47952 -0.00428
C 4.6548 16.85017 0.03101
C 6.35127 0.68296 -0.01536
C 4.94107 0.21425 -0.02689
C 2.35742 34.07567 0.03589
C 3.64041 0.91034 -0.00033
C 3.24822 2.30315 -0.01062
C 2.21455 3.2086 0.01364
C 3.96508 30.61138 -0.02896
C 2.76036 29.82649 -0.00131
C 2.49318 28.47313 -0.01118
C 3.61038 27.72549 -0.014
C 3.8107 26.35631 0.02147
C 2.54498 25.65309 0.00373
C 2.5186 24.25161 -0.00191
C 7.30835 32.40907 -0.01046
C 3.79766 23.60795 0.00438
C 2.4747 21.3794 0.00093
C 2.461 19.93681 0.00057
C 3.66907 19.16267 -0.01634
C 3.58909 17.76676 -0.00334
C 2.29803 17.19649 0.02339
C 2.57621 15.81353 0.01641
C 4.01853 15.72416 -0.00719
C 3.76408 22.08385 0.01291
C 8.38594 31.67215 -0.00891
C 8.3521 30.1587 0.02819
C 6.88111 29.55096 0.00165
C 11.05666 23.49133 0.05265
C 10.94697 22.02501 -0.01952
C 9.77921 21.25092 -0.02813
C 9.77229 19.80378 0.00374
C 10.93232 19.18752 0.00052
C 10.93773 17.77172 -0.03682
C 9.72755 17.08316 0.01965
C 9.91974 24.29315 -0.01717
C 10.86352 0.50983 0.02058
C 12.29831 32.60697 -0.0108
C 13.60692 32.17075 -0.00368
C 13.44168 21.92142 -0.02696
C 12.22412 21.33043 -0.00114
C 12.22896 19.90201 0.00228
C 13.43015 19.19532 0.00798
C 13.47223 17.80482 0.00422
C 9.67596 33.88906 -0.01957
C 22.07794 34.07962 0.02734
C 9.94653 25.77057 0.00244
C 9.67361 29.68328 0.03542
C 6.92989 27.95441 -0.02971
C 8.36841 27.68045 0.02894
C 8.56411 26.31506 -0.01789
C 7.37954 25.64776 0.00444
C 7.4379 24.18422 -0.00925
C 8.68728 23.43934 0.01877
C 8.60428 21.96411 0.01363
C 9.56223 28.25884 0.02299
C 7.36037 21.26644 -0.02162
C 8.49295 19.12955 -0.0014
C 8.46083 17.57122 0.02162
C 7.18682 16.90588 0.0076
C 7.44618 33.85818 0.01241
C 9.67036 32.54374 -0.01454
C 11.03609 31.81025 0.01945
C 10.91763 30.35875 0.01416
C 7.30322 19.75485 0.00415
C 3.65733 32.08732 -0.01004
C 24.5139 32.62249 -0.0055
C 25.76214 30.51507 -0.00225
C 33.13871 26.26525 0.01927
C 31.92847 25.55593 0.01574
C 31.91676 24.1251 -0.02383
C 33.11435 23.39864 -0.01429
C 33.2009 22.02441 -0.0136
C 31.99221 21.29442 0.00594
C 31.87923 19.92464 -0.02474
C 33.09526 19.17552 0.00369
C 33.10487 17.80347 0.00455
C 31.89073 17.08122 -0.00644
C 31.97807 15.64965 -0.01839
C 33.19896 14.99325 0.00137
C 33.16221 13.50138 0.00199
C 31.9462 12.83808 0.04381
C 31.89468 11.39021 0.02806
C 33.15208 27.70515 0.03794
C 31.92417 28.42816 -0.01779
C 31.99074 29.76538 0.00682
C 33.24234 30.4823 0.00026
C 30.68272 13.51704 -0.00944
C 29.51112 12.85568 -0.03735
C 29.45606 11.35288 -0.00971
C 30.68203 10.72488 0.01518
C 30.70115 9.2866 0.01908
C 29.54211 8.51053 0.07705
C 29.56096 7.10956 0.0103
C 33.17549 10.72128 0.01504
C 30.73952 6.41467 0.02108
C 29.52079 4.32763 0.00307
C 29.50081 2.94203 0.00346
C 30.65866 2.20476 0.01713
C 30.69632 0.65288 -0.01694
C 29.45285 34.03762 0.01428
C 31.98823 32.64186 -0.02142
C 33.21136 32.00187 0.0544
C 30.80169 4.9245 0.00716
C 30.77316 14.93837 -0.02155
C 33.17895 9.28947 -0.00069
C 31.98845 7.02401 -0.03838
C 1.20897 19.29715 0.02114
C 1.07136 17.86652 -0.02957
C 34.28866 17.18142 0.00343
C 34.37173 15.75959 -0.02656
C 1.34614 15.01945 -0.02442
C 1.10202 13.6841 -0.00027
C 0.1286 12.7791 -0.00583
C 34.3531 11.48523 -0.02302
C 34.31104 8.55001 -0.02849
C 34.36641 7.17578 0.02931
C 1.53855 4.24349 0.00628
C 0.1598 4.1871 -0.0345
C 34.36182 2.74988 -0.00931
C 1.09254 2.08924 -0.00939
C 1.13783 0.70403 -0.00468
C 34.38707 19.9539 0.00648
C 0.00615 21.33585 0.01223
C 1.19534 22.06611 -0.01678
C 1.27402 23.56232 0.01951
C 33.25741 6.3334 0.00349
C 33.28711 4.90763 -0.00323
C 32.03232 4.271 -0.00841
C 31.92931 2.93728 0.0001
C 33.13212 2.0672 -0.02927
C 33.09216 0.70532 -0.01404
C 31.95123 34.07305 0.01027
C 31.9743 8.4786 0.04926
C 34.39801 32.69429 0.01831
C 1.38317 30.56116 -0.00439
C 0.07127 29.83915 -0.00598
C 34.40826 28.44059 -0.05239
C 1.19246 27.75411 0.03076
C 1.26538 26.28544 0.00723
C 34.35905 25.61358 0.02712
C 0.02557 24.24615 -0.02213
C 1.20023 31.98339 -0.01037
C 29.47775 15.66265 -0.01461
C 29.47053 17.08977 -0.01303
C 30.6894 17.83318 -0.0405
C 24.5012 8.53098 -0.01199
C 24.49145 7.13594 -0.00229
C 25.69608 6.38782 -0.00938
C 25.75732 5.0325 -0.0264
C 24.3718 4.18868 -0.01154
C 24.41505 2.80035 0.00684
C 25.70248 2.16417 -0.01052
C 25.74485 0.73415 -0.01679
C 24.46017 34.04813 0.00367
C 26.95243 32.73693 0.04306
C 28.1437 32.01052 0.00996
C 28.24184 30.57867 0.00195
C 26.99723 29.83741 -0.00802
C 27.02966 28.36055 -0.00218
C 28.26243 27.71342 -0.01654
C 25.75847 9.29316 -0.009
C 25.78277 10.65163 -0.00285
C 24.47123 11.34069 0.01423
C 24.49925 12.80771 0.02555
C 24.54209 29.81465 0.00071
C 24.60966 28.43748 -0.01107
C 25.89828 27.65784 -0.01586
C 25.80421 26.2911 -0.01971
C 24.57029 25.52086 -0.02118
C 24.54876 24.16317 0.00733
C 25.82472 23.47915 -0.00178
C 28.25796 26.25692 -0.00037
C 25.83356 22.01826 0.00768
C 24.59532 19.90507 0.03005
C 25.76344 19.1738 -0.04078
C 25.71919 17.75521 0.02117
C 24.57589 16.97253 0.02737
C 24.54388 15.55008 -0.00498
C 25.72889 14.91912 0.00135
C 25.75795 13.44431 0.03102
C 24.58383 21.33415 -0.0276
C 27.06486 25.58751 -0.0032
C 27.05174 24.16497 0.00622
C 28.24126 23.44694 -0.02815
C 28.20918 0.73103 0.04266
C 26.96732 0.07361 0.01324
C 29.44883 32.61289 0.0014
C 30.70916 31.94471 0.00924
C 30.75083 30.49797 0.02326
C 29.45985 29.86584 0.00261
C 29.4554 28.40013 0.03265
C 28.22148 2.19448 0.01177
C 30.67176 27.65316 -0.02049
C 29.43571 25.51119 -0.01415
C 29.52128 24.17786 -0.03039
C 30.70035 23.42984 0.01836
C 30.71253 22.02298 0.03531
C 29.5114 21.34941 -0.00669
C 29.50801 19.88126 0.0101
C 30.6643 19.23457 0.01705
C 30.69465 26.2572 -0.01854
C 25.7472 31.95281 0.01515
C 27.00329 2.86528 -0.00416
C 28.2386 5.03469 0.01799
C 28.28185 22.07307 -0.00942
C 27.09818 21.28245 0.00487
C 26.99256 19.88404 0.00826
C 28.18633 19.23415 -0.00294
C 28.22744 17.77579 0.00152
C 27.10385 17.02857 0.01257
C 27.03899 15.61691 0.02316
C 27.0125 4.32122 0.01699
C 28.29071 14.93389 0.04185
C 26.9819 12.74468 -0.00621
C 26.97528 11.31124 0.02611
C 28.25484 10.59599 0.02198
C 28.27597 9.2513 0.01094
C 26.9594 8.5924 0.00235
C 26.98599 7.16712 0.01495
C 28.25229 6.49106 0.01259
C 28.23929 13.53627 0.00194
C 2.40616 32.66587 0.00488
