373
Graphene
C 34.41973 0.11407 0.01295
C 9.7868 8.56422 0.00244
C 9.82432 7.14372 -0.01717
C 10.93951 6.32923 0.05265
C 10.93802 4.96592 -0.01952
C 9.64659 4.28458 -0.02813
C 9.69891 2.86128 0.00374
C 11.01388 2.22036 0.00052
C 10.98169 0.77526 -0.03682
C 9.7241 0.16984 0.01965
C 12.25543 32.66993 0.02058
C 13.43135 31.8733 -0.01957
C 13.46624 30.492 -0.0108
C 12.24359 29.8069 -0.00368
C 12.25203 28.38214 -0.02696
C 13.5411 27.68084 -0.00114
C 13.50627 26.31621 0.00228
C 12.23643 25.67625 0.00798
C 12.36301 24.18308 0.00422
C 13.53274 23.44059 0.0351
C 11.06313 9.24144 0.02299
C 13.50991 21.93061 -0.03113
C 11.05481 10.63177 0.03542
C 9.90575 12.79226 0.01945
C 9.73472 32.70198 -0.02689
C 10.88904 31.96849 -0.01046
C 10.97751 30.51521 -0.00891
C 9.76201 29.86069 0.02819
C 9.76265 28.45573 0.00165
C 11.00804 27.75771 -0.02971
C 10.95826 26.33543 0.02894
C 9.80588 25.55584 -0.01789
C 9.81201 24.12075 0.00444
C 11.08421 23.44857 -0.00925
C 11.12086 21.92883 0.01877
C 9.84106 21.36846 0.01363
C 9.85745 19.9399 -0.02162
C 11.05892 19.16774 0.00415
C 11.02311 17.7619 -0.0014
C 9.88852 17.0972 0.02162
C 9.93591 15.57109 0.0076
C 11.16641 14.93261 0.01241
C 11.22182 13.50874 -0.01454
C 9.85328 11.40104 0.01416
C 12.28269 21.20574 0.02098
C 12.33529 19.78507 0.01848
C 13.5474 19.08585 -0.00619
C 16.04599 26.06861 -0.01581
C 14.81446 25.45447 0.01452
C 14.79889 24.13121 0.04892
C 16.02726 23.35248 -0.00111
C 15.97561 21.89683 -0.03557
C 14.73037 21.33961 0.03754
C 14.76423 19.85082 0.01739
C 15.99685 19.10625 0.00755
C 16.03714 17.74229 -0.0054
C 14.87646 16.89861 0.00667
C 14.86116 15.57138 0.00143
C 16.20842 14.98166 -0.017
C 16.07895 13.51672 0.00364
C 14.77173 12.83037 -0.00831
C 14.84555 11.3355 -0.02957
C 15.9795 10.56103 -0.04422
C 15.94885 9.18056 0.00654
C 14.68648 8.5417 -0.00703
C 14.70828 7.03798 -0.04076
C 15.98783 27.60197 0.02691
C 14.77608 28.37032 -0.01979
C 14.72412 29.75646 0.02188
C 15.88262 30.43116 -0.00316
C 13.64971 17.65119 -0.02162
C 12.33377 17.0473 0.00889
C 12.42796 15.5686 -0.00481
C 13.63251 14.83559 0.00979
C 13.57375 13.45788 0.01443
C 12.34936 12.73713 0.03505
C 12.25702 11.3512 -0.02815
C 13.50324 10.69844 -0.04147
C 13.51738 9.29728 -0.05302
C 7.29171 0.02155 -0.01536
C 12.22291 8.52293 0.00213
C 13.42211 6.41088 -0.00289
C 13.39623 4.96965 0.00028
C 12.21411 4.24404 -0.02213
C 12.23239 2.88505 0.03698
C 13.42011 2.0712 -0.00109
C 13.40647 0.68928 -0.00491
C 12.15331 34.07808 0.03338
C 14.71509 32.63797 -0.0258
C 15.85892 31.93619 -0.0331
C 12.22197 7.156 -0.00066
C 8.51216 0.73858 0.03101
C 8.5133 2.12774 -0.00428
C 7.28511 2.93592 -0.02245
C 3.66086 5.07334 0.03368
C 2.48834 4.32522 -0.02929
C 2.38667 2.95136 -0.00966
C 3.63668 2.17155 -0.03337
C 3.52159 0.76122 0.01227
C 2.28198 0.12289 0.00873
C 4.81128 32.7747 -0.00049
C 6.05653 32.0105 0.00848
C 6.02928 30.56757 -0.01303
C 4.79637 29.92292 -0.01378
C 4.83135 28.48665 0.02635
C 6.09158 27.76476 0.0127
C 6.07369 26.38345 0.01396
C 4.83915 25.54642 0.01849
C 4.9588 24.12124 -0.01142
C 6.18856 23.44742 -0.00562
C 6.20545 22.02146 -0.00494
C 4.89823 21.33948 0.00054
C 4.95066 19.98628 0.03007
C 3.67256 6.45612 -0.00077
C 2.45788 7.10394 0.01305
C 2.37802 8.57285 0.0276
C 3.60257 9.29182 0.00988
C 3.64459 30.61821 0.0174
C 2.36547 29.8669 0.03828
C 2.43565 28.47553 0.01226
C 3.65082 27.82283 -0.00279
C 3.71974 26.28177 0.01996
C 2.42004 25.61153 -0.03996
C 2.39865 24.18459 0.01465
C 3.71145 23.45654 -0.00074
C 3.65323 22.0661 -0.00518
C 6.19801 19.28606 -0.00095
C 2.39087 21.3648 0.0086
C 3.80288 19.31701 0.017
C 3.71156 17.80388 -0.03113
C 2.46083 17.16122 -0.02566
C 2.45071 15.74383 -0.00094
C 3.63562 14.9257 0.02322
C 3.69334 13.57669 -0.00725
C 2.35464 12.82933 -0.05697
C 2.49421 11.44588 0.01087
C 3.68739 10.71721 -0.01343
C 2.48709 19.88667 -0.00643
C 15.84065 6.30812 -0.00652
C 6.18793 17.84644 0.01572
C 4.94327 15.71032 -0.00892
C 8.60895 23.54203 -0.01634
C 8.61776 22.06768 -0.00334
C 7.38205 21.32598 0.02339
C 7.43487 19.91953 0.01641
C 8.6391 19.18309 -0.00719
C 8.59764 17.74673 0.01364
C 7.39504 17.02669 -0.01062
C 7.44276 15.72195 -0.00033
C 8.70357 14.96452 0.03589
C 8.6608 13.51045 -0.02759
C 7.4206 12.91023 0.0402
C 7.33937 11.46258 0.00572
C 8.62118 10.69606 0.03592
C 8.63291 9.2646 0.00406
C 7.3272 8.58123 0.00943
C 7.39949 7.12076 0.02841
C 8.62476 6.41855 -0.01111
C 8.46333 5.01465 -0.01275
C 7.23304 4.34844 0.00985
C 7.36624 24.1852 0.00057
C 7.34455 25.58829 0.00093
C 8.6193 26.22928 0.01291
C 8.65168 27.66336 0.00438
C 6.13657 14.94422 -0.01362
C 6.16093 13.49152 -0.0008
C 4.94583 12.82361 0.0288
C 4.8682 11.44891 0.00393
C 6.13788 10.71068 0.00895
C 6.14867 9.33249 0.00685
C 4.86378 8.5782 0.02888
C 4.95317 7.20259 -0.00482
C 6.10229 6.38909 -0.01384
C 4.91891 17.162 -0.04848
C 6.02046 5.07276 0.03693
C 4.86017 2.86996 0.00488
C 6.07548 2.20048 -0.01004
C 6.08168 0.77814 -0.02896
C 4.81314 0.08078 -0.00131
C 7.32971 32.68018 -0.01118
C 8.48812 32.01503 -0.014
C 8.50377 30.61107 0.02147
C 7.29855 29.85965 0.00373
C 7.36477 28.44015 -0.00191
C 4.79931 4.25509 0.01745
C 3.56809 32.09908 0.0073
C 16.03164 4.92576 0.0058
C 14.6373 2.79274 0.00675
C 30.72105 2.20757 0.00716
C 30.69351 0.74834 0.00307
C 29.48064 0.01444 0.00346
C 31.90396 32.70762 0.01713
C 33.0849 32.03036 -0.01694
C 33.07331 30.51298 0.01428
C 31.92535 29.88788 -0.02142
C 31.91886 28.4543 0.0544
C 33.13412 27.7293 0.00026
C 33.15927 26.28687 0.00682
C 31.94579 25.61494 -0.01779
C 31.95042 24.1644 0.03794
C 33.18093 23.44635 0.01927
C 33.14811 22.03914 0.01574
C 31.93566 21.27874 -0.02383
C 31.94537 19.88018 -0.01429
C 33.23623 19.15988 -0.0136
C 33.12102 17.76928 0.00594
C 31.82966 17.0221 -0.02474
C 29.42852 2.90265 0.02108
C 31.85092 15.57073 0.00369
C 29.57406 4.30537 0.0103
C 30.66907 6.39047 0.01908
C 29.45886 32.63935 0.00261
C 30.6921 31.99075 0.03265
C 30.74788 30.61434 -0.02049
C 29.47397 29.84579 -0.01854
C 29.43698 28.42262 -0.01415
C 30.70929 27.75618 -0.03039
C 30.69839 26.29183 0.01836
C 29.44713 25.56639 0.03531
C 29.47332 24.1742 -0.00669
C 30.78836 23.37245 0.0101
C 30.65474 21.94754 0.01705
C 29.40891 21.1211 -0.0405
C 29.39802 19.61519 -0.01303
C 30.71729 19.19584 -0.01461
C 30.72698 17.78058 -0.02155
C 29.24761 17.39486 -0.00944
C 29.19319 15.88908 -0.03735
C 30.54547 15.02194 -0.00971
C 30.5903 13.58446 0.01518
C 30.78539 5.04261 0.07705
C 33.04965 14.9407 0.00455
C 33.05952 13.463 -0.00644
C 31.86188 12.7306 -0.01839
C 0.03372 19.89045 0.01951
C 1.24693 19.18768 -0.01678
C 1.16728 17.79658 0.01223
C 0.00164 17.04447 0.00648
C 34.26534 15.57835 0.02114
C 1.16787 14.976 -0.02957
C 1.14181 13.5283 0.00343
C 34.40571 12.81606 -0.02656
C 0.03199 11.45884 -0.02442
C 1.28923 10.78442 -0.00027
C 1.23405 9.31102 -0.00583
C 0.00294 8.56336 -0.02302
C 0.03952 7.19092 -0.02849
C 1.23668 6.47216 0.02931
C 1.19228 5.11967 0.00628
C 34.33978 4.36311 -0.0345
C 34.3734 2.9878 -0.00931
C 1.2014 2.21384 -0.00939
C 1.14615 0.80312 -0.00468
C 34.32493 21.31596 -0.02213
C 1.19413 22.03457 0.02712
C 1.19677 23.45959 0.00723
C 34.37818 24.19534 0.03076
C 32.07893 11.35884 0.00137
C 33.27956 10.71977 0.00199
C 33.27316 9.2724 0.04381
C 31.98183 8.69156 0.02806
C 31.80877 7.28817 0.01504
C 33.13318 6.53513 -0.00069
C 33.14207 5.15977 0.04926
C 32.04389 4.34961 -0.03838
C 31.98586 2.96067 0.00349
C 26.96058 0.1077 0.02326
C 33.1426 2.20967 -0.00323
C 31.96589 0.03155 0.0001
C 34.29477 32.74209 -0.02927
C 1.12392 31.98425 -0.01404
C 1.1746 30.54386 0.01027
C 34.30435 29.8252 0.01831
C 34.35015 28.40624 -0.01037
C 1.12792 27.76975 -0.00439
C 1.1821 26.29422 -0.00598
C 34.41276 25.59539 -0.05239
C 33.20856 0.79824 -0.00841
C 28.20343 0.81534 0.00924
C 28.17161 2.16774 0.0014
C 26.96044 3.03421 0.01324
C 18.29192 2.04896 0.02239
C 18.39375 0.63505 0.01153
C 17.11066 33.99327 0.02734
C 19.63762 32.66687 -0.0055
C 20.95773 31.94713 0.01515
C 20.8941 30.42898 -0.00225
C 19.61947 29.74626 0.00071
C 19.69158 28.39004 -0.01107
C 20.85692 27.47431 -0.01586
C 20.79268 26.14519 -0.01971
C 19.63321 25.42199 -0.02118
C 19.68503 24.03035 0.00733
C 20.93075 23.29499 -0.00178
C 20.88987 21.90718 0.00768
C 19.71279 21.30305 -0.0276
C 19.50642 2.80045 0.03005
C 20.76455 2.15203 -0.04078
C 20.77245 0.73014 0.02117
C 19.61802 34.04725 0.02737
C 17.16943 2.77061 -0.03213
C 17.16825 4.16441 -0.02845
C 17.13164 12.69503 0.03374
C 18.19631 13.39681 0.0296
C 15.78429 2.06252 -0.00311
C 15.82485 0.64013 0.00742
C 14.66623 34.01542 -0.01594
C 17.18991 32.65799 0.0106
C 18.39573 31.93611 -0.01154
C 18.38894 30.46373 -0.01721
C 17.0732 29.8106 -0.02422
C 17.16116 28.33509 0.01277
C 18.44453 27.62483 0.00096
C 22.03171 32.71607 -0.00498
C 18.437 26.19411 -0.01527
C 17.29001 23.98733 0.00199
C 18.51842 23.20436 0.01511
C 18.45188 21.78901 -0.00478
C 17.21211 21.08678 -0.01662
C 17.34274 19.62702 -0.01185
C 18.13713 18.40435 0.01126
C 17.45555 17.19946 0.01852
C 17.47759 15.79617 -0.00381
C 18.40651 14.69626 0.03046
C 17.2577 25.377 0.01087
C 14.62359 4.22865 -0.00865
C 23.1973 32.01028 0.00135
C 22.04007 29.73486 0.02555
C 25.85082 2.23392 0.00826
C 25.81047 0.78126 -0.00294
C 24.54209 0.06465 0.00152
C 26.9764 32.70614 0.01257
C 28.16631 32.01177 0.02316
C 28.21081 30.5704 0.04185
C 26.96534 29.80629 0.00194
C 26.93339 28.30591 -0.00621
C 28.21695 27.59272 0.02611
C 28.18625 26.26347 0.02198
C 26.94407 25.5697 0.01094
C 27.10001 24.14462 0.00235
C 28.26345 23.40877 0.01495
C 28.21218 21.79011 0.01259
C 27.0067 21.3791 0.01799
C 28.60036 18.40583 0.01699
C 28.52924 14.82909 -0.00416
C 28.51559 5.26916 0.01177
C 27.10966 4.52048 0.04266
C 24.45721 2.88115 0.00487
C 24.76543 4.2774 -0.00942
C 25.80594 4.94104 -0.02815
C 25.88277 22.07264 0.00622
C 22.10366 28.23173 0.01423
C 23.39609 27.56773 -0.00285
C 23.30346 26.15917 -0.009
C 22.09379 25.43094 -0.01199
C 22.09294 24.02307 -0.00229
C 23.42235 23.29782 -0.00938
C 22.02005 2.81185 -0.0264
C 23.24221 2.13525 -0.01154
C 23.29074 0.69445 0.00684
C 23.31755 30.55508 0.03102
C 21.99644 0.03887 -0.01052
C 25.77075 31.97005 0.00367
C 25.76842 30.55917 0.04306
C 24.5309 29.91614 0.00996
C 24.60062 28.34361 0.00195
C 25.79651 27.55533 -0.00802
C 25.75531 26.18671 -0.00218
C 24.50916 25.42532 -0.01654
C 24.54794 24.05014 -0.00037
C 25.84945 23.43835 -0.0032
C 24.57708 32.693 -0.01679
C 2.33247 32.76636 0.00402
