337
Graphene
C 34.40183 0.04096 0.01295
C 18.39278 4.97136 -0.00481
C 17.13199 4.27168 0.00979
C 17.23966 2.88159 0.01443
C 18.43025 2.21549 0.03505
C 18.49183 0.73835 -0.02815
C 17.31894 0.05505 -0.04147
C 19.69415 32.61253 -0.05302
C 20.87108 31.79713 0.00213
C 20.86399 30.46245 -0.00066
C 19.61783 29.75662 -0.00289
C 19.68356 28.30078 0.00028
C 20.96329 27.6566 -0.02213
C 20.93879 26.31279 0.03698
C 19.63604 25.64148 -0.00109
C 19.72883 24.14351 -0.00491
C 20.90255 23.43082 0.03338
C 20.96019 22.01034 -0.0258
C 18.39125 6.36133 0.00889
C 19.66615 21.28076 -0.0331
C 17.14772 7.00778 -0.02162
C 18.37135 9.18459 0.01848
C 18.41211 27.75177 -0.02813
C 18.43504 26.30221 0.00374
C 17.1745 25.62378 0.00052
C 17.11813 24.18477 -0.03682
C 18.41953 23.4748 0.01965
C 18.51824 22.01077 0.02058
C 17.2778 21.20218 -0.01957
C 17.28266 19.82174 -0.0108
C 18.48263 19.1931 -0.00368
C 18.46418 17.79735 -0.02696
C 17.21913 17.2278 -0.00114
C 17.05792 15.8881 0.00228
C 18.33588 14.94612 0.00798
C 18.32791 13.63902 0.00422
C 17.22165 12.74607 0.0351
C 17.3443 11.42579 -0.03113
C 18.40376 10.65838 0.02098
C 17.28005 8.3661 -0.00619
C 17.21226 28.44614 -0.01952
C 19.66461 19.88215 -0.00316
C 20.88147 17.71048 -0.01979
C 22.18779 28.29514 0.0058
C 23.44056 27.64617 -0.00865
C 23.42355 26.23595 0.00675
C 22.15695 25.54326 -0.00311
C 22.15009 24.10618 0.00742
C 23.32097 23.42169 -0.01594
C 23.37008 22.09138 0.0106
C 22.14624 21.25684 -0.01154
C 22.11545 19.77291 -0.01721
C 23.3483 19.21078 -0.02422
C 23.29653 17.7668 0.01277
C 22.03369 17.01349 0.00096
C 22.06137 15.65108 -0.01527
C 23.30457 14.89756 0.01087
C 23.33314 13.54798 0.00199
C 22.06059 12.84389 0.01511
C 22.09396 11.41846 -0.00478
C 22.0862 29.72743 -0.00652
C 20.92826 19.10187 0.02188
C 23.31164 30.45504 -0.04076
C 22.01973 32.55015 0.00654
C 19.60757 17.06454 0.02691
C 19.6198 15.57446 -0.01581
C 20.88801 14.92988 0.01452
C 20.87669 13.50886 0.04892
C 19.69495 12.80222 -0.00111
C 19.68656 11.36368 -0.03557
C 20.89531 10.68317 0.03754
C 20.81645 9.30276 0.01739
C 19.58109 8.53259 0.00755
C 19.56834 7.07883 -0.0054
C 20.86601 6.46031 0.00667
C 20.88101 5.0238 0.00143
C 19.71897 4.25363 -0.017
C 19.71367 2.90379 0.00364
C 20.93156 2.08604 -0.00831
C 20.95735 0.62218 -0.02957
C 19.68569 34.00632 -0.04422
C 23.28305 31.85925 -0.00703
C 17.19588 29.83771 0.05265
C 18.4198 30.51786 -0.01717
C 18.41496 31.9598 0.00244
C 6.11448 5.02167 0.01745
C 4.94227 4.21699 0.00488
C 4.96835 2.79287 -0.01004
C 6.20207 2.07349 -0.02896
C 6.09055 0.69133 -0.00131
C 4.88432 34.03218 -0.01118
C 7.41661 32.6916 -0.014
C 8.63167 31.93808 0.02147
C 8.66354 30.49933 0.00373
C 7.44559 29.79023 -0.00191
C 8.38739 27.75474 0.00438
C 8.38607 26.21671 0.01291
C 7.07611 25.64624 0.00093
C 7.33958 2.79684 0.00057
C 8.50273 2.15537 -0.01634
C 8.56556 0.84027 -0.00334
C 7.36207 0.00149 0.02339
C 4.77755 7.11512 0.03693
C 9.81898 32.68382 0.01641
C 4.79883 8.46591 -0.01384
C 6.20963 31.97236 0.02888
C 2.39814 29.65822 0.01396
C 2.52451 25.61682 0.01849
C 2.34171 24.2481 -0.01142
C 2.51543 12.75766 -0.00562
C 2.52623 11.32549 -0.00494
C 3.56686 10.62128 0.00054
C 3.75879 9.33339 0.03007
C 2.45533 8.50964 -0.00095
C 2.45506 7.07034 0.01572
C 3.59204 6.3667 -0.04848
C 3.63623 4.93713 -0.00892
C 2.45515 4.23151 -0.01362
C 2.45883 2.82682 -0.0008
C 3.77426 2.10864 0.0288
C 3.69746 0.72816 0.00393
C 2.40387 0.00629 0.00895
C 4.88259 32.48557 0.00685
C 5.20669 25.38616 -0.00482
C 11.06885 31.94978 -0.00719
C 11.03773 30.48187 0.01364
C 9.9244 29.73063 -0.01062
C 14.70946 29.86316 0.02894
C 14.69699 28.49934 -0.01789
C 15.95546 27.77487 0.00444
C 15.93772 26.40536 -0.00925
C 14.74592 25.65253 0.01877
C 14.88239 24.28322 0.01363
C 15.87753 23.4104 -0.02162
C 16.14635 22.03139 0.00415
C 16.00574 14.97366 -0.0014
C 15.86591 13.66248 0.02162
C 14.87747 12.79117 0.0076
C 15.70034 4.67811 0.01241
C 14.92851 2.98153 -0.01454
C 16.02833 2.10261 0.01945
C 16.08183 0.76684 0.01416
C 14.81 0.04476 0.03542
C 17.24172 32.67846 0.02299
C 15.97726 30.57756 -0.02971
C 15.98727 31.9969 0.00165
C 14.81697 32.71373 0.02819
C 12.28114 0.05802 -0.00891
C 9.7769 28.33659 -0.00033
C 11.00048 27.59073 0.03589
C 10.98401 26.05293 -0.02759
C 9.71003 25.4971 0.0402
C 11.10953 2.11722 0.00572
C 11.01959 0.73087 0.03592
C 9.80782 0.02739 0.00406
C 12.27515 32.76505 0.00943
C 23.35585 10.75497 -0.01662
C 13.62479 32.015 0.02841
C 12.31501 29.82851 -0.01275
C 12.22849 28.38949 0.00985
C 13.42495 27.69835 -0.02245
C 13.41888 26.24987 -0.00428
C 12.25001 25.63253 0.03101
C 12.27232 2.85797 -0.01536
C 13.53448 2.44273 -0.02689
C 13.5509 0.79667 -0.01046
C 13.5528 30.54016 -0.01111
C 3.58048 32.03443 0.0127
C 23.35306 9.3126 -0.01185
C 22.12792 7.16443 0.01852
C 31.91082 29.79926 0.0544
C 31.97402 28.38403 0.00026
C 33.18423 27.73995 0.00682
C 33.25085 26.35614 -0.01779
C 32.01383 25.63166 0.03794
C 32.06528 24.15166 0.01927
C 33.30341 23.4915 0.01574
C 33.18855 22.06941 -0.02383
C 32.0027 21.30399 -0.01429
C 31.98266 19.84781 -0.0136
C 33.0832 19.14443 0.00594
C 33.08162 17.76655 -0.02474
C 31.90417 17.06694 0.00369
C 31.96222 15.69643 0.00455
C 33.19663 14.99634 -0.00644
C 33.24441 13.65532 -0.01839
C 32.02203 12.82214 0.00137
C 33.21228 30.5754 -0.02142
C 32.00734 11.40067 0.00199
C 33.20031 31.97707 0.01428
C 29.46572 34.07244 0.01713
C 30.6608 17.81737 0.0101
C 29.45726 17.10555 0.01705
C 29.47133 15.6121 -0.0405
C 30.74795 14.94562 -0.01303
C 30.74349 13.49506 -0.01461
C 29.52095 12.81848 -0.02155
C 29.46055 11.33867 -0.00944
C 30.75943 10.67949 -0.03735
C 30.78256 9.21844 -0.00971
C 29.50313 8.52679 0.01518
C 29.47313 7.16548 0.01908
C 30.68583 6.42998 0.07705
C 30.69783 4.97471 0.0103
C 29.55215 4.21764 0.02108
C 29.44476 2.80343 0.00716
C 30.7063 2.14885 0.00307
C 30.66357 0.70585 0.00346
C 31.9676 32.69913 -0.01694
C 30.69037 19.19278 -0.00669
C 33.21972 10.64675 0.04381
C 32.05262 8.50885 0.01504
C 1.08412 18.90219 0.01223
C 0.08644 17.28158 0.00648
C 0.2305 15.83071 0.02114
C 1.10356 14.8643 -0.02957
C 1.3306 13.52251 0.00343
C 0.0468 12.78234 -0.02656
C 0.03117 11.35804 -0.02442
C 1.20571 10.67495 -0.00027
C 1.22387 9.16345 -0.00583
C 34.36812 8.4621 -0.02302
C 34.39023 7.05032 -0.02849
C 1.21091 6.33243 0.02931
C 1.22793 4.97817 0.00628
C 34.42337 4.26047 -0.0345
C 0.04508 2.90461 -0.00931
C 1.25122 2.22211 -0.00939
C 1.17339 0.75922 -0.00468
C 34.37015 19.72475 -0.01678
C 33.23051 9.20221 0.02806
C 34.38852 21.27647 0.01951
C 1.45148 23.30847 0.02712
C 31.90824 7.0996 -0.00069
C 33.13191 6.33219 0.04926
C 33.08641 4.92877 -0.03838
C 31.88057 4.2668 0.00349
C 31.93946 2.83513 -0.00323
C 33.21253 2.19198 -0.00841
C 33.23525 0.84033 0.0001
C 31.96447 0.03713 -0.02927
C 0.00674 32.69471 -0.01404
C 1.21541 32.00344 0.01027
C 1.36145 30.53638 0.01831
C 34.41082 29.89425 -0.01037
C 34.35681 28.48863 -0.00439
C 1.20782 27.84181 -0.00598
C 1.4228 26.41579 -0.05239
C 0.12952 25.66425 0.03076
C 0.09923 24.15042 0.00723
C 1.15937 22.04146 -0.02213
C 29.51138 19.97549 0.03531
C 29.54452 21.33708 0.01836
C 30.72985 21.97528 -0.03039
C 25.78572 17.75463 0.03005
C 24.52112 17.03205 -0.04078
C 24.58815 15.66391 0.02117
C 25.84356 14.9237 0.02737
C 25.80869 13.53092 -0.00498
C 24.54445 12.79226 0.00135
C 24.59792 11.36945 0.03102
C 25.78261 10.65573 0.02555
C 25.76741 9.22021 0.01423
C 24.55142 8.5577 -0.00285
C 24.53426 7.10101 -0.009
C 25.74953 6.35369 -0.01199
C 25.78696 5.01328 -0.00229
C 24.61386 4.31096 -0.00938
C 24.53592 2.84901 -0.0264
C 25.76243 2.14766 -0.01154
C 25.75721 0.68307 0.00684
C 25.81296 19.12828 -0.0276
C 24.5497 0.02964 -0.01052
C 24.58118 19.89724 0.00768
C 25.8785 22.01793 0.00733
C 23.30212 6.389 -0.00381
C 23.33667 4.99202 0.03046
C 22.12296 4.30311 0.0296
C 22.07329 2.84808 0.03374
C 23.30792 2.10672 -0.02845
C 23.29027 0.76127 -0.03213
C 22.11806 33.97755 0.02239
C 24.57977 32.66274 0.01153
C 25.72714 31.8411 0.02734
C 25.79715 30.44868 -0.0055
C 24.64315 29.82629 0.01515
C 24.72624 28.34564 -0.00225
C 25.86735 27.61175 0.00071
C 25.84872 26.22103 -0.01107
C 24.63875 25.48374 -0.01586
C 24.5781 24.11501 -0.01971
C 25.88699 23.40336 -0.02118
C 24.59287 21.33037 -0.00178
C 27.02133 32.5893 -0.01679
C 28.18529 31.90393 0.00367
C 28.28443 30.44582 0.04306
C 28.26491 6.42534 0.00235
C 28.30253 4.98188 0.01495
C 27.06438 4.30544 0.01259
C 27.00341 2.80774 0.01799
C 28.25501 2.11925 0.01699
C 28.22598 0.70194 -0.00416
C 26.92079 34.07637 0.01177
C 29.49078 32.60827 0.04266
C 30.66914 31.98441 0.01324
C 30.65984 30.52074 0.0014
C 29.53592 29.73992 0.00924
C 29.50762 28.34468 0.02326
C 30.67042 27.66107 0.00261
C 30.76675 26.27234 0.03265
C 29.56436 25.46686 -0.02049
C 29.57183 24.10347 -0.01854
C 30.79147 23.38492 -0.01415
C 26.9945 7.07398 0.01094
C 26.98374 8.51833 0.02198
C 28.2737 9.26421 0.02611
C 28.21959 10.64241 -0.00621
C 26.98794 29.72265 0.00996
C 27.04749 28.27604 0.00195
C 28.28422 27.53605 -0.00802
C 28.32819 26.10056 -0.00218
C 27.03777 25.47868 -0.01654
C 27.10625 24.10485 -0.00037
C 28.33071 23.38385 -0.0032
C 28.3307 22.00356 0.00622
C 22.12538 8.62005 0.01126
C 27.09487 21.2727 -0.02815
C 28.23083 19.20421 0.00487
C 28.19611 17.76003 0.00826
C 26.98331 17.009 -0.00294
C 27.0096 15.67151 0.00152
C 28.25852 14.9035 0.01257
C 28.27133 13.48256 0.02316
C 27.0694 12.79672 0.04185
C 27.02275 11.41968 0.00194
C 27.0229 19.85167 -0.00942
C 2.41546 32.72502 0.02635
