339
Graphene
C 34.36834 0.07779 0.01295
C 11.05011 15.0206 -0.02162
C 11.14985 13.52207 0.00889
C 9.89867 12.78387 -0.00481
C 9.94129 11.38025 0.00979
C 11.1567 10.60786 0.01443
C 11.13715 9.26563 0.03505
C 9.89081 8.48694 -0.02815
C 9.94265 7.11275 -0.04147
C 11.1289 6.48564 -0.05302
C 11.14481 5.03523 0.00213
C 9.90768 4.2992 -0.00066
C 9.78935 2.95953 -0.00289
C 11.07227 2.17875 0.00028
C 11.0414 0.77144 -0.02213
C 9.88973 0.01758 0.03698
C 12.30593 32.71624 -0.00109
C 13.56068 31.98803 -0.00491
C 9.81872 15.71442 -0.00619
C 13.48759 30.5578 0.03338
C 9.79873 17.08242 0.01848
C 11.10017 19.2182 -0.03113
C 7.33753 3.09382 0.05265
C 8.5372 2.25019 -0.01952
C 8.65462 0.79206 -0.02813
C 7.3718 0.12057 0.00374
C 9.83485 32.70078 0.00052
C 11.05978 31.99858 -0.03682
C 11.08185 30.59602 0.01965
C 9.889 29.92208 0.02058
C 9.80109 28.51306 -0.01957
C 11.02712 27.80318 -0.0108
C 11.00654 26.34599 -0.00368
C 9.80062 25.58991 -0.02696
C 9.779 24.06652 -0.00114
C 10.98526 23.43145 0.00228
C 11.09416 22.05556 0.00798
C 9.82201 21.35969 0.00422
C 9.77583 19.99296 0.0351
C 11.04802 17.84404 0.02098
C 12.31352 29.85226 -0.0258
C 12.25763 28.51731 -0.0331
C 13.56491 27.71269 -0.00316
C 12.31387 0.01859 -0.00652
C 14.75711 32.60028 0.0058
C 16.03784 31.90261 -0.00865
C 15.95251 30.50295 0.00675
C 14.79244 29.76867 -0.00311
C 14.79871 28.36777 0.00742
C 16.05239 27.67866 -0.01594
C 15.88583 26.25617 0.0106
C 14.69816 25.50029 -0.01154
C 14.75405 24.19273 -0.01721
C 15.94622 23.13152 -0.02422
C 15.08653 21.87033 0.01277
C 14.79563 8.51073 0.00096
C 14.85959 7.07808 -0.01527
C 16.0679 6.3509 0.01087
C 15.98619 4.94921 0.00199
C 14.76481 4.21297 0.01511
C 13.51823 0.70554 -0.04076
C 13.58092 2.08396 -0.00703
C 12.35061 2.86309 0.00654
C 12.3099 4.27233 -0.04422
C 13.50059 26.31416 0.02188
C 12.24201 25.66866 -0.01979
C 12.24095 24.22508 0.02691
C 13.50851 23.50208 -0.01581
C 13.65914 22.04181 0.01452
C 12.33102 21.37487 0.04892
C 12.36588 19.89867 -0.00111
C 13.43044 19.0597 -0.03557
C 7.44449 8.62556 -0.01717
C 12.24496 17.14773 0.03754
C 12.37053 12.90384 0.00755
C 12.32734 11.40401 -0.0054
C 13.51654 10.55292 0.00667
C 13.66299 9.24227 0.00143
C 12.31157 8.56194 -0.017
C 12.40808 7.11755 0.00364
C 13.63981 6.40159 -0.00831
C 13.58978 4.91369 -0.02957
C 12.13936 15.75724 0.01739
C 14.81012 2.76022 -0.00478
C 8.63915 9.24372 0.00244
C 7.40997 11.31397 0.03542
C 2.41631 8.45973 -0.01384
C 2.37201 7.10203 0.03693
C 3.65301 6.36848 0.01745
C 3.60069 5.01157 0.00488
C 2.41653 4.27918 -0.01004
C 2.37174 2.89242 -0.02896
C 3.61212 2.16146 -0.00131
C 3.6045 0.74835 -0.01118
C 2.37716 0.03598 -0.014
C 4.91517 32.70171 0.02147
C 6.1242 32.09804 0.00373
C 6.13471 30.60938 -0.00191
C 4.91763 29.89521 0.00438
C 4.93595 28.4136 0.01291
C 6.15034 27.81501 0.00093
C 6.11545 26.3727 0.00057
C 4.92068 25.5942 -0.01634
C 3.73599 9.06749 -0.00482
C 4.92716 24.14698 -0.00334
C 3.71597 10.52654 0.02888
C 2.38815 12.76158 0.00895
C 3.66067 30.59838 0.02635
C 2.43055 29.83122 0.0127
C 2.37138 28.44237 0.01396
C 3.69751 27.69174 0.01849
C 3.62528 26.28298 -0.01142
C 2.46114 25.58195 -0.00562
C 2.46296 24.16619 -0.00494
C 3.71825 23.38478 0.00054
C 3.69308 21.998 0.03007
C 2.36023 21.29515 -0.00095
C 2.41559 19.872 0.01572
C 3.66407 19.19588 -0.04848
C 3.66776 17.70883 -0.00892
C 2.48294 17.02133 -0.01362
C 2.39722 15.51077 -0.0008
C 3.59914 14.86624 0.0288
C 3.60002 13.41081 0.00393
C 2.49175 11.30423 0.00685
C 6.15107 23.40749 0.02339
C 6.14532 22.05102 0.01641
C 4.9041 21.33066 -0.00719
C 7.40013 29.9446 0.00165
C 7.35095 28.45138 -0.02971
C 8.58694 27.77057 0.02894
C 8.5633 26.33568 -0.01789
C 7.28899 25.62864 0.00444
C 7.35406 24.25253 -0.00925
C 8.4776 23.43238 0.01877
C 8.54029 22.03343 0.01363
C 7.37223 21.34701 -0.02162
C 7.4079 19.85888 0.00415
C 8.64679 19.18831 -0.0014
C 8.5684 17.73205 0.02162
C 7.38817 17.01152 0.0076
C 7.37957 15.62115 0.01241
C 8.5954 14.93159 -0.01454
C 8.60853 13.47889 0.01945
C 7.40423 12.73829 0.01416
C 8.53335 30.64361 0.02819
C 8.54444 32.04433 -0.00891
C 7.33658 32.75211 -0.01046
C 4.95797 0.21912 -0.02689
C 4.91346 19.97835 0.01364
C 6.12354 19.14742 -0.01062
C 6.21473 17.77675 -0.00033
C 4.91922 17.02427 0.03589
C 4.88624 15.60123 -0.02759
C 6.14638 14.84368 0.0402
C 6.0485 13.4699 0.00572
C 4.87578 12.684 0.03592
C 8.60592 10.61939 0.02299
C 4.93764 11.29059 0.00406
C 6.2288 9.10531 0.02841
C 4.97374 8.29193 -0.01111
C 4.88659 6.87695 -0.01275
C 5.9856 5.1407 0.00985
C 4.87978 4.31354 -0.02245
C 4.8226 2.871 -0.00428
C 6.18692 2.30048 0.03101
C 6.21863 0.85657 -0.01536
C 6.13914 10.59975 0.00943
C 3.68808 31.97746 -0.01378
C 16.03035 1.99887 -0.01662
C 14.7636 34.05327 0.01126
C 31.95157 29.87407 -0.02142
C 31.95144 28.45787 0.0544
C 33.19228 27.68216 0.00026
C 33.16344 26.32429 0.00682
C 31.95885 25.49749 -0.01779
C 31.96148 24.05759 0.03794
C 33.17187 23.39932 0.01927
C 33.10531 22.01299 0.01574
C 31.85059 21.23187 -0.02383
C 31.89924 19.89328 -0.01429
C 33.1093 19.20355 -0.0136
C 33.19942 17.76471 0.00594
C 31.87855 17.04382 -0.02474
C 31.91303 15.56236 0.00369
C 33.17642 14.91256 0.00455
C 33.14207 13.46359 -0.00644
C 32.0032 12.7596 -0.01839
C 33.10637 30.5818 0.01428
C 31.98814 11.39457 0.00137
C 33.20711 32.01144 -0.01694
C 29.51533 34.03261 0.00346
C 29.32441 21.24848 -0.00669
C 29.53768 19.85541 0.0101
C 30.58931 19.00707 0.01705
C 30.61435 17.61495 -0.0405
C 30.75849 14.7624 -0.01303
C 30.74132 13.3751 -0.01461
C 29.55747 11.54873 -0.02155
C 30.59462 10.79781 -0.00944
C 30.65079 9.25904 -0.03735
C 29.47602 8.65893 -0.00971
C 29.55009 7.16515 0.01518
C 30.73728 6.38303 0.01908
C 30.72711 4.931 0.07705
C 29.3994 4.32576 0.0103
C 29.39943 2.90258 0.02108
C 30.57433 2.16335 0.00716
C 30.72231 0.68778 0.00307
C 31.93979 32.70569 0.01713
C 33.1625 10.6195 0.00199
C 33.17784 9.20647 0.04381
C 31.88299 8.57636 0.02806
C 1.26848 17.7623 0.01223
C 34.39048 17.12833 0.00648
C 34.41905 15.69964 0.02114
C 1.15525 14.89499 -0.02957
C 1.19866 13.47918 0.00343
C 34.40387 12.80064 -0.02656
C 34.36463 11.38911 -0.02442
C 1.23376 10.63866 -0.00027
C 1.18492 9.32013 -0.00583
C 0.01012 8.53218 -0.02302
C 34.36142 7.06296 -0.02849
C 1.16595 6.44135 0.02931
C 1.2154 5.02512 0.00628
C 34.40287 4.30444 -0.0345
C 34.335 2.89489 -0.00931
C 1.12234 2.21738 -0.00939
C 1.16797 0.78943 -0.00468
C 1.12831 19.12926 -0.01678
C 34.40106 19.88197 0.01951
C 34.37189 21.27238 -0.02213
C 1.16343 22.08878 0.02712
C 31.91469 7.13877 0.01504
C 33.10691 6.45936 -0.00069
C 33.13468 5.00883 0.04926
C 31.90277 4.24187 -0.03838
C 31.82872 2.77005 0.00349
C 33.1419 2.13715 -0.00323
C 33.11049 0.73582 -0.00841
C 31.98497 0.02883 0.0001
C 30.65536 21.95824 0.03531
C 34.41963 32.70607 -0.02927
C 1.1842 30.56162 0.01027
C 34.36296 29.88492 0.01831
C 34.42547 28.41018 -0.01037
C 1.16645 27.67902 -0.00439
C 1.19417 26.29581 -0.00598
C 34.39319 25.50594 -0.05239
C 0.04774 24.13318 0.03076
C 1.25906 23.47803 0.00723
C 1.25795 32.03766 -0.01404
C 16.01037 0.64909 -0.01185
C 30.72216 23.42298 0.01836
C 29.53556 25.54695 -0.01415
C 19.52284 4.47026 -0.0276
C 19.72699 3.00562 0.03005
C 20.86781 2.17068 -0.04078
C 20.86429 0.67376 0.02117
C 19.64675 34.04674 0.02737
C 22.03039 32.50978 -0.00498
C 23.26458 31.79759 0.00135
C 23.29268 30.32769 0.03102
C 22.07244 29.76238 0.02555
C 23.37302 6.40459 0.01423
C 23.30892 5.03135 -0.00285
C 22.03198 4.27183 -0.009
C 22.06435 2.78288 -0.01199
C 23.31809 2.06506 -0.00229
C 23.31819 0.60319 -0.00938
C 22.04755 34.02033 -0.0264
C 24.50587 32.52362 -0.01154
C 20.86974 5.09893 0.00768
C 25.73295 31.87796 0.00684
C 18.6361 24.7531 -0.00178
C 20.80446 30.25358 -0.02118
C 17.2402 32.59395 0.01852
C 18.44754 31.88869 -0.00381
C 18.4149 30.33333 0.03046
C 17.14095 29.71637 0.0296
C 17.42382 28.20242 0.03374
C 18.65552 27.59834 -0.02845
C 18.30997 26.21831 -0.03213
C 17.00621 25.4001 0.02239
C 17.13083 24.0124 0.01153
C 18.23767 5.02943 0.02734
C 17.11046 4.15185 -0.0055
C 17.2658 2.80708 0.01515
C 18.57428 2.19437 -0.00225
C 18.42431 0.77348 0.00071
C 17.26656 34.00453 -0.01107
C 19.61232 32.58483 -0.01586
C 20.84647 31.76508 -0.01971
C 19.53967 29.56824 0.00733
C 25.75936 30.47837 -0.01052
C 24.60942 29.62706 -0.01679
C 25.72598 27.71927 0.00367
C 28.26046 9.36795 0.01094
C 27.10663 8.53505 0.00235
C 27.00993 7.19994 0.01495
C 28.29097 6.49491 0.01259
C 28.17802 5.07736 0.01799
C 26.9627 4.28149 0.01699
C 26.8914 2.85967 -0.00416
C 28.14344 2.13757 0.01177
C 28.29591 0.70042 0.04266
C 27.06129 0.0199 0.01324
C 29.45026 32.5743 0.0014
C 30.75296 31.9249 0.00924
C 30.67663 30.54994 0.02326
C 29.43944 29.86216 0.00261
C 29.50135 28.4382 0.03265
C 30.75841 27.73053 -0.02049
C 30.6992 26.28677 -0.01854
C 28.03848 22.11061 0.02198
C 28.18343 23.47414 0.02611
C 26.82797 24.21604 -0.00621
C 27.00424 25.70435 0.00194
C 25.78917 26.40008 0.04306
C 24.34645 23.91535 0.00996
C 25.66118 23.71311 0.00195
C 24.48977 7.06443 -0.00802
C 25.71373 6.41898 -0.00218
C 25.75788 5.00781 -0.01654
C 24.54925 4.26634 -0.00037
C 24.46656 2.83922 -0.0032
C 29.41863 24.16054 -0.03039
C 25.69477 2.08329 0.00622
C 24.51622 33.98452 -0.00942
C 26.90255 32.73226 0.00487
C 28.12336 31.97946 0.00826
C 28.16787 30.56998 -0.00294
C 27.04483 29.73663 0.00152
C 27.05578 28.3343 0.01257
C 28.28439 27.68145 0.02316
C 28.36764 26.29569 0.04185
C 25.79786 0.69435 -0.02815
C 2.45208 32.71296 -0.01303
