327
Graphene
C 0.08686 34.07265 0.01295
C 9.86985 4.31668 0.00213
C 9.89483 2.89363 -0.00066
C 11.05199 2.15792 -0.00289
C 11.10819 0.81808 0.00028
C 9.87311 0.04406 -0.02213
C 12.34027 32.67205 0.03698
C 13.52002 31.86924 -0.00109
C 9.66127 19.87241 -0.05302
C 13.52697 30.37722 -0.00491
C 12.27982 28.29416 -0.0258
C 13.56042 27.64543 -0.0331
C 13.53101 26.28255 -0.00316
C 12.31071 25.51432 0.02188
C 12.19231 24.14968 -0.01979
C 13.48641 23.34804 0.02691
C 13.46927 22.05135 -0.01581
C 12.28806 29.70448 0.03338
C 9.92397 21.17824 -0.04147
C 11.23989 21.93975 -0.02815
C 11.08662 23.32758 0.03505
C 7.49488 7.10964 -0.0108
C 8.50126 6.34645 -0.00368
C 8.65889 5.01147 -0.02696
C 7.31507 4.31631 -0.00114
C 7.36701 2.90072 0.00228
C 8.58872 2.19526 0.00798
C 8.69932 0.75104 0.00422
C 7.41707 0.04902 0.0351
C 9.90098 32.71589 -0.03113
C 11.11099 32.00749 0.02098
C 11.11256 30.56549 0.01848
C 9.85425 29.89173 -0.00619
C 9.81299 28.51661 -0.02162
C 11.01294 27.65802 0.00889
C 11.09118 26.2573 -0.00481
C 9.83272 25.60552 0.00979
C 9.81746 24.09346 0.01443
C 13.65814 0.64216 0.01452
C 7.27112 8.46947 -0.01957
C 12.42423 0.10467 0.04892
C 15.98151 31.91489 -0.03557
C 20.89181 31.94848 0.0106
C 20.9896 30.49468 -0.01154
C 19.72843 29.83276 -0.01721
C 19.74899 28.43887 -0.02422
C 20.92536 27.79426 0.01277
C 20.92184 26.33461 0.00096
C 19.67241 25.54892 -0.01527
C 19.61271 32.69843 -0.01594
C 19.65302 24.13649 0.01087
C 21.0316 22.08193 0.01511
C 20.76206 0.51751 -0.00478
C 19.66774 34.05315 -0.01662
C 22.1083 32.67852 -0.01185
C 23.32527 32.02717 0.01126
C 23.37987 30.57686 0.01852
C 22.2106 29.86158 -0.00381
C 20.87552 23.45253 0.00199
C 17.27318 33.99795 0.00742
C 18.50923 23.34546 -0.00311
C 17.18008 23.98139 0.00675
C 15.95552 30.4721 0.03754
C 14.74094 29.73072 0.01739
C 14.82323 28.35915 0.00755
C 16.05115 27.6824 -0.0054
C 15.96406 26.28207 0.00667
C 14.73458 25.61348 0.00143
C 14.7086 24.19713 -0.017
C 15.84871 23.61499 0.00364
C 14.7663 33.97937 -0.00831
C 17.23863 32.6687 -0.02957
C 18.46615 31.88787 -0.04422
C 18.51674 30.50633 0.00654
C 17.27967 29.8671 -0.00703
C 17.24337 28.44906 -0.04076
C 18.45115 27.6585 -0.00652
C 18.38731 26.2467 0.0058
C 17.14875 25.54844 -0.00865
C 14.74891 32.58302 -0.00111
C 22.13509 28.44807 0.03046
C 7.25264 11.59989 0.02058
C 7.20188 15.56043 -0.03682
C 2.37456 8.51742 0.00438
C 2.42382 7.10388 0.01291
C 3.64048 6.42314 0.00093
C 3.68334 5.00292 0.00057
C 2.49382 4.21264 -0.01634
C 2.44473 2.79324 -0.00334
C 3.69368 2.12932 0.02339
C 3.62906 9.19293 -0.00191
C 3.7216 0.7016 0.01641
C 4.9204 32.62353 0.01364
C 6.13765 31.93992 -0.01062
C 6.19959 30.53724 -0.00033
C 4.93317 29.85609 0.03589
C 4.87646 28.46346 -0.02759
C 6.05322 27.61718 0.0402
C 6.09778 26.23721 0.00572
C 2.49937 34.05603 -0.00719
C 3.64368 10.64331 0.00373
C 2.448 11.37645 0.02147
C 2.4608 12.82068 -0.014
C 3.63139 30.56304 -0.00892
C 2.42968 29.84556 -0.01362
C 2.4818 28.40805 -0.0008
C 3.66605 27.75413 0.0288
C 3.65853 26.26687 0.00393
C 2.4334 25.63413 0.00895
C 2.38733 24.223 0.00685
C 3.65297 23.49885 0.02888
C 3.62764 22.06208 -0.00482
C 2.44476 21.34662 -0.01384
C 2.39446 19.88249 0.03693
C 3.71914 19.1774 0.01745
C 3.72632 17.72884 0.00488
C 2.48383 17.04721 -0.01004
C 2.51396 15.59948 -0.02896
C 3.66497 14.845 -0.00131
C 3.65943 13.48403 -0.01118
C 4.91086 25.53421 0.03592
C 7.26554 12.75902 0.01965
C 4.90528 24.14292 0.00406
C 6.17821 22.04171 0.02841
C 7.41243 32.66508 -0.0014
C 8.5967 31.93745 0.02162
C 8.62294 30.55465 0.0076
C 7.3506 29.76812 0.01241
C 7.28493 28.42339 -0.01454
C 8.53921 27.77748 0.01945
C 8.62632 26.37196 0.01416
C 4.963 34.02641 0.00415
C 7.38304 25.61557 0.03542
C 8.66646 23.44432 0.00244
C 8.65547 21.98761 -0.01717
C 7.42048 21.35274 0.05265
C 7.44121 19.96981 -0.01952
C 8.66545 19.01977 -0.02813
C 8.47068 17.71452 0.00374
C 7.37607 16.95751 0.00052
C 7.41764 24.18043 0.02299
C 6.15629 0.74231 -0.02162
C 6.15093 2.15817 0.01363
C 4.92474 2.85649 0.01877
C 4.94764 21.33969 -0.01111
C 4.91537 19.85127 -0.01275
C 6.19826 19.19656 0.00985
C 6.10225 17.7208 -0.02245
C 4.94836 16.9957 -0.00428
C 4.90352 15.55623 0.03101
C 6.12921 14.88578 -0.01536
C 6.1318 13.51658 -0.02689
C 4.85652 12.71688 -0.01046
C 4.87668 11.31269 -0.00891
C 6.1897 10.65403 0.02819
C 6.14639 9.21178 0.00165
C 4.87695 8.51725 -0.02971
C 4.89124 7.15742 0.02894
C 6.11258 6.4339 -0.01789
C 6.09227 5.07191 0.00444
C 4.89374 4.32063 -0.00925
C 6.21259 23.48831 0.00943
C 3.69704 31.94508 -0.04848
C 23.39351 27.76338 0.0296
C 22.12372 25.65403 -0.02845
C 33.21607 26.38929 0.00682
C 32.01764 25.65632 -0.01779
C 31.89958 24.21715 0.03794
C 33.19177 23.5773 0.01927
C 33.14002 22.15525 0.01574
C 31.88264 21.31872 -0.02383
C 31.8932 19.83663 -0.01429
C 33.16913 27.78447 0.00026
C 33.13201 19.12955 -0.0136
C 31.95922 17.03138 -0.02474
C 31.95109 15.63223 0.00369
C 33.19832 14.93635 0.00455
C 33.13599 13.5164 -0.00644
C 31.95958 12.80351 -0.01839
C 31.91892 11.38954 0.00137
C 33.15614 10.67273 0.00199
C 33.2423 17.68964 0.00594
C 31.93444 28.47846 0.0544
C 31.96649 29.91321 -0.02142
C 33.20619 30.55801 0.01428
C 30.70778 14.9043 -0.0405
C 30.69023 13.46375 -0.01303
C 29.54168 12.74434 -0.01461
C 29.45984 11.37656 -0.02155
C 30.66825 10.69352 -0.00944
C 30.59709 9.2213 -0.03735
C 29.43506 8.427 -0.00971
C 29.40016 7.04893 0.01518
C 30.71117 6.38223 0.01908
C 30.72277 4.98411 0.07705
C 29.46346 4.28122 0.0103
C 29.48391 2.80993 0.02108
C 30.75852 2.14319 0.00716
C 30.77097 0.71126 0.00307
C 29.53667 0.02627 0.00346
C 32.01952 32.62578 0.01713
C 33.25578 32.00439 -0.01694
C 33.15104 9.19319 0.04381
C 29.53765 15.5401 0.01705
C 31.83751 8.58543 0.02806
C 33.18178 6.36372 -0.00069
C 0.02815 17.02936 0.00648
C 34.43295 15.60769 0.02114
C 1.27616 14.9167 -0.02957
C 1.21341 13.51568 0.00343
C 34.41169 12.82409 -0.02656
C 34.40141 11.32745 -0.02442
C 1.21117 10.6581 -0.00027
C 1.2168 17.78226 0.01223
C 1.15734 9.23788 -0.00583
C 0.04115 7.0266 -0.02849
C 1.26975 6.35053 0.02931
C 1.28443 4.92378 0.00628
C 34.43308 4.28184 -0.0345
C 34.40944 2.86482 -0.00931
C 1.21912 2.08148 -0.00939
C 1.25632 0.73836 -0.00468
C 34.41059 8.45681 -0.02302
C 1.12579 19.17329 -0.01678
C 34.34428 19.92706 0.01951
C 34.37707 21.36351 -0.02213
C 33.17806 4.94854 0.04926
C 31.93847 4.24113 -0.03838
C 31.97357 2.78305 0.00349
C 33.24067 2.0896 -0.00323
C 33.24797 0.72524 -0.00841
C 32.01616 0.02878 0.0001
C 0.05639 32.67829 -0.02927
C 1.25005 31.94841 -0.01404
C 1.21723 30.54988 0.01027
C 34.42931 29.85445 0.01831
C 34.42364 28.42255 -0.01037
C 1.24273 27.81673 -0.00439
C 1.23173 26.35476 -0.00598
C 0.02549 25.68533 -0.05239
C 34.41899 24.2568 0.03076
C 1.21118 23.47536 0.00723
C 1.19658 22.03936 0.02712
C 31.99158 7.15579 0.01504
C 23.35002 26.35835 0.03374
C 29.48065 16.92168 0.0101
C 30.66454 19.09312 0.03531
C 25.78764 19.14229 0.00135
C 25.82095 17.84782 0.03102
C 25.95569 14.71026 0.02555
C 25.81432 13.58357 0.01423
C 25.83672 10.4646 -0.00285
C 25.84779 6.33538 -0.009
C 25.74304 4.99499 -0.01199
C 24.43411 19.84554 -0.00498
C 24.59211 4.26476 -0.00229
C 25.78716 2.07356 -0.0264
C 25.76341 0.62997 -0.01154
C 24.58641 34.05599 0.00684
C 27.05947 32.66139 -0.01052
C 28.27387 31.97602 -0.01679
C 28.31044 30.51309 0.00367
C 27.03912 29.79639 0.04306
C 24.38258 2.89783 -0.00938
C 24.52083 21.34171 0.02737
C 25.8468 21.94202 0.02117
C 25.86405 23.46267 -0.04078
C 22.11701 24.20241 -0.03213
C 23.36494 23.43106 0.02239
C 23.27976 22.08155 0.01153
C 22.11936 21.51417 0.02734
C 23.25709 19.25856 -0.0055
C 23.29271 2.10279 0.01515
C 23.3552 0.72698 -0.00225
C 22.13815 0.01427 0.00071
C 24.59721 32.62956 -0.01107
C 25.83721 31.93398 -0.01586
C 25.84002 30.49862 -0.01971
C 24.61828 29.87921 -0.02118
C 24.61199 28.42081 0.00733
C 25.80783 27.7207 -0.00178
C 25.83841 26.22437 0.00768
C 24.58067 25.55357 -0.0276
C 24.59058 24.1279 0.03005
C 27.0344 28.3841 0.00996
C 30.73189 17.69758 -0.00669
C 28.28357 27.66481 0.00195
C 27.07592 25.50946 -0.00218
C 28.26086 2.0974 0.01799
C 28.30923 0.65639 0.01699
C 27.02955 0.02937 -0.00416
C 29.60053 32.68126 0.01177
C 30.7496 31.95032 0.04266
C 30.72602 30.53031 0.01324
C 29.50105 29.7728 0.0014
C 27.01602 2.74841 0.01259
C 29.51898 28.33814 0.00924
C 30.79044 26.27641 0.00261
C 29.52698 25.61186 0.03265
C 29.45881 24.17941 -0.02049
C 30.69107 23.42656 -0.01854
C 30.71544 21.98072 -0.01415
C 29.48724 21.20003 -0.03039
C 29.47059 19.78342 0.01836
C 30.71123 27.70527 0.02326
C 27.03065 4.15144 0.01495
C 28.22371 4.9327 0.00235
C 28.13629 6.37747 0.01094
C 27.09471 24.10325 -0.01654
C 28.28842 23.38816 -0.00037
C 28.30209 21.91648 -0.0032
C 27.11972 21.25304 0.00622
C 27.0646 19.85905 -0.02815
C 28.2702 19.06489 -0.00942
C 28.26717 17.68362 0.00487
C 26.98822 17.0446 0.00826
C 27.01141 15.57675 -0.00294
C 28.28823 14.86359 0.00152
C 28.20709 13.42119 0.01257
C 26.93346 12.71427 0.02316
C 26.97629 11.23594 0.04185
C 28.30118 10.64224 0.00194
C 28.27201 9.22706 -0.00621
C 27.04192 8.58667 0.02611
C 26.91165 7.20416 0.02198
C 28.30266 26.24096 -0.00802
C 2.50791 32.67718 0.01572
