304
Graphene
C 34.30185 0.09043 0.01295
C 18.602 21.7476 -0.01581
C 18.52263 5.14246 0.01452
C 17.23515 4.54613 0.04892
C 17.14581 3.08745 -0.00111
C 18.43072 2.32462 -0.03557
C 18.4097 0.87014 0.03754
C 17.16597 0.1897 0.01739
C 19.61051 32.78871 0.00755
C 20.84493 31.97404 -0.0054
C 20.78986 30.55487 0.00667
C 19.61986 29.76522 0.00143
C 19.64089 28.2974 -0.017
C 20.8227 27.66082 0.00364
C 20.83054 26.14419 -0.00831
C 19.58867 25.44415 -0.02957
C 18.33938 23.26097 0.02691
C 19.63459 23.97288 -0.04422
C 17.10214 23.89701 -0.01979
C 18.3126 26.13636 -0.00316
C 15.86588 26.2103 0.03505
C 14.62829 25.66596 -0.02815
C 15.75951 23.58123 -0.04147
C 16.00133 5.00849 -0.05302
C 14.73403 4.55495 0.00213
C 14.64792 2.96669 -0.00066
C 15.8745 2.31655 -0.00289
C 15.98798 0.87729 0.00028
C 14.85133 0.12152 -0.02213
C 17.19089 32.73579 0.03698
C 18.44369 31.9505 -0.00109
C 18.40265 30.49398 -0.00491
C 17.20952 29.79675 0.03338
C 17.18626 28.31887 -0.0258
C 18.3823 27.54776 -0.0331
C 17.0525 25.49141 0.02188
C 15.95961 27.69392 0.01443
C 20.89104 23.41491 0.00654
C 19.74402 21.3389 -0.04076
C 22.14331 19.83567 -0.01185
C 23.31494 19.03794 0.01126
C 23.389 17.63763 0.01852
C 23.03859 8.49306 -0.00381
C 22.09503 7.37415 0.03046
C 23.24003 6.34909 0.0296
C 23.36552 4.97548 0.03374
C 22.1712 4.24789 -0.02845
C 22.0674 2.88344 -0.03213
C 23.28407 2.24229 0.02239
C 23.3288 0.71393 0.01153
C 21.97549 0.01839 0.02734
C 24.44143 32.67895 -0.0055
C 25.76827 31.97633 0.01515
C 25.76186 30.56065 -0.00225
C 22.20159 21.23971 -0.01662
C 21.0097 21.91745 -0.00703
C 23.44162 21.98993 -0.00478
C 22.09874 24.05853 0.00199
C 21.18281 6.54338 -0.00652
C 21.00279 5.23195 0.0058
C 19.74779 4.50858 -0.00865
C 19.63627 3.01933 0.00675
C 20.83176 2.21523 -0.00311
C 20.73879 0.74146 0.00742
C 19.5727 0.05678 -0.01594
C 22.0571 32.70289 0.0106
C 23.25376 31.91849 -0.01154
C 23.23204 30.53873 -0.01721
C 21.99805 29.78371 -0.02422
C 21.99639 28.31014 0.01277
C 23.23909 27.62059 0.00096
C 23.21422 26.25332 -0.01527
C 22.04593 25.5257 0.01087
C 23.36082 23.40401 0.01511
C 24.52115 29.83425 0.00071
C 14.67938 28.34686 0.00979
C 15.99766 30.47239 0.00889
C 2.37604 0.07197 -0.01275
C 4.9126 32.63883 0.00985
C 6.06491 31.87782 -0.02245
C 6.07998 30.25294 -0.00428
C 4.77639 29.79671 0.03101
C 4.8714 12.66114 -0.01536
C 4.92824 11.39254 -0.02689
C 6.25505 9.09926 -0.01046
C 4.94831 8.52548 -0.00891
C 4.81315 7.11937 0.02819
C 6.04254 6.36782 0.00165
C 6.0123 4.96362 -0.02971
C 4.84885 4.21025 0.02894
C 4.84699 2.82416 -0.01789
C 6.08788 2.02838 0.00444
C 3.59159 0.72348 -0.01111
C 6.1129 0.64225 -0.00925
C 3.64041 2.16472 0.02841
C 2.41041 4.28556 0.00406
C 3.65725 30.55732 0.00093
C 2.43025 29.81556 0.00057
C 2.43981 28.44775 -0.01634
C 2.13977 17.30939 -0.00334
C 2.57642 15.89264 0.02339
C 3.80281 15.06044 0.01641
C 3.87681 13.63507 -0.00719
C 2.48303 12.89144 0.01364
C 2.49757 11.51823 -0.01062
C 3.68825 10.74722 -0.00033
C 3.70257 9.26839 0.03589
C 2.45007 8.59843 -0.02759
C 2.32943 7.1369 0.0402
C 3.5928 6.42667 0.00572
C 3.56082 5.01785 0.03592
C 2.36315 2.82129 0.00943
C 14.70496 29.79934 -0.00481
C 4.88353 34.04656 0.01877
C 8.68341 31.86267 -0.02162
C 9.84274 34.02163 0.02058
C 12.34245 32.74757 -0.01957
C 13.66362 32.12611 -0.0108
C 13.63873 30.61985 -0.00368
C 12.29 29.84589 -0.02696
C 12.73859 28.46132 -0.00114
C 13.56702 27.42277 0.00228
C 13.49576 4.98286 0.00798
C 12.19614 4.48019 0.00422
C 12.16244 2.88938 0.0351
C 13.45052 2.21296 -0.03113
C 13.48845 0.77127 0.02098
C 12.28996 0.09043 0.01848
C 14.88707 32.76011 -0.00619
C 16.04136 31.98572 -0.02162
C 10.97175 0.79705 0.01965
C 7.404 32.59641 0.01363
C 11.00996 2.17907 -0.03682
C 9.88009 4.30065 0.00374
C 8.60477 30.28323 0.00415
C 7.30972 29.75976 -0.0014
C 7.36197 6.98058 0.02162
C 8.36925 6.34388 0.0076
C 8.6554 4.9499 0.01241
C 7.30361 4.23398 -0.01454
C 7.31265 2.83692 0.01945
C 8.47201 2.08256 0.01416
C 8.54575 0.6675 0.03542
C 7.3552 34.05839 0.02299
C 9.91165 32.64505 0.00244
C 11.15155 31.91903 -0.01717
C 11.03897 30.4927 0.05265
C 9.86818 29.69177 -0.01952
C 10.94746 5.13063 -0.02813
C 9.68415 2.84133 0.00052
C 24.48414 28.36866 -0.01107
C 25.7672 27.70236 -0.01586
C 25.77778 26.28503 -0.01971
C 31.86663 25.59515 0.01574
C 31.84761 24.20014 -0.02383
C 33.04324 23.47729 -0.01429
C 33.10774 22.12319 -0.0136
C 31.83299 21.37477 0.00594
C 31.86675 19.9705 -0.02474
C 33.1006 19.27367 0.00369
C 33.05417 17.85491 0.00455
C 31.90093 17.12613 -0.00644
C 31.91103 15.63114 -0.01839
C 33.16203 14.97458 0.00137
C 33.17979 13.53454 0.00199
C 31.96261 12.85067 0.04381
C 31.89283 11.41671 0.02806
C 33.12522 10.76394 0.01504
C 33.15775 26.2238 0.01927
C 33.17002 9.3137 -0.00069
C 33.11095 27.73387 0.03794
C 31.87167 29.82043 0.00682
C 29.43871 11.38145 -0.00971
C 30.68337 10.68704 0.01518
C 30.64038 9.31552 0.01908
C 29.39684 8.55756 0.07705
C 29.34442 7.15534 0.0103
C 30.64386 6.45236 0.02108
C 30.71443 5.06004 0.00716
C 29.51779 4.31631 0.00307
C 29.50322 2.93107 0.00346
C 30.69713 2.23616 0.01713
C 30.61196 0.86057 -0.01694
C 29.40141 0.04726 0.01428
C 31.82422 32.7658 -0.02142
C 33.0941 31.99172 0.0544
C 33.10701 30.5944 0.00026
C 31.87284 28.44347 -0.01779
C 29.51891 12.8204 -0.03735
C 31.86793 8.60408 0.04926
C 33.13682 6.46761 0.00349
C 34.37317 15.75388 0.02114
C 1.22011 15.12092 -0.02957
C 1.25826 13.67056 0.00343
C 34.38229 12.8379 -0.02656
C 34.38718 11.47619 -0.02442
C 1.24914 10.74059 -0.00027
C 1.22183 9.26178 -0.00583
C 0.00745 8.57481 -0.02302
C 34.38695 7.13865 -0.02849
C 1.11629 6.39184 0.02931
C 1.23211 4.9506 0.00628
C 34.40716 4.28595 -0.0345
C 0.00556 2.89605 -0.00931
C 1.12664 2.21596 -0.00939
C 1.15262 0.77968 -0.00468
C 34.30775 17.18728 0.00648
C 31.92119 7.13385 -0.03838
C 1.1752 17.95703 0.01223
C 34.21167 21.21574 0.01951
C 33.27826 5.06933 -0.00323
C 32.03276 4.41633 -0.00841
C 31.95401 2.99322 0.0001
C 33.1715 2.18529 -0.02927
C 33.11062 0.77493 -0.01404
C 31.84317 0.07597 0.01027
C 34.38068 32.7496 0.01831
C 1.21689 31.97762 -0.01037
C 1.19817 30.56018 -0.00439
C 34.40246 29.87968 -0.00598
C 34.34582 28.52625 -0.05239
C 1.23941 27.71896 0.03076
C 1.07043 26.37294 0.00723
C 0.04015 25.52693 0.02712
C 34.19155 24.14227 -0.02213
C 34.29662 20.04129 -0.01678
C 30.79357 13.52755 -0.00944
C 30.71842 14.90643 -0.02155
C 29.46316 15.64993 -0.01461
C 25.80071 4.95398 -0.0264
C 24.62395 4.2928 -0.01154
C 24.48667 2.87264 0.00684
C 25.77379 2.16749 -0.01052
C 25.75115 0.72318 -0.01679
C 24.49712 34.07769 0.00367
C 26.97431 32.78568 0.04306
C 28.17395 32.09551 0.00996
C 28.21326 30.60495 0.00195
C 27.04331 29.84642 -0.00802
C 27.02564 28.47298 -0.00218
C 28.2642 27.81393 -0.01654
C 28.16167 26.30094 -0.00037
C 26.99315 25.53904 -0.0032
C 26.97126 24.1176 0.00622
C 25.76348 6.37504 -0.00938
C 28.19021 23.4607 -0.02815
C 24.45914 6.96892 -0.00229
C 25.59649 9.19688 -0.009
C 24.46096 25.60203 -0.02118
C 24.6133 24.14911 0.00733
C 25.81543 23.36691 -0.00178
C 25.89648 22.01822 0.00768
C 24.63176 21.29444 -0.0276
C 24.5996 19.744 0.03005
C 25.77538 19.06149 -0.04078
C 25.75461 17.6584 0.02117
C 24.44539 16.89599 0.02737
C 24.52781 15.53636 -0.00498
C 25.84475 14.8296 0.00135
C 25.8214 13.50653 0.03102
C 24.62134 12.67064 0.02555
C 24.51102 11.45787 0.01423
C 25.67669 10.61307 -0.00285
C 24.45348 8.3391 -0.01199
C 28.2223 22.07725 -0.00942
C 27.06605 21.28813 0.00487
C 26.99065 19.87403 0.00826
C 30.61362 31.92465 0.00924
C 30.70794 30.53899 0.02326
C 29.50905 29.89193 0.00261
C 29.51013 28.46613 0.03265
C 30.75389 27.72371 -0.02049
C 30.5993 26.374 -0.01854
C 29.39663 25.6884 -0.01415
C 29.39995 24.20277 -0.03039
C 30.62488 23.50067 0.01836
C 30.60702 22.07515 0.03531
C 29.45253 21.33078 -0.00669
C 29.39273 19.86611 0.0101
C 30.64529 19.21185 0.01705
C 30.62011 17.7472 -0.0405
C 29.35377 17.04267 -0.01303
C 29.36007 32.69873 0.0014
C 26.91562 0.09086 0.01324
C 28.17874 0.77489 0.04266
C 28.2829 2.19812 0.01177
C 28.13327 19.18767 -0.00294
C 28.16819 17.74301 0.00152
C 26.99489 16.96484 0.01257
C 26.99611 15.65411 0.02316
C 28.2332 14.92326 0.04185
C 28.26595 13.53317 0.00194
C 27.02532 12.76282 -0.00621
C 3.63795 31.95652 0.01291
C 27.03814 11.36033 0.02611
C 28.1908 9.22466 0.01094
C 26.90487 8.51328 0.00235
C 26.99668 7.10408 0.01495
C 28.2535 6.40099 0.01259
C 28.2169 5.0132 0.01799
C 26.96257 4.26009 0.01699
C 27.05982 2.90092 -0.00416
C 28.23029 10.64656 0.02198
C 2.42415 32.66688 0.00438
