441
Graphene
C 0.07963 0.03991 0.01295
C 13.44583 19.25725 -0.01634
C 13.46148 17.78805 -0.00334
C 12.23592 17.12931 0.02339
C 12.23476 15.71901 0.01641
C 13.46569 14.91743 -0.00719
C 13.50655 13.4631 0.01364
C 12.34225 12.80951 -0.01062
C 12.30836 11.37688 -0.00033
C 13.54245 10.70501 0.03589
C 13.53183 9.23472 -0.02759
C 12.30816 8.52858 0.0402
C 12.33921 7.08741 0.00572
C 13.54556 6.41721 0.03592
C 13.51493 4.97018 0.00406
C 12.31375 4.16266 0.00943
C 12.29899 2.80325 0.02841
C 13.46176 2.02639 -0.01111
C 13.46095 0.67009 -0.01275
C 12.19727 33.98378 0.00985
C 14.76085 32.64997 -0.02245
C 15.95484 31.9215 -0.00428
C 15.97368 30.49707 0.03101
C 14.76985 29.76389 -0.01536
C 12.31716 19.9951 0.00057
C 12.29089 21.39907 0.00093
C 13.47508 22.05407 0.01291
C 13.56691 23.44912 0.00438
C 11.10403 14.93652 -0.00095
C 11.10403 13.56533 0.01572
C 9.83168 12.89577 -0.04848
C 9.90301 11.46254 -0.00892
C 11.07226 10.63273 -0.01362
C 11.04683 9.21375 -0.0008
C 9.82439 8.5744 0.0288
C 9.8093 7.21734 0.00393
C 11.11012 6.42794 0.00895
C 11.10303 4.97124 0.00685
C 9.84312 4.2838 0.02888
C 14.76312 28.40637 -0.02689
C 9.87833 2.84487 -0.00482
C 11.02104 0.68905 0.03693
C 9.76538 0.0035 0.01745
C 12.17739 32.58526 0.00488
C 13.49526 31.91286 -0.01004
C 13.49787 30.50427 -0.02896
C 12.21403 29.91461 -0.00131
C 12.32233 28.4443 -0.01118
C 13.50113 27.7607 -0.014
C 13.51847 26.36373 0.02147
C 12.31881 25.61703 0.00373
C 12.26459 24.19048 -0.00191
C 11.07012 2.07697 -0.01384
C 9.86765 15.63322 0.03007
C 16.00212 27.72281 -0.01046
C 14.7824 25.60341 0.02819
C 17.21188 28.36017 0.02058
C 18.44021 27.7009 -0.01957
C 18.46524 26.25987 -0.0108
C 17.1687 25.55213 -0.00368
C 17.22797 24.11573 -0.02696
C 18.43342 23.38577 -0.00114
C 18.43104 22.01446 0.00228
C 17.19545 21.25151 0.00798
C 17.15689 19.87806 0.00422
C 18.43718 19.15838 0.0351
C 18.34702 17.75724 -0.03113
C 17.13802 17.08335 0.02098
C 17.22048 15.63928 0.01848
C 18.41684 14.92602 -0.00619
C 18.38333 13.54014 -0.02162
C 17.19009 12.80636 0.00889
C 17.19478 11.3995 -0.00481
C 18.4453 10.63743 0.00979
C 18.43826 9.23815 0.01443
C 17.18465 8.52371 0.03505
C 17.20104 7.13133 -0.02815
C 18.39854 6.35898 -0.04147
C 18.38822 4.95855 -0.05302
C 17.18809 29.84819 0.01965
C 18.46806 30.54974 -0.03682
C 18.39847 31.97295 0.00052
C 17.18938 32.62641 0.00374
C 14.78705 24.19356 0.00165
C 16.0195 23.43844 -0.02971
C 16.00213 21.97082 0.02894
C 14.77087 21.31438 -0.01789
C 14.70102 19.87029 0.00444
C 15.93421 19.17446 -0.00925
C 15.92178 17.76452 0.01877
C 14.6855 17.06839 0.01363
C 14.69939 15.5774 -0.02162
C 15.94267 14.92568 0.00415
C 15.94683 13.46394 -0.0014
C 15.99698 26.28705 -0.00891
C 14.72504 12.73173 0.02162
C 15.9669 10.70896 0.01241
C 16.00287 9.26751 -0.01454
C 14.78719 8.48808 0.01945
C 14.81098 7.09063 0.01416
C 16.03582 6.38375 0.03542
C 15.99478 4.94063 0.02299
C 14.69348 4.21208 0.00244
C 14.66304 2.79073 -0.01717
C 15.93007 2.10455 0.05265
C 15.905 0.74774 -0.01952
C 14.77913 34.04908 -0.02813
C 14.76745 11.35939 0.0076
C 9.86236 17.14868 0.00054
C 11.04888 17.86317 -0.00494
C 11.06949 19.29865 -0.00562
C 3.703 0.74836 -0.00177
C 2.53314 0.01973 0.04421
C 4.9065 32.65626 0.00088
C 6.09314 31.95418 0.00828
C 6.07774 30.52997 -0.02375
C 4.93828 29.77488 0.00558
C 4.93225 28.40262 -0.0059
C 6.17909 27.68963 -0.01386
C 6.18544 26.30382 -0.02805
C 4.95543 25.5946 0.00081
C 4.89721 24.135 0.00245
C 6.15606 23.4793 0.02728
C 6.17327 22.06169 -0.00039
C 4.93199 21.27197 0.0064
C 4.89196 19.80747 0.00211
C 6.11482 19.17317 -0.00449
C 6.11364 17.77679 -0.01979
C 4.85619 17.05248 0.02784
C 4.84661 15.6451 -0.01977
C 6.12023 14.88876 -0.00561
C 6.1297 13.52461 0.00208
C 4.89608 12.81278 0.01707
C 4.84937 11.46693 0.02769
C 3.74793 2.1909 0.03278
C 2.44605 2.88129 0.01138
C 2.53111 4.2959 -0.00407
C 3.70008 5.01137 -0.01299
C 3.70645 30.47134 -0.0213
C 2.49213 29.79191 0.01116
C 2.44204 28.34641 -0.0005
C 3.6929 27.70536 -0.00018
C 3.64194 26.30925 0.01073
C 2.37164 25.57615 0.01984
C 2.42176 24.17973 0.00535
C 3.6333 23.42536 -0.00198
C 3.68072 22.03125 -0.00012
C 2.44162 21.28727 -0.04306
C 2.42774 19.93786 -0.03672
C 6.15032 10.72033 -0.03291
C 3.58949 19.1886 0.01913
C 2.34537 17.0161 0.00787
C 2.35256 15.56453 0.02426
C 3.64547 14.90452 0.01218
C 3.67989 13.467 -0.01471
C 2.47203 12.76553 -0.02827
C 2.48124 11.34415 0.01078
C 3.66408 10.63447 -0.00112
C 3.64515 9.25002 0.03345
C 2.48479 8.48414 0.00748
C 2.5048 7.11451 0.00662
C 3.6905 6.43599 -0.0154
C 3.62004 17.73677 0.00267
C 6.16147 9.29512 -0.04999
C 4.8766 8.61066 0.04505
C 4.92332 7.1836 0.03284
C 8.56939 10.74557 0.02322
C 8.62528 9.28311 -0.00725
C 7.39429 8.58861 -0.05697
C 7.42624 7.19565 0.01087
C 8.59957 6.46233 -0.01343
C 8.62478 5.06418 0.00988
C 7.39098 4.34981 0.0276
C 7.43125 2.92424 0.01305
C 8.63713 2.19624 -0.00077
C 8.57904 0.76963 0.03368
C 7.3402 0.01965 -0.02929
C 7.33815 11.483 -0.00094
C 9.75812 32.6952 -0.00966
C 10.94415 30.58513 0.01227
C 9.76179 29.91671 0.00873
C 9.79917 28.45386 -0.00049
C 11.05185 27.77546 0.00848
C 11.11562 26.32081 -0.01303
C 9.84341 25.62061 -0.01378
C 9.8511 24.16586 0.02635
C 11.04891 23.49051 0.0127
C 11.01952 22.06341 0.01396
C 9.81731 21.37983 0.01849
C 9.79467 19.92872 -0.01142
C 10.95792 31.94038 -0.03337
C 17.15929 4.20909 0.00213
C 7.33336 12.87256 -0.02566
C 8.62184 14.92039 0.017
C 6.19084 6.49775 -0.04307
C 6.17907 5.03304 0.03189
C 4.95813 4.33995 0.00031
C 4.96411 2.92654 -0.003
C 6.17513 2.17008 0.01402
C 6.09585 0.7357 0.02379
C 4.88871 0.03226 0.00907
C 7.2847 32.7071 0.00643
C 8.4465 31.99656 -0.01509
C 8.51799 30.52988 0.03267
C 7.3575 29.79085 0.02374
C 8.59838 13.50942 -0.03113
C 7.39484 28.34997 0.00402
C 8.62656 26.27012 0.0174
C 7.418 25.57265 0.03828
C 7.45208 24.14606 0.01226
C 8.57303 23.50103 -0.00279
C 8.58212 22.05379 0.01996
C 7.38163 21.29609 -0.03996
C 7.33307 19.85158 0.01465
C 8.54212 19.15264 -0.00074
C 8.57277 17.78676 -0.00518
C 7.36285 17.0682 0.0086
C 7.39945 15.62166 -0.00643
C 8.58975 27.7095 0.0073
C 3.69505 31.95028 -0.00374
C 17.121 2.82305 -0.00066
C 18.38907 0.72783 0.00028
C 30.69552 14.80354 -0.0405
C 30.75545 13.39503 -0.01303
C 29.48442 12.73816 -0.01461
C 29.49465 11.37061 -0.02155
C 30.7066 10.58375 -0.00944
C 30.71035 9.22196 -0.03735
C 29.39026 8.38029 -0.00971
C 29.56432 6.95998 0.01518
C 30.82015 6.28309 0.01908
C 30.71555 4.8994 0.07705
C 29.34528 4.21949 0.0103
C 29.45897 2.85712 0.02108
C 30.7178 2.10036 0.00716
C 30.7619 0.69975 0.00307
C 29.54277 0.01231 0.00346
C 31.96212 32.66019 0.01713
C 33.29794 32.01829 -0.01694
C 33.2372 30.5777 0.01428
C 31.97279 29.87421 -0.02142
C 31.94085 28.48051 0.0544
C 33.17961 27.81582 0.00026
C 33.16057 26.33019 0.00682
C 31.94138 25.60079 -0.01779
C 29.48954 15.6176 0.01705
C 29.45227 17.03606 0.0101
C 30.72685 17.74118 -0.00669
C 30.66261 19.16357 0.03531
C 28.25144 13.46022 0.00194
C 27.02205 12.80035 -0.00621
C 26.99317 11.3618 0.02611
C 28.23139 10.67 0.02198
C 28.27187 9.20459 0.01094
C 28.12306 4.89761 0.00235
C 26.78419 4.22819 0.01495
C 27.05384 2.88643 0.01259
C 28.24718 2.14683 0.01799
C 28.28915 0.70674 0.01699
C 27.02379 34.05799 -0.00416
C 31.90609 24.16071 0.03794
C 29.48262 32.67114 0.01177
C 30.73249 30.5959 0.01324
C 29.5362 29.83178 0.0014
C 29.46255 28.39327 0.00924
C 30.72283 27.74018 0.02326
C 30.68169 26.36656 0.00261
C 29.49877 25.62743 0.03265
C 29.48934 24.14314 -0.02049
C 30.68868 23.45035 -0.01854
C 30.66287 22.03321 -0.01415
C 29.47537 21.36165 -0.03039
C 29.5238 19.9049 0.01836
C 30.7917 31.96743 0.04266
C 28.26474 14.86554 0.04185
C 33.1377 23.38487 0.01927
C 31.96042 21.312 -0.02383
C 34.35442 24.09279 0.03076
C 1.22567 23.43267 0.00723
C 1.19461 22.01778 0.02712
C 34.39811 21.32947 -0.02213
C 34.3528 19.85274 0.01951
C 1.23702 19.14951 -0.01678
C 1.08839 17.63497 0.01223
C 34.31544 16.9074 0.00648
C 34.35733 15.55704 0.02114
C 1.16845 14.83261 -0.02957
C 1.22355 13.43765 0.00343
C 0.00962 12.65546 -0.02656
C 0.05395 11.30237 -0.02442
C 1.27225 10.59499 -0.00027
C 1.25607 9.13814 -0.00583
C 0.06705 8.41934 -0.02302
C 0.06927 7.03335 -0.02849
C 1.30817 6.37903 0.02931
C 1.26648 4.97441 0.00628
C 0.02343 4.20065 -0.0345
C 0.05195 2.81293 -0.00931
C 1.26913 2.12782 -0.00939
C 1.35116 0.71202 -0.00468
C 34.40438 25.59918 -0.05239
C 1.17174 26.28803 -0.00598
C 1.16069 27.6506 -0.00439
C 34.4162 28.50006 -0.01037
C 31.87537 19.87396 -0.01429
C 33.10355 19.10194 -0.0136
C 33.08208 17.67643 0.00594
C 31.90124 17.00838 -0.02474
C 31.88174 15.53628 0.00369
C 33.15489 14.85585 0.00455
C 33.20899 13.43038 -0.00644
C 31.92685 12.6805 -0.01839
C 31.95451 11.24736 0.00137
C 33.23268 10.59216 0.00199
C 33.2567 9.15935 0.04381
C 33.16755 22.0106 0.01574
C 32.05329 8.40592 0.02806
C 33.25139 6.31443 -0.00069
C 33.1698 4.88952 0.04926
C 31.94168 4.1538 -0.03838
C 32.01139 2.76801 0.00349
C 33.24651 2.10649 -0.00323
C 33.21891 0.6976 -0.00841
C 31.99627 0.04685 0.0001
C 0.06099 32.70786 -0.02927
C 1.26619 31.98448 -0.01404
C 1.26514 30.51092 0.01027
C 0.01147 29.8608 0.01831
C 32.02128 7.00189 0.01504
C 27.02296 15.68784 0.02316
C 26.99313 17.13902 0.01257
C 28.25166 17.74283 0.00152
C 19.60083 4.16108 -0.00703
C 19.59021 2.792 -0.04076
C 20.89382 2.19005 -0.00652
C 20.89837 0.72728 0.0058
C 19.59471 34.06983 -0.00865
C 22.08945 32.71085 0.00675
C 23.30308 32.01355 -0.00311
C 23.3707 30.60192 0.00742
C 22.1307 29.86475 -0.01594
C 22.13378 28.41157 0.0106
C 23.33381 27.70396 -0.01154
C 23.39815 26.24806 -0.01721
C 22.18206 25.51908 -0.02422
C 22.17069 24.1208 0.01277
C 23.35855 23.44443 0.00096
C 23.33269 22.05087 -0.01527
C 22.13919 21.35134 0.01087
C 22.09972 19.97275 0.00199
C 23.20435 19.19055 0.01511
C 23.33153 17.79441 -0.00478
C 22.06901 17.06494 -0.01662
C 22.06254 15.60604 -0.01185
C 23.33542 14.94187 0.01126
C 20.96186 4.96708 0.00654
C 20.92416 6.37764 -0.04422
C 19.62382 7.01305 -0.02957
C 19.63893 8.43662 -0.00831
C 17.11914 34.07264 -0.02213
C 19.66991 32.6812 0.03698
C 20.86584 31.95268 -0.00109
C 20.85882 30.60065 -0.00491
C 19.662 29.81124 0.03338
C 19.73167 28.41552 -0.0258
C 20.93095 27.66643 -0.0331
C 20.99089 26.2904 -0.00316
C 19.72192 25.52238 0.02188
C 19.6712 24.0671 -0.01979
C 20.88962 23.42696 0.02691
C 23.27704 13.51446 0.01852
C 20.92646 22.03129 -0.01581
C 19.64301 19.87934 0.04892
C 20.89302 19.27685 -0.00111
C 20.794 17.76614 -0.03557
C 19.58209 17.08107 0.03754
C 19.57425 15.62163 0.01739
C 20.80933 14.93493 0.00755
C 20.88258 13.49109 -0.0054
C 19.61659 12.84392 0.00667
C 19.67382 11.38329 0.00143
C 20.84908 10.62016 -0.017
C 20.90149 9.22217 0.00364
C 19.65495 21.31973 0.01452
C 22.1062 12.76713 -0.00381
C 22.08884 11.30908 0.03046
C 23.3603 10.66103 0.0296
C 25.77345 13.50711 -0.009
C 24.55002 12.76619 -0.01199
C 24.52335 11.41138 -0.00229
C 25.79941 10.596 -0.00938
C 25.83033 9.11846 -0.0264
C 24.85362 4.24996 -0.01154
C 24.62248 2.82605 0.00684
C 25.8312 2.10826 -0.01052
C 25.85327 0.71258 -0.01679
C 24.59229 0.00805 0.00367
C 27.07377 32.63137 0.04306
C 25.79654 14.93184 -0.00285
C 28.26425 31.92845 0.00996
C 27.02629 29.79584 -0.00802
C 27.05632 28.42425 -0.00218
C 28.23506 27.65586 -0.01654
C 28.23318 26.2199 -0.00037
C 27.03111 25.56129 -0.0032
C 27.02306 24.16416 0.00622
C 28.2379 23.46515 -0.02815
C 28.26359 22.09281 -0.00942
C 27.06518 21.28472 0.00487
C 27.053 19.83197 0.00826
C 28.3244 19.14236 -0.00294
C 28.27056 30.51 0.00195
C 18.33248 2.13341 -0.00289
C 24.48008 15.68619 0.01423
C 25.73715 17.72537 0.03102
C 23.41588 9.19871 0.03374
C 22.1714 8.47214 -0.02845
C 22.09178 7.08347 -0.03213
C 23.24481 6.3623 0.02239
C 23.61371 4.98348 0.01153
C 22.26366 4.28779 0.02734
C 22.13552 2.88327 -0.0055
C 23.3715 2.1541 0.01515
C 23.39389 0.71085 -0.00225
C 22.12118 0.08212 0.00071
C 24.6087 32.63884 -0.01107
C 24.5027 17.01081 0.02555
C 25.8034 31.91714 -0.01586
C 24.57448 29.8541 -0.02118
C 24.54771 28.46544 0.00733
C 25.80871 27.69107 -0.00178
C 25.74772 26.29691 0.00768
C 24.59279 25.55552 -0.0276
C 24.69905 24.16673 0.03005
C 25.81015 23.38708 -0.04078
C 25.82918 22.00549 0.02117
C 24.58208 21.25019 0.02737
C 24.55494 19.8346 -0.00498
C 25.78189 19.1271 0.00135
C 25.79018 30.54379 -0.01971
C 2.48276 32.66029 -0.00141
