395
Graphene
C 34.38159 34.0039 0.01295
C 16.02219 26.30894 0.00444
C 14.71807 25.59783 -0.00925
C 14.87915 24.13653 0.01877
C 15.9614 23.43028 0.01363
C 14.65592 11.31384 -0.02162
C 15.90625 10.63563 0.00415
C 15.90772 9.24528 -0.0014
C 14.76146 8.62158 0.02162
C 14.71471 7.07612 0.0076
C 15.94857 27.74717 -0.01789
C 15.96922 6.36512 0.01241
C 14.75707 4.21372 0.01945
C 14.75166 2.81964 0.01416
C 16.05561 2.05249 0.03542
C 16.05098 0.6782 0.02299
C 14.7411 0.02181 0.00244
C 17.24283 32.59716 -0.01717
C 18.45964 31.97388 0.05265
C 18.47258 30.57676 -0.01952
C 17.27348 29.78829 -0.02813
C 15.96658 4.91573 -0.01454
C 14.77448 28.44293 0.02894
C 14.83261 29.86974 -0.02971
C 16.02268 30.57934 0.00165
C 13.43427 31.98778 -0.01062
C 13.58441 30.50862 -0.00033
C 12.26079 29.89859 0.03589
C 12.26739 28.4709 -0.02759
C 13.52793 27.75974 0.0402
C 13.56492 26.32048 0.00572
C 12.295 25.62985 0.03592
C 12.27855 24.23401 0.00406
C 13.45515 10.65283 0.00943
C 13.53178 9.3192 0.02841
C 12.32972 8.53637 -0.01111
C 12.35781 7.18164 -0.01275
C 13.57718 6.42004 0.00985
C 13.57138 4.95619 -0.02245
C 12.23588 4.20146 -0.00428
C 12.21083 2.87674 0.03101
C 13.4665 2.16218 -0.01536
C 13.41138 0.76831 -0.02689
C 12.26869 0.07886 -0.01046
C 14.7146 32.70751 -0.00891
C 15.96718 32.00707 0.02819
C 17.2597 28.38546 0.00374
C 18.41699 27.70474 0.00052
C 18.43752 26.27849 -0.03682
C 17.17556 25.52137 0.01965
C 19.67492 28.42686 -0.00289
C 20.93578 27.7745 0.00028
C 20.90019 26.2788 -0.02213
C 19.65654 25.61405 0.03698
C 19.59525 24.18566 -0.00109
C 20.8425 23.44272 -0.00491
C 20.82881 22.09116 0.03338
C 19.62567 21.30358 -0.0258
C 19.74656 19.94127 -0.0331
C 20.86362 19.17252 -0.00316
C 20.89023 17.71003 0.02188
C 19.66206 16.971 -0.01979
C 19.66671 15.55138 0.02691
C 20.88787 14.86061 -0.01581
C 20.77475 13.50262 0.01452
C 19.47871 12.89564 0.04892
C 19.56396 11.43289 -0.00111
C 20.81138 10.68471 -0.03557
C 20.74472 9.24305 0.03754
C 19.52593 8.53875 0.01739
C 19.58603 7.10587 0.00755
C 19.67923 29.87957 -0.00066
C 12.25152 32.7471 0.01364
C 20.99203 30.53569 0.00213
C 19.7659 32.62311 -0.04147
C 17.21185 24.07628 0.02058
C 18.40801 23.395 -0.01957
C 18.39157 21.96059 -0.0108
C 17.18705 21.22037 -0.00368
C 18.47012 19.18128 -0.02696
C 18.59537 17.95857 -0.00114
C 18.40215 14.96766 0.00228
C 18.18044 13.57016 0.00798
C 17.0158 12.75176 0.00422
C 17.06979 11.30775 0.0351
C 18.30489 10.70532 -0.03113
C 18.29521 9.25368 0.02098
C 17.12843 8.51257 0.01848
C 17.09155 7.1013 -0.00619
C 18.35829 6.374 -0.02162
C 18.45366 4.99249 0.00889
C 17.26956 4.24238 -0.00481
C 17.20958 2.81473 0.00979
C 18.49295 2.07366 0.01443
C 18.46467 0.6712 0.03505
C 17.24611 34.04023 -0.02815
C 21.00393 31.88951 -0.05302
C 20.82284 6.38567 -0.0054
C 9.77713 0.08801 -0.00719
C 11.00743 2.18774 0.02339
C 2.37722 4.23879 -0.00279
C 2.35502 2.85079 0.01996
C 3.64743 2.16034 -0.03996
C 3.57874 0.71276 0.01465
C 2.41621 0.01623 -0.00074
C 4.83621 32.72753 -0.00518
C 6.11158 31.98726 0.0086
C 6.08948 30.61215 -0.00643
C 4.89074 29.75857 0.017
C 3.58835 4.98467 0.01226
C 4.85992 28.37077 -0.03113
C 6.04844 26.37111 -0.00094
C 4.8254 25.56865 0.02322
C 4.92462 24.1371 -0.00725
C 6.18287 23.51268 -0.05697
C 6.32733 22.02229 0.01087
C 5.0858 21.28815 -0.01343
C 4.78995 19.83816 0.00988
C 4.82048 15.80571 0.0276
C 4.94979 12.81691 0.01305
C 6.10183 27.71065 -0.02566
C 3.6311 6.49192 0.03828
C 2.43526 7.14831 0.0174
C 2.45786 8.53888 0.0073
C 3.65255 30.54881 -0.01977
C 2.48489 29.84163 -0.00561
C 2.38456 28.42076 0.00208
C 3.64737 27.73443 0.01707
C 3.54655 26.27155 0.02769
C 2.42582 25.57641 -0.03291
C 2.41601 24.08801 -0.04999
C 3.71266 23.43352 0.04505
C 3.82886 22.04736 0.03284
C 2.568 21.24225 -0.04307
C 2.56383 19.86679 0.03189
C 3.75577 18.95461 0.00031
C 3.80525 17.48698 -0.003
C 2.42533 16.94198 0.01402
C 2.4769 15.55225 0.02379
C 3.71421 14.94638 0.00907
C 3.76087 13.56115 0.00643
C 2.4817 12.78127 -0.01509
C 2.4795 11.36901 0.03267
C 3.67801 10.67542 0.02374
C 3.61986 9.27594 0.00402
C 4.86654 11.37917 -0.00077
C 6.14823 10.69528 0.03368
C 6.19405 9.33343 -0.02929
C 4.89761 8.57588 -0.00966
C 7.29337 2.93648 0.00685
C 8.50311 2.31979 0.02888
C 8.49037 0.84001 -0.00482
C 7.2769 0.11267 -0.01384
C 9.80802 32.69216 0.03693
C 11.02192 32.04497 0.01745
C 11.05315 30.56867 0.00488
C 9.80467 29.87123 -0.01004
C 9.80186 28.48812 -0.02896
C 11.07329 27.80066 -0.00131
C 11.04055 26.36952 -0.01118
C 9.80115 25.60891 -0.014
C 9.98782 24.2493 0.02147
C 11.15408 10.73692 0.00373
C 11.09049 9.37822 -0.00191
C 9.91872 8.58121 0.00438
C 9.85585 7.22338 0.01291
C 11.10469 6.45152 0.00093
C 11.09349 5.0059 0.00057
C 9.78274 4.33228 -0.01634
C 9.80238 2.90881 -0.00334
C 7.32523 4.32831 0.00895
C 10.9791 0.76145 0.01641
C 8.60466 5.04133 0.00393
C 7.36598 7.15156 -0.0008
C 4.87955 7.19332 -0.03337
C 6.09045 6.47016 0.01227
C 6.0542 5.01973 0.00873
C 4.84144 4.2942 -0.00049
C 4.8292 2.89355 0.00848
C 6.07333 2.26504 -0.01303
C 5.99883 0.75953 -0.01378
C 4.81973 34.07634 0.02635
C 7.33616 32.74351 0.0127
C 8.60087 31.91308 0.01396
C 8.6368 30.53164 0.01849
C 7.33505 29.84833 -0.01142
C 7.35889 28.4953 -0.00562
C 8.5368 27.73741 -0.00494
C 8.55986 26.35598 0.00054
C 7.24361 25.6789 0.03007
C 7.34826 24.25999 -0.00095
C 7.43259 11.34042 0.01572
C 8.54461 10.70933 -0.04848
C 8.60374 9.2515 -0.00892
C 7.28239 8.55704 -0.01362
C 8.59281 6.50247 0.0288
C 3.62856 31.924 0.02784
C 20.85133 4.9652 0.00667
C 19.69311 2.81291 -0.017
C 30.72413 6.34037 0.01908
C 30.74237 4.9835 0.07705
C 29.47372 4.27219 0.0103
C 29.52439 2.85031 0.02108
C 30.70443 2.07281 0.00716
C 30.70448 0.70086 0.00307
C 29.50644 0.00731 0.00346
C 31.93869 32.64903 0.01713
C 33.19333 31.92236 -0.01694
C 29.44046 7.05974 0.01518
C 33.19736 30.54827 0.01428
C 31.96779 28.40855 0.0544
C 33.1475 27.70888 0.00026
C 33.19873 26.25498 0.00682
C 32.02809 25.4736 -0.01779
C 31.98913 24.09322 0.03794
C 33.21219 23.39261 0.01927
C 33.24383 22.00963 0.01574
C 31.99528 21.26265 -0.02383
C 31.97575 19.85371 -0.01429
C 32.01141 29.77079 -0.02142
C 29.42135 8.50767 -0.00971
C 30.74162 9.26434 -0.03735
C 30.66277 10.69575 -0.00944
C 29.4831 32.67532 0.01177
C 30.73849 31.90318 0.04266
C 30.78617 30.56134 0.01324
C 29.54904 29.90213 0.0014
C 29.5975 28.39456 0.00924
C 30.79311 27.67598 0.02326
C 30.84464 26.26244 0.00261
C 29.60748 25.54729 0.03265
C 29.59232 24.08211 -0.02049
C 30.72346 23.36683 -0.01854
C 30.72884 21.94048 -0.01415
C 29.4632 21.30645 -0.03039
C 29.48242 19.90303 0.01836
C 30.65355 19.19491 0.03531
C 30.69422 17.80712 -0.00669
C 29.47546 17.12726 0.0101
C 29.44663 15.66102 0.01705
C 30.6776 14.93452 -0.0405
C 30.62434 13.49971 -0.01303
C 29.47271 12.77417 -0.01461
C 29.39941 11.36111 -0.02155
C 33.28059 19.21447 -0.0136
C 33.19416 17.78975 0.00594
C 31.89692 17.07491 -0.02474
C 31.86487 15.66358 0.00369
C 1.29222 21.95729 0.02712
C 0.03965 21.34826 -0.02213
C 0.02549 19.829 0.01951
C 1.28861 19.16925 -0.01678
C 1.21526 17.70229 0.01223
C 34.41935 17.03217 0.00648
C 34.39098 15.56743 0.02114
C 1.26572 14.93514 -0.02957
C 1.22687 13.47934 0.00343
C 34.37908 12.81749 -0.02656
C 34.42101 11.36119 -0.02442
C 1.22205 10.69875 -0.00027
C 1.15842 9.24427 -0.00583
C 34.38339 8.51836 -0.02302
C 0.01289 7.12081 -0.02849
C 1.19764 6.39088 0.02931
C 1.14858 5.00578 0.00628
C 0.00202 4.28974 -0.0345
C 34.36924 2.82928 -0.00931
C 1.12846 2.09444 -0.00939
C 1.1115 0.68264 -0.00468
C 1.22112 23.35962 0.00723
C 27.04486 0.07156 -0.00416
C 0.00043 24.15109 0.03076
C 1.20107 26.25177 -0.00598
C 33.13298 14.93221 0.00455
C 33.13819 13.47551 -0.00644
C 31.88268 12.79882 -0.01839
C 31.927 11.35266 0.00137
C 33.16009 10.66488 0.00199
C 33.15571 9.226 0.04381
C 31.93596 8.56616 0.02806
C 31.92129 7.01998 0.01504
C 33.18635 6.40073 -0.00069
C 33.17148 4.95914 0.04926
C 31.95053 4.27558 -0.03838
C 31.94777 2.81989 0.00349
C 33.0605 2.0914 -0.00323
C 33.1492 0.6825 -0.00841
C 31.96529 34.07768 0.0001
C 34.4004 32.54777 -0.02927
C 1.23736 31.96054 -0.01404
C 1.22997 30.4798 0.01027
C 34.42092 29.78491 0.01831
C 34.41663 28.38849 -0.01037
C 1.17985 27.69965 -0.00439
C 0.01143 25.52641 -0.05239
C 19.6592 4.18629 0.00143
C 28.22403 0.76117 0.01699
C 27.03974 2.83979 0.01259
C 23.25879 9.1682 -0.01662
C 21.99106 8.49118 -0.01185
C 22.02458 7.03395 0.01126
C 23.2709 6.40974 0.01852
C 23.26404 4.9797 -0.00381
C 22.05736 4.28116 0.03046
C 22.08189 2.81286 0.0296
C 23.35362 2.08744 0.03374
C 23.38579 0.67327 -0.02845
C 23.25635 10.58737 -0.00478
C 22.23104 34.0403 -0.03213
C 25.85587 31.99995 0.01153
C 25.9344 30.51245 0.02734
C 24.71943 29.75553 -0.0055
C 24.71774 28.36288 0.01515
C 25.91764 27.65241 -0.00225
C 25.90993 26.15331 0.00071
C 24.66466 25.54116 -0.01107
C 24.60381 24.19682 -0.01586
C 25.87067 23.42951 -0.01971
C 24.66506 32.66925 0.02239
C 22.04998 11.32939 0.01511
C 22.00752 12.78058 0.00199
C 23.30619 13.4407 0.01087
C 20.86259 2.04183 0.00364
C 20.91909 0.64547 -0.00831
C 19.58709 33.96983 -0.02957
C 22.17551 32.67302 -0.04422
C 23.41398 31.92126 0.00654
C 23.46632 30.47078 -0.00703
C 22.23738 29.75962 -0.04076
C 22.17205 28.40852 -0.00652
C 23.43003 27.66245 0.0058
C 23.41599 26.289 -0.00865
C 22.16614 25.60455 0.00675
C 22.10286 24.20758 -0.00311
C 23.35536 23.44522 0.00742
C 23.33585 22.04348 -0.01594
C 22.0313 21.33019 0.0106
C 22.06343 19.88883 -0.01154
C 23.32358 19.15387 -0.01721
C 23.34075 17.7463 -0.02422
C 22.08479 16.97135 0.01277
C 22.10275 15.62722 0.00096
C 23.32833 14.86065 -0.01527
C 25.84933 22.09508 -0.02118
C 24.52932 21.35752 0.00733
C 24.52431 19.94507 -0.00178
C 25.7368 19.15713 0.00768
C 27.12919 25.41409 -0.00218
C 27.07205 24.01371 -0.01654
C 28.4149 23.38651 -0.00037
C 28.33232 22.02509 -0.0032
C 26.96119 21.30589 0.00622
C 26.99729 19.84594 -0.02815
C 28.2863 19.1657 -0.00942
C 28.22098 17.77392 0.00487
C 27.03683 17.07039 0.00826
C 26.96949 15.6133 -0.00294
C 28.30169 14.93861 0.00152
C 28.27691 13.55061 0.01257
C 26.96432 12.78787 0.02316
C 26.91971 11.36631 0.04185
C 28.18357 10.63108 0.00194
C 28.21814 9.1813 -0.00621
C 26.98429 8.51498 0.02611
C 26.94501 7.07117 0.02198
C 28.20401 6.4047 0.01094
C 28.26198 4.99552 0.00235
C 27.06916 4.26196 0.01495
C 28.30293 26.2021 -0.00802
C 28.29562 2.20381 0.01799
C 28.35027 27.56834 0.00195
C 27.09712 29.74289 0.04306
C 25.76873 17.80949 -0.0276
C 24.56516 17.02936 0.03005
C 24.54922 15.56965 -0.04078
C 25.81513 14.91133 0.02117
C 25.72124 13.44623 0.02737
C 24.47683 12.7114 -0.00498
C 24.54277 11.25748 0.00135
C 25.73161 10.57212 0.03102
C 25.73888 9.11677 0.02555
C 24.46061 8.45408 0.01423
C 24.52313 7.06119 -0.00285
C 25.75859 6.33042 -0.009
C 25.76918 4.92371 -0.01199
C 24.52704 4.30632 -0.00229
C 24.55332 2.83367 -0.00938
C 25.80098 2.11944 -0.0264
C 25.87883 0.68071 -0.01154
C 24.6334 34.04578 0.00684
C 27.11089 32.65476 -0.01052
C 28.30246 31.93387 -0.01679
C 28.34166 30.54586 0.00367
C 27.20797 28.28495 0.00996
C 2.43893 32.65742 -0.01979
