360
Graphene
C 34.40898 34.07189 0.01295
C 17.10611 25.56199 0.02058
C 17.22072 24.12376 -0.01957
C 18.30686 23.37816 -0.0108
C 18.51496 22.07364 -0.00368
C 18.57847 19.17072 -0.02696
C 18.55232 17.8918 -0.00114
C 18.40751 14.86252 0.00228
C 18.22796 13.5364 0.00798
C 18.46538 26.238 0.01965
C 17.25092 12.58678 0.00422
C 18.50087 10.58286 -0.03113
C 18.47799 9.25639 0.02098
C 17.24368 8.56284 0.01848
C 17.2309 7.16309 -0.00619
C 18.51416 6.33741 -0.02162
C 18.40605 4.9236 0.00889
C 17.18408 4.23985 -0.00481
C 17.18382 2.79755 0.00979
C 17.2711 11.338 0.0351
C 18.42 27.57533 -0.03682
C 17.25047 28.3564 0.00052
C 17.23882 29.81824 0.00374
C 14.76855 29.89314 -0.00925
C 14.76039 28.51167 0.01877
C 15.89753 27.72838 0.01363
C 16.06533 26.42883 -0.02162
C 14.86685 11.31096 0.00415
C 16.02553 10.66985 -0.0014
C 16.00581 9.23861 0.02162
C 14.73669 8.58332 0.0076
C 14.71745 7.09383 0.01241
C 15.98608 6.44584 -0.01454
C 15.98302 5.0187 0.01945
C 14.76392 4.20605 0.01416
C 14.74617 2.85052 0.03542
C 15.92578 2.0706 0.02299
C 16.08204 0.63204 0.00244
C 14.80864 33.9989 -0.01717
C 17.18319 32.61179 0.05265
C 18.43524 31.92071 -0.01952
C 18.45277 30.52004 -0.02813
C 18.39287 2.091 0.01443
C 15.99986 30.44232 0.00444
C 18.45615 0.70658 0.03505
C 19.58871 32.70278 -0.04147
C 19.64248 7.19855 0.00755
C 20.85309 6.41129 -0.0054
C 20.78939 5.01121 0.00667
C 19.61303 4.23923 0.00143
C 19.58749 2.78485 -0.017
C 20.84386 2.00742 0.00364
C 20.94885 0.67105 -0.00831
C 19.74109 0.02155 -0.02957
C 19.70105 8.55359 0.01739
C 22.14983 32.59533 -0.04422
C 23.43829 30.52899 -0.00703
C 22.15143 29.89412 -0.04076
C 22.15737 28.38896 -0.00652
C 23.3823 27.6568 0.0058
C 23.32647 26.26072 -0.00865
C 22.12002 25.50662 0.00675
C 22.15181 24.08697 -0.00311
C 23.35204 23.40848 0.00742
C 23.42358 31.96156 0.00654
C 20.87979 9.23642 0.03754
C 20.87266 10.70521 -0.03557
C 19.66455 11.41185 -0.00111
C 20.88621 31.96221 -0.05302
C 20.9001 30.56987 0.00213
C 19.71372 29.76925 -0.00066
C 19.66706 28.35192 -0.00289
C 20.92345 27.70355 0.00028
C 20.90581 26.29394 -0.02213
C 19.7241 25.54959 0.03698
C 19.71447 24.20504 -0.00109
C 20.90196 23.38982 -0.00491
C 20.83442 22.01104 0.03338
C 19.61934 21.28693 -0.0258
C 19.66402 19.89701 -0.0331
C 20.88153 19.12496 -0.00316
C 20.876 17.72889 0.02188
C 19.55442 17.04723 -0.01979
C 19.51491 15.55502 0.02691
C 20.78102 14.88064 -0.01581
C 20.87456 13.47487 0.01452
C 19.57775 12.80868 0.04892
C 17.30646 34.01572 -0.02815
C 23.28622 21.99655 -0.01594
C 15.97347 31.83406 -0.01789
C 12.27483 34.0557 -0.02971
C 4.93372 29.86638 0.01396
C 5.01741 28.37694 0.01849
C 6.13506 27.70467 -0.01142
C 4.91326 11.352 -0.00562
C 6.08508 10.58939 -0.00494
C 6.1862 9.27577 0.00054
C 4.96255 8.53636 0.03007
C 4.89164 7.05702 -0.00095
C 6.14093 30.59807 0.0127
C 6.14513 6.385 0.01572
C 4.91215 4.26288 -0.00892
C 4.85551 2.8755 -0.01362
C 6.103 2.1846 -0.0008
C 6.13156 0.7835 0.0288
C 4.87974 0.09247 0.00393
C 7.36497 32.72835 0.00895
C 8.64083 32.00144 0.00685
C 8.66692 30.62002 0.02888
C 6.14934 4.94474 -0.04848
C 6.12935 32.05276 0.02635
C 4.82905 32.77325 -0.01378
C 2.42024 0.00765 -0.01303
C 3.66586 30.55091 -0.02566
C 2.4369 29.78904 -0.00094
C 2.45375 28.39574 0.02322
C 3.68556 27.66793 -0.00725
C 3.7106 26.3477 -0.05697
C 2.63649 25.43421 0.01087
C 2.42954 24.14742 -0.01343
C 2.34769 12.75863 0.00988
C 2.50039 11.35651 0.0276
C 3.71602 10.75967 0.01305
C 3.6972 9.30393 -0.00077
C 2.51743 8.53399 0.03368
C 2.44427 7.16284 -0.02929
C 3.70006 6.34812 -0.00966
C 3.61951 4.93762 -0.03337
C 2.41407 4.33885 0.01227
C 2.3199 2.83815 0.00873
C 3.59587 2.2108 -0.00049
C 3.63765 0.80328 0.00848
C 7.40982 29.92132 -0.00482
C 14.74987 32.59414 0.02894
C 7.4187 28.39782 -0.01384
C 8.63621 9.28091 0.01745
C 11.04356 0.70122 0.0402
C 9.8215 0.11931 0.00572
C 12.29192 32.66684 0.03592
C 13.47882 31.94713 0.00406
C 13.47503 30.56065 0.00943
C 12.29197 29.88126 0.02841
C 12.27565 28.37451 -0.01111
C 13.53117 27.83764 -0.01275
C 11.03891 2.11218 -0.02759
C 13.77341 10.61545 0.00985
C 12.34276 8.57055 -0.00428
C 12.31253 7.10193 0.03101
C 13.5223 6.39603 -0.01536
C 13.43546 4.8846 -0.02689
C 12.16678 4.18975 -0.01046
C 12.22068 2.84811 -0.00891
C 13.48891 2.11954 0.02819
C 13.55907 0.62978 0.00165
C 13.56919 9.31229 -0.02245
C 9.82365 2.91444 0.03589
C 9.84649 4.2884 -0.00033
C 11.00432 5.03353 -0.01062
C 7.47573 8.53014 0.00488
C 7.39871 7.08337 -0.01004
C 8.59396 6.4281 -0.02896
C 8.60249 4.99762 -0.00131
C 7.3934 4.33372 -0.01118
C 7.37086 2.87901 -0.014
C 8.57703 2.20382 0.02147
C 8.58891 0.74251 0.00373
C 7.38998 0.01616 -0.00191
C 9.75982 32.77706 0.00438
C 11.02764 31.99141 0.01291
C 11.05006 30.59089 0.00093
C 9.84208 29.89458 0.00057
C 9.85418 28.32663 -0.01634
C 11.02565 27.88469 -0.00334
C 11.1679 9.14431 0.02339
C 9.87741 8.71863 0.01641
C 9.78044 7.19166 -0.00719
C 11.04853 6.50348 0.01364
C 8.57653 27.74808 0.03693
C 22.08043 21.31072 0.0106
C 22.12847 19.84861 -0.01154
C 23.28639 19.15252 -0.01721
C 31.92092 32.69907 0.01713
C 33.18806 31.97041 -0.01694
C 33.23047 30.59931 0.01428
C 31.97897 29.82367 -0.02142
C 31.95589 28.4728 0.0544
C 33.19254 27.6553 0.00026
C 33.18337 26.27141 0.00682
C 31.8946 25.58109 -0.01779
C 29.56185 0.00414 0.00346
C 31.93335 24.13653 0.03794
C 33.14182 22.02056 0.01574
C 31.87853 21.38092 -0.02383
C 31.9408 19.8753 -0.01429
C 33.20473 19.18815 -0.0136
C 33.24306 17.71657 0.00594
C 31.99303 17.02332 -0.02474
C 31.95724 15.60328 0.00369
C 33.19294 14.87051 0.00455
C 33.1463 23.43903 0.01927
C 30.70568 0.71485 0.00307
C 30.70407 2.13904 0.00716
C 29.54733 2.83307 0.02108
C 30.61762 23.48731 -0.01854
C 30.70415 22.00661 -0.01415
C 29.4548 21.25379 -0.03039
C 29.55194 19.87174 0.01836
C 30.78116 19.16975 0.03531
C 30.77802 17.72217 -0.00669
C 29.54276 17.05973 0.0101
C 29.5164 15.65806 0.01705
C 30.70905 14.89139 -0.0405
C 30.71158 13.48877 -0.01303
C 29.50633 12.80584 -0.01461
C 29.52893 11.34563 -0.02155
C 30.73904 10.64243 -0.00944
C 30.772 9.16099 -0.03735
C 29.54697 8.51238 -0.00971
C 29.52921 7.11711 0.01518
C 30.66758 6.36286 0.01908
C 30.76734 4.90772 0.07705
C 29.50955 4.25031 0.0103
C 33.13871 13.4574 -0.00644
C 29.39193 24.23022 -0.02049
C 31.91899 12.72637 -0.01839
C 33.24053 10.67429 0.00199
C 1.06675 19.02651 -0.01678
C 1.21514 17.81367 0.01223
C 0.05574 17.07105 0.00648
C 0.09034 15.5669 0.02114
C 1.23584 14.9095 -0.02957
C 1.20973 13.55134 0.00343
C 34.36948 12.75278 -0.02656
C 0.00202 11.34598 -0.02442
C 0.02077 19.8401 0.01951
C 1.26262 10.66557 -0.00027
C 0.03018 8.57469 -0.02302
C 34.40399 7.1538 -0.02849
C 1.22659 6.49194 0.02931
C 1.22011 5.10888 0.00628
C 34.4015 4.31098 -0.0345
C 34.36919 2.87162 -0.00931
C 1.13033 2.14178 -0.00939
C 1.20971 0.73424 -0.00468
C 1.24904 9.24433 -0.00583
C 34.3945 21.27293 -0.02213
C 1.16068 22.00471 0.02712
C 1.36179 23.32546 0.00723
C 33.24661 9.2857 0.04381
C 32.01268 8.46397 0.02806
C 31.96139 7.05883 0.01504
C 33.18091 6.37441 -0.00069
C 33.21231 4.96851 0.04926
C 31.93549 4.23154 -0.03838
C 31.92739 2.82709 0.00349
C 33.13778 2.11071 -0.00323
C 33.17148 0.72626 -0.00841
C 31.94287 34.07074 0.0001
C 34.38929 32.73312 -0.02927
C 1.17376 31.96142 -0.01404
C 1.18928 30.58807 0.01027
C 0.00468 29.87917 0.01831
C 34.41444 28.41158 -0.01037
C 1.24289 27.6903 -0.00439
C 1.1695 26.24405 -0.00598
C 34.37674 25.49249 -0.05239
C 0.00865 24.13427 0.03076
C 31.92503 11.33864 0.00137
C 29.47662 25.61879 0.03265
C 30.7127 26.34251 0.00261
C 30.70142 27.76269 0.02326
C 25.79783 27.7759 -0.00225
C 25.76186 26.35314 0.00071
C 24.58033 25.53268 -0.01107
C 24.57769 24.11648 -0.01586
C 25.76147 23.35813 -0.01971
C 25.83176 21.95175 -0.02118
C 24.55569 21.25395 0.00733
C 24.51815 19.83891 -0.00178
C 24.57441 28.40141 0.01515
C 25.71572 19.13172 0.00768
C 24.49822 16.98106 0.03005
C 24.53621 15.58931 -0.04078
C 25.79117 14.8742 0.02117
C 25.82811 13.41645 0.02737
C 24.58439 12.71515 -0.00498
C 24.528 11.24875 0.00135
C 25.82816 10.61215 0.03102
C 25.85152 9.23007 0.02555
C 25.74104 17.65127 -0.0276
C 24.67214 29.91407 -0.0055
C 25.96338 30.53046 0.02734
C 25.837 31.88128 0.01153
C 23.31819 17.68705 -0.02422
C 22.06273 17.00278 0.01277
C 22.06411 15.55701 0.00096
C 23.31119 14.85618 -0.01527
C 23.32916 13.45881 0.01087
C 22.08706 12.81656 0.00199
C 22.0594 11.36838 0.01511
C 23.27158 10.59203 -0.00478
C 23.32965 9.18239 -0.01662
C 22.07561 8.51355 -0.01185
C 22.10868 7.07052 0.01126
C 23.35058 6.38949 0.01852
C 23.26947 4.97655 -0.00381
C 22.05364 4.27796 0.03046
C 22.11159 2.85469 0.0296
C 23.35483 2.0954 0.03374
C 23.455 0.66099 -0.02845
C 22.17941 34.04108 -0.03213
C 24.6446 32.60386 0.02239
C 24.53992 8.48191 0.01423
C 24.63629 7.05701 -0.00285
C 25.84315 6.35697 -0.009
C 25.81001 4.94517 -0.01199
C 28.27971 13.52872 0.01257
C 27.10778 12.75652 0.02316
C 27.08122 11.30127 0.04185
C 28.39147 10.61066 0.00194
C 28.31913 9.17814 -0.00621
C 27.04711 8.43634 0.02611
C 27.09339 7.0415 0.02198
C 28.29516 6.39717 0.01094
C 28.32644 4.97353 0.00235
C 27.07309 4.25484 0.01495
C 27.13803 2.87872 0.01259
C 28.32205 2.14986 0.01799
C 28.32662 0.74177 0.01699
C 27.11446 0.02712 -0.00416
C 29.53198 32.69946 0.01177
C 30.77749 31.92767 0.04266
C 30.78274 30.52998 0.01324
C 29.58441 29.84678 0.0014
C 29.47092 28.4838 0.00924
C 28.25883 14.98077 0.00152
C 3.66573 31.9778 -0.03113
C 27.02505 15.66693 -0.00294
C 28.251 17.77065 0.00487
C 24.54523 4.17515 -0.00229
C 24.5864 2.84426 -0.00938
C 25.90101 2.16297 -0.0264
C 25.86988 0.77001 -0.01154
C 24.70642 34.05463 0.00684
C 27.11337 32.74524 -0.01052
C 28.25758 31.97618 -0.01679
C 28.38141 30.61611 0.00367
C 27.06452 29.80437 0.04306
C 27.06658 28.4284 0.00996
C 28.22939 27.69703 0.00195
C 28.15271 26.27641 -0.00802
C 26.95517 25.57635 -0.00218
C 26.96983 24.16681 -0.01654
C 28.16981 23.47302 -0.00037
C 28.23565 21.93896 -0.0032
C 27.0013 21.21838 0.00622
C 27.018 19.82982 -0.02815
C 28.25721 19.17354 -0.00942
C 27.02989 17.07103 0.00826
C 2.4437 32.67163 0.017
