380
Graphene
C 34.332 0.11807 0.01295
C 13.45159 30.57959 -0.01454
C 12.26246 29.88764 0.01945
C 12.30355 28.4458 0.01416
C 13.57769 27.64222 0.03542
C 13.49045 26.25432 0.02299
C 12.27406 25.60387 0.00244
C 12.28006 24.17922 -0.01717
C 13.49914 23.44059 0.05265
C 13.53053 22.02757 -0.01952
C 12.32648 21.30004 -0.02813
C 12.27583 19.92576 0.00374
C 13.51682 19.1659 0.00052
C 13.56289 17.65522 -0.03682
C 12.35514 16.97364 0.01965
C 12.30827 15.60818 0.02058
C 13.60064 14.91966 -0.01957
C 13.62562 13.5268 -0.0108
C 12.43041 12.84281 -0.00368
C 12.28243 11.41922 -0.02696
C 13.49087 31.96051 0.01241
C 12.21093 32.72194 0.0076
C 9.75478 0.10647 0.02162
C 11.00037 0.75552 -0.0014
C 11.07773 23.41663 -0.01275
C 11.06371 22.03335 0.00985
C 9.78398 21.34871 -0.02245
C 9.8059 19.95202 -0.00428
C 11.02864 19.24402 0.03101
C 11.09215 17.77752 -0.01536
C 9.83681 17.09523 -0.02689
C 9.97858 15.60607 -0.01046
C 11.11584 14.89025 -0.00891
C 13.5156 10.64403 -0.00114
C 11.02548 13.43617 0.02819
C 11.01415 10.80814 -0.02971
C 10.9221 9.3416 0.02894
C 9.7394 8.47497 -0.01789
C 9.88341 7.0907 0.00444
C 11.04631 6.40872 -0.00925
C 11.10075 4.99201 0.01877
C 9.82866 4.29 0.01363
C 9.75224 2.89417 -0.02162
C 11.0158 2.15192 0.00415
C 9.81128 12.89269 0.00165
C 13.44865 9.20972 0.00228
C 12.19948 8.56234 0.00798
C 12.24247 7.12047 0.00422
C 15.95953 14.80987 -0.0331
C 16.0042 13.32752 -0.00316
C 14.78895 12.71305 0.02188
C 14.75513 11.30762 -0.01979
C 16.0527 10.62159 0.02691
C 16.05285 9.21864 -0.01581
C 14.74026 8.57811 0.01452
C 14.79627 7.13623 0.04892
C 15.97991 6.3767 -0.00111
C 14.73372 15.56426 -0.0258
C 16.01029 5.0171 -0.03557
C 14.72097 2.90897 0.01739
C 15.94458 2.12703 0.00755
C 15.94904 0.75771 -0.0054
C 14.74892 0.07005 0.00667
C 17.12227 32.64208 0.00143
C 18.28638 31.94562 -0.017
C 18.42796 30.51583 0.00364
C 17.17612 29.76708 -0.00831
C 17.2486 28.33417 -0.02957
C 14.76095 4.28236 0.03754
C 9.87359 24.20223 -0.01111
C 14.80025 16.94126 0.03338
C 15.94971 19.06414 -0.00109
C 13.53538 6.3891 0.0351
C 13.58284 4.9577 -0.03113
C 12.32339 4.28391 0.02098
C 12.25716 2.86881 0.01848
C 13.53084 2.18889 -0.00619
C 13.54336 0.7367 -0.02162
C 12.29938 0.05681 0.00889
C 14.72021 32.70163 -0.00481
C 15.94029 31.92239 0.00979
C 15.99054 17.58088 -0.00491
C 15.93926 30.43222 0.01443
C 14.71226 28.41697 -0.02815
C 15.94922 27.62612 -0.04147
C 15.92029 26.16245 -0.05302
C 14.71354 25.53706 0.00213
C 14.78073 24.15065 -0.00066
C 15.95894 23.4115 -0.00289
C 15.94805 22.0347 0.00028
C 14.72561 21.34439 -0.02213
C 14.7315 19.83651 0.03698
C 14.68651 29.83671 0.03505
C 18.54675 27.72569 -0.04422
C 9.76376 25.60557 0.02841
C 11.06006 27.7698 0.00406
C 3.60901 4.96121 -0.05697
C 2.39048 4.3172 0.01087
C 2.36098 2.94817 -0.01343
C 3.59609 2.14402 0.00988
C 3.60232 0.68236 0.0276
C 2.36246 0.04777 0.01305
C 4.80847 32.72811 -0.00077
C 6.0295 31.96242 0.03368
C 6.09619 30.60687 -0.02929
C 4.89393 29.95639 -0.00966
C 4.88833 28.48097 -0.03337
C 6.11899 27.79595 0.01227
C 6.13541 26.36115 0.00873
C 4.95034 25.67618 -0.00049
C 4.8944 24.27849 0.00848
C 6.1658 23.49977 -0.01303
C 6.13222 22.01083 -0.01378
C 4.90008 21.36657 0.02635
C 4.98646 19.92437 0.0127
C 3.60149 6.39341 -0.00725
C 2.38899 7.0643 0.02322
C 2.51828 8.45323 -0.00094
C 3.74605 9.22762 -0.02566
C 3.61945 30.56387 0.00907
C 2.39215 29.8896 0.00643
C 2.43803 28.49038 -0.01509
C 3.68088 27.78831 0.03267
C 3.68237 26.32829 0.02374
C 2.42315 25.70468 0.00402
C 2.38233 24.2722 0.0073
C 3.64833 23.55998 0.0174
C 3.67399 22.11922 0.03828
C 6.27062 19.2372 0.01396
C 2.36865 21.35666 0.01226
C 3.65629 19.28343 0.01996
C 3.61846 17.86755 -0.03996
C 2.33468 17.12115 0.01465
C 2.42269 15.63068 -0.00074
C 3.62338 14.92214 -0.00518
C 3.67527 13.48694 0.0086
C 2.42917 12.82241 -0.00643
C 2.40792 11.32628 0.017
C 3.59746 10.60136 -0.03113
C 2.43442 19.84543 -0.00279
C 6.21319 17.80126 0.01849
C 4.87674 17.12124 -0.01142
C 4.89978 15.75656 -0.00562
C 7.33947 21.40551 0.02147
C 7.4499 19.98797 0.00373
C 8.63634 19.19109 -0.00191
C 8.57117 17.8157 0.00438
C 7.43557 17.14614 0.01291
C 7.50076 15.47887 0.00093
C 8.82557 14.83185 0.00057
C 7.37333 7.16526 -0.01634
C 8.54606 6.34297 -0.00334
C 8.56872 22.07189 -0.014
C 8.55824 4.96155 0.02339
C 7.321 2.83373 -0.00719
C 8.60041 2.18045 0.01364
C 8.53022 0.77073 -0.01062
C 7.31579 0.07711 -0.00033
C 9.77603 32.73728 0.03589
C 10.98881 32.02419 -0.02759
C 11.0054 30.59322 0.0402
C 9.81231 29.93672 0.00572
C 9.85876 28.49179 0.03592
C 7.34497 4.22574 0.01641
C 11.02241 26.29928 0.00943
C 8.62614 23.4972 -0.01118
C 7.35885 25.69044 -0.02896
C 6.20737 14.95852 -0.00494
C 5.99099 13.65105 0.00054
C 4.92757 12.77692 0.03007
C 4.84683 11.2741 -0.00095
C 4.90644 8.56143 0.01572
C 4.90115 7.19455 -0.04848
C 6.15719 6.43012 -0.00892
C 6.13013 4.90295 -0.01362
C 4.84339 4.26134 -0.0008
C 7.44672 24.23642 -0.00131
C 4.79293 2.88148 0.0288
C 6.01874 0.70442 0.00895
C 4.80577 0.03194 0.00685
C 7.26999 32.7122 0.02888
C 8.48873 32.00348 -0.00482
C 8.52434 30.64389 -0.01384
C 7.29971 29.88761 0.03693
C 7.35165 28.54359 0.01745
C 8.58286 27.82891 0.00488
C 8.57228 26.4299 -0.01004
C 6.08143 2.09786 0.00393
C 18.4796 26.28331 0.00654
C 17.20078 25.53759 -0.00703
C 17.15687 24.06505 -0.04076
C 30.63281 21.94849 0.02108
C 29.44914 21.12883 0.00716
C 29.43453 19.6614 0.00307
C 30.75698 19.15652 0.00346
C 30.55857 6.50963 0.01713
C 30.41363 5.01654 -0.01694
C 29.11258 4.20471 0.01428
C 29.2971 2.85632 -0.02142
C 30.6168 2.16588 0.0544
C 30.57419 0.74953 0.00026
C 29.38704 0.03193 0.00682
C 31.90897 32.68444 -0.01779
C 33.11994 31.92165 0.03794
C 33.21198 30.56372 0.01927
C 31.9673 29.91568 0.01574
C 31.90997 28.38512 -0.02383
C 33.1702 27.72187 -0.01429
C 33.20955 26.29036 -0.0136
C 31.99052 25.52464 0.00594
C 30.67345 23.43837 0.0103
C 29.42145 24.12668 0.07705
C 29.52081 25.5767 0.01908
C 30.76263 26.2916 0.01518
C 28.28899 27.84858 0.00924
C 28.31037 26.33007 0.02326
C 27.20607 25.54013 0.00261
C 27.06796 24.11875 0.03265
C 28.24448 23.3848 -0.02049
C 28.1907 21.75854 -0.01854
C 26.9783 21.06222 -0.01415
C 26.83712 19.59511 -0.03039
C 28.05012 19.0421 0.01836
C 31.94772 24.06477 -0.02474
C 27.06589 4.22431 0.03531
C 28.10706 2.01364 0.0101
C 28.11008 0.59468 0.01705
C 26.97307 33.90152 -0.0405
C 29.53198 32.7546 -0.01303
C 30.72987 32.00671 -0.01461
C 30.72933 30.5827 -0.02155
C 29.53784 29.87316 -0.00944
C 29.48661 28.40142 -0.03735
C 30.73402 27.71408 -0.00971
C 26.93474 2.90081 -0.00669
C 33.16747 23.43871 0.00369
C 33.16154 22.09198 0.00455
C 31.89423 21.39529 -0.00644
C 34.31987 21.36183 -0.02213
C 34.40043 19.98035 0.01951
C 1.0922 19.19191 -0.01678
C 1.03219 17.78767 0.01223
C 34.23148 17.08545 0.00648
C 0.09622 15.72403 0.02114
C 1.23627 14.99295 -0.02957
C 1.24988 13.54446 0.00343
C 0.07693 12.68566 -0.02656
C 1.13665 21.9984 0.02712
C 0.1436 11.37822 -0.02442
C 1.33017 9.25615 -0.00583
C 0.07046 8.52548 -0.02302
C 34.37702 7.09068 -0.02849
C 1.17575 6.38325 0.02931
C 1.19001 5.02436 0.00628
C 34.27756 4.3528 -0.0345
C 34.35514 2.93361 -0.00931
C 1.14993 2.16823 -0.00939
C 1.11586 0.78803 -0.00468
C 1.24159 10.60655 -0.00027
C 27.03709 28.53645 0.0014
C 1.18921 23.42061 0.00723
C 0.00186 25.62896 -0.05239
C 31.95521 19.97264 -0.01839
C 33.1461 19.27816 0.00137
C 33.08492 17.92929 0.00199
C 33.29365 9.23513 0.04381
C 32.13382 8.55947 0.02806
C 31.86252 7.14273 0.01504
C 33.13681 6.43271 -0.00069
C 33.01511 5.03265 0.04926
C 31.68823 4.33592 -0.03838
C 34.43197 24.20533 0.03076
C 31.82643 2.84246 0.00349
C 33.0927 0.83764 -0.00841
C 31.81909 0.04056 0.0001
C 34.35048 32.74122 -0.02927
C 1.15055 32.01683 -0.01404
C 1.19287 30.5812 0.01027
C 0.03561 29.86648 0.01831
C 0.00287 28.3985 -0.01037
C 1.24169 27.77751 -0.00439
C 1.21232 26.34187 -0.00598
C 33.1076 2.25723 -0.00323
C 27.17724 29.96084 0.01324
C 28.33429 30.6296 0.04266
C 28.31377 31.99702 0.01177
C 20.78304 31.87844 0.0296
C 19.67232 29.94899 0.03374
C 19.84712 28.45169 -0.02845
C 20.97192 27.64321 -0.03213
C 20.88568 26.17642 0.02239
C 19.62118 25.49946 0.01153
C 19.67205 24.096 0.02734
C 20.84465 23.38873 -0.0055
C 20.83518 21.97014 0.01515
C 19.61961 32.53422 0.03046
C 19.5661 21.27398 -0.00225
C 20.92255 19.05951 -0.01107
C 21.06915 17.61645 -0.01586
C 19.73209 16.8674 -0.01971
C 19.65658 15.52202 -0.02118
C 20.97087 14.84539 0.00733
C 21.12506 13.41286 -0.00178
C 19.842 12.70424 0.00768
C 19.82684 11.19406 -0.0276
C 21.12279 10.45358 0.03005
C 19.6619 19.83728 0.00071
C 21.11741 8.85161 -0.04078
C 17.12754 0.01407 -0.00381
C 18.38623 2.16307 0.01126
C 18.41344 23.26531 -0.00652
C 18.38677 21.94226 0.0058
C 17.18939 21.25956 -0.00865
C 17.17922 19.77772 0.00675
C 18.48417 19.07666 -0.00311
C 18.49609 17.61994 0.00742
C 17.21785 16.9143 -0.01594
C 17.23671 15.46721 0.0106
C 18.48324 14.72291 -0.01154
C 18.38076 0.72245 0.01852
C 18.53099 13.38941 -0.01721
C 17.2815 11.3032 0.01277
C 18.53347 10.61263 0.00096
C 18.53001 9.16547 -0.01527
C 17.25468 8.47222 0.01087
C 17.16074 7.10107 0.00199
C 18.47126 6.39374 0.01511
C 18.39173 4.97009 -0.00478
C 17.20229 4.2496 -0.01662
C 17.1878 2.81611 -0.01185
C 17.29818 12.70095 -0.02422
C 3.59924 32.02807 0.02379
C 19.81405 8.48354 0.02117
C 20.90342 6.47505 -0.00498
C 22.05084 2.78584 -0.02815
C 23.16861 1.97595 -0.00942
C 23.16525 0.53362 0.00487
C 21.9148 33.97873 0.00826
C 25.83398 27.66829 -0.00294
C 25.85129 26.32108 0.00152
C 24.53345 25.51677 0.01257
C 24.58004 24.1328 0.02316
C 25.83428 23.38281 0.04185
C 22.14854 4.25196 0.00622
C 25.84341 21.90322 0.00194
C 24.46302 19.9142 0.02611
C 25.5634 19.09064 0.02198
C 25.02799 17.68715 0.01094
C 24.39617 4.26034 0.00235
C 24.41512 2.72604 0.01495
C 25.70896 2.13004 0.01259
C 25.65324 0.72299 0.01799
C 24.45756 34.06993 0.01699
C 27.03711 32.5651 -0.00416
C 24.61446 21.20921 -0.00621
C 19.62699 7.05838 0.02737
C 23.39049 4.93582 -0.0032
C 22.21543 11.3114 -0.01654
C 20.87819 4.96042 0.00135
C 19.59786 4.29855 0.03102
C 19.65531 2.8789 0.02555
C 20.80872 2.12398 0.01423
C 20.75057 0.66811 -0.00285
C 19.52996 34.03216 -0.009
C 23.33007 26.31242 -0.01199
C 22.19937 25.55497 -0.00229
C 22.09312 24.05711 -0.00938
C 22.00516 7.38292 -0.00037
C 23.39081 23.36408 -0.0264
C 22.14757 21.26253 0.00684
C 22.10992 19.79258 -0.01052
C 23.25707 19.12565 -0.01679
C 23.51658 17.81215 0.00367
C 22.31753 17.11669 0.04306
C 22.26316 15.7249 0.00996
C 23.32047 14.89064 0.00195
C 23.32048 13.55313 -0.00802
C 22.24118 12.67222 -0.00218
C 23.3839 21.89889 -0.01154
C 2.38014 32.76926 0.01402
