394
Graphene
C 0.00745 0.02987 0.01295
C 12.3398 32.66365 -0.00925
C 13.48306 32.00109 0.01877
C 13.53306 30.56981 0.01363
C 12.33393 29.818 -0.02162
C 12.35715 28.43915 0.00415
C 13.54328 27.70215 -0.0014
C 13.46644 26.23116 0.02162
C 12.24607 25.51967 0.0076
C 12.2651 24.00274 0.01241
C 9.822 0.00677 0.00444
C 13.566 23.4635 -0.01454
C 12.31927 21.26763 0.01416
C 12.3501 19.86658 0.03542
C 13.56878 19.14607 0.02299
C 13.48885 17.81402 0.00244
C 12.31217 17.00978 -0.01717
C 12.30378 15.52699 0.05265
C 13.53002 14.89417 -0.01952
C 12.37612 4.12948 -0.02813
C 12.22643 2.80256 0.00374
C 13.50937 22.04484 0.01945
C 11.05838 0.67059 -0.01789
C 10.99461 2.18786 0.02894
C 9.75583 2.93091 -0.02971
C 11.08734 27.75508 -0.00033
C 11.08863 26.29943 0.03589
C 9.85347 25.58303 -0.02759
C 9.84906 24.16194 0.0402
C 11.03729 23.43978 0.00572
C 11.07185 22.00193 0.03592
C 9.84806 21.34327 0.00406
C 9.83546 19.98417 0.00943
C 11.03851 19.20071 0.02841
C 11.04943 17.82702 -0.01111
C 9.8466 16.97848 -0.01275
C 9.85165 15.61655 0.00985
C 11.09057 14.91905 -0.02245
C 11.14595 13.50546 -0.00428
C 9.83869 12.70612 0.03101
C 9.78542 11.39087 -0.01536
C 9.82616 8.48451 -0.02689
C 9.83342 7.1034 -0.01046
C 11.10825 6.36082 -0.00891
C 11.23161 4.99487 0.02819
C 9.84811 4.30268 0.00165
C 13.5396 2.15155 0.00052
C 9.7873 28.48804 -0.01062
C 13.52147 0.73479 -0.03682
C 14.73269 32.58707 0.02058
C 18.44769 27.66466 0.00028
C 18.46017 26.31434 -0.02213
C 17.22114 25.52477 0.03698
C 17.1679 24.14467 -0.00109
C 18.42753 23.44501 -0.00491
C 18.48385 21.98518 0.03338
C 17.25759 21.35957 -0.0258
C 17.22438 19.85721 -0.0331
C 18.47479 19.17129 -0.00316
C 17.23302 28.37085 -0.00289
C 18.47946 17.68453 0.02188
C 18.36899 2.13524 0.02691
C 18.42506 0.73905 -0.01581
C 17.23262 34.03454 0.01452
C 19.70807 32.63734 0.04892
C 20.89594 31.96998 -0.00111
C 20.87024 30.53496 -0.03557
C 19.62249 29.83121 0.03754
C 19.61101 28.45512 0.01739
C 20.88136 27.7402 0.00755
C 17.20674 17.07755 -0.01979
C 17.25842 29.7748 -0.00066
C 18.45543 30.53891 0.00213
C 18.47341 31.95908 -0.05302
C 16.00924 31.98518 -0.01957
C 16.04398 30.5543 -0.0108
C 14.77495 29.83138 -0.00368
C 14.77532 28.35503 -0.02696
C 15.97025 27.65503 -0.00114
C 15.98902 26.25425 0.00228
C 14.78752 25.60095 0.00798
C 14.73596 24.15275 0.00422
C 15.91501 23.42962 0.0351
C 15.93745 22.0214 -0.03113
C 14.72441 21.27538 0.02098
C 14.71949 19.88669 0.01848
C 15.98356 19.19158 -0.00619
C 16.04757 17.72158 -0.02162
C 14.74151 17.01044 0.00889
C 14.61691 15.5112 -0.00481
C 14.77014 2.75843 0.00979
C 15.94124 2.12859 0.01443
C 15.94718 0.69017 0.03505
C 14.76891 34.03675 -0.02815
C 17.27474 32.69095 -0.04147
C 12.26948 0.07359 0.01965
C 9.87614 29.8245 0.01364
C 11.05199 30.55256 -0.00719
C 11.04836 31.98027 0.01641
C 2.44914 4.30562 0.01996
C 2.49237 2.7866 -0.03996
C 3.6763 2.15024 0.01465
C 3.66538 0.7282 -0.00074
C 2.43229 34.06698 -0.00518
C 4.90406 32.64284 0.0086
C 6.1597 32.01793 -0.00643
C 6.16126 30.50768 0.017
C 4.94177 29.84669 -0.03113
C 3.70587 4.98883 -0.00279
C 4.92683 28.42338 -0.02566
C 6.0826 26.35081 0.02322
C 4.94214 25.56643 -0.00725
C 4.89587 24.09746 -0.05697
C 6.11669 23.43411 0.01087
C 6.09615 22.059 -0.01343
C 4.94803 21.26185 0.00988
C 4.97799 19.91082 0.0276
C 6.1164 19.14765 0.01305
C 6.21314 17.72633 -0.00077
C 6.12009 27.67586 -0.00094
C 3.59778 6.40663 0.01226
C 2.41048 7.19227 0.03828
C 2.46387 8.55732 0.0174
C 3.73036 30.49811 -0.00561
C 2.44065 29.843 0.00208
C 2.52003 28.39432 0.01707
C 3.68453 27.63953 0.02769
C 3.74299 26.24455 -0.03291
C 2.38102 25.52406 -0.04999
C 2.42092 24.21266 0.04505
C 3.6355 23.47048 0.03284
C 3.65747 22.01422 -0.04307
C 2.47064 21.33459 0.03189
C 2.45016 19.78362 0.00031
C 3.74001 19.20192 -0.003
C 3.71834 17.81978 0.01402
C 2.4498 17.09303 0.02379
C 2.43867 15.62792 0.00907
C 3.64764 14.85669 0.00643
C 3.67614 13.45961 -0.01509
C 2.48583 12.78174 0.03267
C 2.47799 11.31731 0.02374
C 3.71785 10.69644 0.00402
C 3.71657 9.30656 0.0073
C 4.88095 17.04289 0.03368
C 4.9759 15.61168 -0.02929
C 6.21967 14.89463 -0.00966
C 6.17261 13.54113 -0.03337
C 7.32692 19.76546 0.02888
C 8.58275 19.13216 -0.00482
C 8.55385 17.75136 -0.01384
C 7.30978 16.96195 0.03693
C 7.3864 15.61269 0.01745
C 8.59766 14.94143 0.00488
C 8.57138 13.53833 -0.01004
C 7.39559 12.73838 -0.02896
C 7.36337 11.39501 -0.00131
C 8.59969 10.6839 -0.01118
C 8.64574 9.24223 -0.014
C 7.3552 8.51892 0.02147
C 7.38714 7.11051 0.00373
C 8.6422 6.43224 -0.00191
C 8.60135 5.0075 0.00438
C 7.35996 4.31207 0.01291
C 7.42091 2.84873 0.00093
C 8.62625 2.20051 0.00057
C 8.62008 0.76409 -0.01634
C 7.42994 0.06857 -0.00334
C 9.77636 32.73529 0.02339
C 7.33543 21.33209 0.00685
C 20.92066 26.30053 -0.0054
C 8.52238 22.02843 0.00895
C 7.37499 24.21106 0.0288
C 4.94069 12.78774 0.01227
C 4.95522 11.35775 0.00873
C 6.14004 10.70916 -0.00049
C 6.12554 9.29566 0.00848
C 4.92716 8.54971 -0.01303
C 4.84796 7.09578 -0.01378
C 6.09097 6.44854 0.02635
C 6.12693 4.95872 0.0127
C 4.92759 4.2731 0.01396
C 4.87161 2.89939 0.01849
C 6.12431 2.16897 -0.01142
C 6.21059 0.78139 -0.00562
C 4.9433 34.03958 -0.00494
C 7.37331 32.69369 0.00054
C 8.55212 31.9395 0.03007
C 8.60485 30.52638 -0.00095
C 7.34762 29.85717 0.01572
C 7.27869 28.40855 -0.04848
C 8.53349 27.71371 -0.00892
C 8.58328 26.22683 -0.01362
C 7.34996 25.62876 -0.0008
C 8.54912 23.44527 0.00393
C 19.70271 25.59578 0.00667
C 19.66124 24.11078 0.00143
C 20.89104 23.42249 -0.017
C 30.75923 6.42472 0.01908
C 30.77659 4.98892 0.07705
C 29.55796 4.32397 0.0103
C 29.52112 2.83833 0.02108
C 30.7387 2.13923 0.00716
C 30.70709 0.70472 0.00307
C 29.43407 0.04485 0.00346
C 32.02101 32.64603 0.01713
C 33.21798 31.90922 -0.01694
C 29.56843 7.05745 0.01518
C 33.19672 30.54161 0.01428
C 31.97804 28.4258 0.0544
C 33.22969 27.70133 0.00026
C 33.17562 26.2738 0.00682
C 31.95774 25.54232 -0.01779
C 31.96653 24.15463 0.03794
C 33.2501 23.47713 0.01927
C 33.22451 21.93798 0.01574
C 32.01395 21.26109 -0.02383
C 31.99082 19.88942 -0.01429
C 31.95849 29.86364 -0.02142
C 29.51337 8.4708 -0.00971
C 30.67771 9.2155 -0.03735
C 30.79401 10.62115 -0.00944
C 29.47952 32.61558 0.01177
C 30.69452 31.97 0.04266
C 30.70537 30.49893 0.01324
C 29.45812 29.8465 0.0014
C 29.51235 28.39962 0.00924
C 30.76632 27.62442 0.02326
C 30.77277 26.23242 0.00261
C 29.51117 25.57275 0.03265
C 29.57852 24.11211 -0.02049
C 30.75831 23.35503 -0.01854
C 30.79625 22.00514 -0.01415
C 29.57403 21.26798 -0.03039
C 29.47257 19.85736 0.01836
C 30.75945 19.13973 0.03531
C 30.74467 17.75073 -0.00669
C 29.48603 17.05289 0.0101
C 29.52942 15.6899 0.01705
C 30.72791 14.92454 -0.0405
C 30.78331 13.55433 -0.01303
C 29.48689 12.81617 -0.01461
C 29.52507 11.37424 -0.02155
C 33.21019 19.18384 -0.0136
C 33.25966 17.79773 0.00594
C 32.02235 17.02374 -0.02474
C 31.96544 15.57496 0.00369
C 1.21774 22.07262 0.02712
C 0.01911 21.32194 -0.02213
C 0.04395 19.94433 0.01951
C 1.17016 19.07464 -0.01678
C 1.17131 17.71464 0.01223
C 34.40951 17.02712 0.00648
C 0.0517 15.60982 0.02114
C 1.16855 14.87401 -0.02957
C 1.17076 13.47721 0.00343
C 34.41609 12.73998 -0.02656
C 34.38125 11.32832 -0.02442
C 1.21503 10.61303 -0.00027
C 1.22062 9.30539 -0.00583
C 34.43139 8.57753 -0.02302
C 34.42489 7.09855 -0.02849
C 1.21372 6.3683 0.02931
C 1.16887 4.92053 0.00628
C 34.35494 4.25878 -0.0345
C 0.01757 2.8358 -0.00931
C 1.28469 2.07371 -0.00939
C 1.244 0.70084 -0.00468
C 1.18049 23.50088 0.00723
C 27.04882 0.01489 -0.00416
C 34.41937 24.23171 0.03076
C 1.19849 26.28476 -0.00598
C 33.18892 14.89102 0.00455
C 33.20865 13.5103 -0.00644
C 31.99794 12.78133 -0.01839
C 31.98986 11.36256 0.00137
C 33.16213 10.6157 0.00199
C 33.17583 9.21474 0.04381
C 31.9314 8.56701 0.02806
C 31.96009 7.18658 0.01504
C 33.19674 6.34043 -0.00069
C 33.18507 4.93266 0.04926
C 31.91452 4.26291 -0.03838
C 31.97286 2.85423 0.00349
C 33.24721 2.1236 -0.00323
C 33.13296 0.64258 -0.00841
C 31.91635 34.05063 0.0001
C 0.0234 32.67004 -0.02927
C 1.20881 31.89707 -0.01404
C 1.19351 30.54707 0.01027
C 0.0323 29.78586 0.01831
C 0.03429 28.37843 -0.01037
C 1.28804 27.71848 -0.00439
C 34.38979 25.5764 -0.05239
C 3.71062 31.8809 -0.01977
C 28.26766 0.70087 0.01699
C 27.03763 2.82057 0.01259
C 23.36043 17.75167 -0.01662
C 22.17758 17.02143 -0.01185
C 22.12747 15.64886 0.01126
C 23.27338 14.86535 0.01852
C 23.29508 13.45598 -0.00381
C 23.35059 4.85973 0.03046
C 22.055 2.8269 0.0296
C 23.41772 2.11925 0.03374
C 23.38683 0.6898 -0.02845
C 23.26219 19.15518 -0.00478
C 22.08033 34.01468 -0.03213
C 25.82704 31.91421 0.01153
C 25.82605 30.49676 0.02734
C 24.62788 29.74796 -0.0055
C 24.6317 28.33185 0.01515
C 25.86172 27.69303 -0.00225
C 25.79899 26.26844 0.00071
C 24.61072 25.49584 -0.01107
C 24.55673 24.10656 -0.01586
C 25.82334 23.46651 -0.01971
C 24.65959 32.61544 0.02239
C 22.17932 19.84599 0.01511
C 22.11255 21.24993 0.00199
C 23.35605 21.9939 0.01087
C 20.92873 22.0017 0.00364
C 19.69463 21.29406 -0.00831
C 19.71654 19.91253 -0.02957
C 20.8751 19.16671 -0.04422
C 20.91357 17.76032 0.00654
C 19.72183 17.00997 -0.00703
C 19.87918 15.59833 -0.04076
C 20.89383 15.0397 -0.00652
C 20.96703 2.19186 0.0058
C 20.93141 0.6332 -0.00865
C 19.66575 34.06775 0.00675
C 22.16515 32.66312 -0.00311
C 23.36271 32.01324 0.00742
C 23.34072 30.53053 -0.01594
C 22.12853 29.85273 0.0106
C 22.08768 28.42858 -0.01154
C 23.34874 27.68036 -0.01721
C 23.40267 26.27974 -0.02422
C 22.11617 25.61602 0.01277
C 22.13128 24.10336 0.00096
C 23.36917 23.46616 -0.01527
C 25.87014 22.02554 -0.02118
C 24.64753 21.24679 0.00733
C 24.49545 19.83438 -0.00178
C 25.81972 19.18653 0.00768
C 27.03295 25.55822 -0.00218
C 27.19766 24.21366 -0.01654
C 28.28206 23.44765 -0.00037
C 28.29941 21.98354 -0.0032
C 27.07568 21.27687 0.00622
C 26.94553 19.89647 -0.02815
C 28.18254 19.17486 -0.00942
C 28.21092 17.74314 0.00487
C 27.00396 17.03382 0.00826
C 27.0601 15.58212 -0.00294
C 28.19092 14.87262 0.00152
C 28.25084 13.4798 0.01257
C 27.02217 12.78608 0.02316
C 26.99622 11.32233 0.04185
C 28.25894 10.68736 0.00194
C 28.2788 9.23759 -0.00621
C 27.04641 8.49414 0.02611
C 27.04681 7.1037 0.02198
C 28.30825 6.29612 0.01094
C 28.30692 4.94674 0.00235
C 27.04566 4.22941 0.01495
C 28.28213 26.27095 -0.00802
C 28.35772 2.21488 0.01799
C 28.28946 27.71104 0.00195
C 26.99476 29.774 0.04306
C 25.79929 17.72885 -0.0276
C 24.5735 17.08531 0.03005
C 24.51982 15.64299 -0.04078
C 25.80878 14.91193 0.02117
C 25.89952 13.5533 0.02737
C 24.62099 12.8033 -0.00498
C 24.60655 11.40086 0.00135
C 25.77032 10.59046 0.03102
C 25.79789 9.25621 0.02555
C 24.60357 8.42803 0.01423
C 24.55747 7.13795 -0.00285
C 25.77434 6.34727 -0.009
C 25.82577 4.93992 -0.01199
C 24.54351 4.25949 -0.00229
C 24.60574 2.82625 -0.00938
C 25.85485 2.12867 -0.0264
C 25.8244 0.77278 -0.01154
C 24.67185 0.05307 0.00684
C 27.02878 32.65018 -0.01052
C 28.2723 31.9094 -0.01679
C 28.28549 30.5336 0.00367
C 27.06928 28.45395 0.00996
C 2.4771 32.61662 0.02784
