362
Graphene
C 34.42291 0.0639 0.01295
C 11.00918 4.94908 0.01965
C 9.78016 4.26012 0.02058
C 9.76214 2.88723 -0.01957
C 10.91768 2.12053 -0.0108
C 10.99529 0.68562 -0.00368
C 9.75878 34.07483 -0.02696
C 12.31964 32.6919 -0.00114
C 13.51485 32.02621 0.00228
C 10.96251 6.34738 -0.03682
C 13.49347 30.60051 0.00798
C 12.21256 28.53159 0.0351
C 13.35527 27.82637 -0.03113
C 13.37201 26.43981 0.02098
C 12.2538 25.58225 0.01848
C 12.53551 24.28094 -0.00619
C 13.4584 9.10651 -0.02162
C 12.14285 8.46083 0.00889
C 12.1792 7.0278 -0.00481
C 12.25634 29.91548 0.00422
C 9.73032 7.14942 0.00052
C 9.70181 8.56509 0.00374
C 10.97955 9.23967 -0.02813
C 8.59818 2.15588 0.00444
C 8.54492 0.72344 -0.00925
C 7.29464 0.00883 0.01877
C 9.74301 32.74885 0.01363
C 11.05083 32.03305 -0.02162
C 11.02162 30.5993 0.00415
C 9.80212 29.93373 -0.0014
C 9.81367 28.53853 0.02162
C 11.06318 27.75172 0.0076
C 11.08379 26.39608 0.01241
C 9.90726 25.62864 -0.01454
C 9.95371 24.24069 0.01945
C 11.36897 23.47165 0.01416
C 11.18746 22.12187 0.03542
C 10.04298 21.3796 0.02299
C 9.92092 20.00539 0.00244
C 9.84396 12.66931 -0.01717
C 9.88763 11.27789 0.05265
C 11.05732 10.62081 -0.01952
C 13.4374 6.33607 0.00979
C 7.26906 2.83167 -0.01789
C 13.49266 4.96148 0.01443
C 12.16698 2.80227 -0.02815
C 17.16918 29.66622 0.01739
C 17.1393 28.25027 0.00755
C 18.43908 27.62057 -0.0054
C 18.31135 26.01592 0.00667
C 17.07897 25.53727 0.00143
C 17.20691 7.01939 -0.017
C 18.50381 6.52544 0.00364
C 18.491 5.01072 -0.00831
C 18.36732 30.43116 0.03754
C 17.24544 4.34923 -0.02957
C 18.45814 2.24508 0.00654
C 18.41189 0.69934 -0.00703
C 17.24821 0.02946 -0.04076
C 19.59804 32.65781 -0.00652
C 20.75432 31.92388 0.0058
C 20.73945 30.46359 -0.00865
C 19.61021 29.73161 0.00675
C 19.63438 28.33005 -0.00311
C 17.24951 2.9358 -0.04422
C 18.40856 31.8386 -0.03557
C 17.24285 32.61988 -0.00111
C 14.78422 0.05461 0.04892
C 13.40789 2.19828 -0.04147
C 13.56918 0.81043 -0.05302
C 12.31713 0.07838 0.00213
C 14.73036 32.65793 -0.00066
C 15.98794 31.8622 -0.00289
C 15.97065 30.38026 0.00028
C 14.66595 29.81341 -0.02213
C 14.63604 28.50662 0.03698
C 15.83178 27.60303 -0.00109
C 15.80416 25.96448 -0.00491
C 14.49535 25.64484 0.03338
C 14.51264 8.49889 -0.0258
C 14.68517 7.02284 -0.0331
C 15.91947 6.44443 -0.00316
C 15.99791 4.96724 0.02188
C 14.69864 4.24875 -0.01979
C 14.74511 2.83411 0.02691
C 16.0315 2.22138 -0.01581
C 16.04584 0.75887 0.01452
C 12.16468 4.23729 0.03505
C 7.20135 4.30903 0.02894
C 8.50923 5.02789 -0.02971
C 8.51501 6.49242 0.00165
C 3.5798 6.43776 0.02635
C 3.63122 5.03705 0.0127
C 2.38738 4.32482 0.01396
C 2.32408 2.87017 0.01849
C 3.5843 2.2471 -0.01142
C 3.57399 0.79645 -0.00562
C 2.35752 0.09691 -0.00494
C 4.91231 32.82117 0.00054
C 2.29942 7.15136 -0.01378
C 6.09242 32.00271 0.03007
C 4.92075 29.85903 0.01572
C 4.85871 28.40613 -0.04848
C 6.15439 27.7063 -0.00892
C 6.12685 26.30521 -0.01362
C 4.96192 25.61333 -0.0008
C 4.96349 24.15557 0.0288
C 6.2569 23.47307 0.00393
C 6.30174 22.03293 0.00895
C 6.15749 30.58255 -0.00095
C 2.3275 8.56559 -0.01303
C 3.55111 9.26575 0.00848
C 3.58593 10.72367 -0.00049
C 3.70237 30.60064 0.017
C 2.45336 29.95154 -0.03113
C 2.31194 28.5248 -0.02566
C 3.63304 27.79729 -0.00094
C 3.65743 26.26884 0.02322
C 2.38747 25.63289 -0.00725
C 2.45857 24.20206 -0.05697
C 3.76243 23.46166 0.01087
C 3.81964 21.99797 -0.01343
C 2.49457 21.34333 0.00988
C 2.52346 19.91647 0.0276
C 3.77744 19.18154 0.01305
C 3.69777 17.76196 -0.00077
C 2.40272 17.13798 0.03368
C 2.51136 15.77868 -0.02929
C 3.6404 14.99835 -0.00966
C 3.71123 13.47182 -0.03337
C 2.39691 12.83901 0.01227
C 2.45783 11.46505 0.00873
C 5.00819 21.36951 0.00685
C 5.03757 19.95292 0.02888
C 6.28006 19.23692 -0.00482
C 6.16871 17.72995 -0.01384
C 8.6331 26.37129 0.03589
C 7.42926 25.64041 -0.02759
C 7.49738 24.19742 0.0402
C 8.74944 23.39663 0.00572
C 8.75647 22.03348 0.03592
C 7.57449 21.32825 0.00406
C 7.55236 19.82599 0.00943
C 8.86945 19.06989 0.02841
C 8.70839 17.61919 -0.01111
C 7.48144 17.10243 -0.01275
C 7.40303 15.64857 0.00985
C 8.65394 15.03923 -0.02245
C 8.7246 13.7108 -0.00428
C 7.39506 12.81944 0.03101
C 7.33264 11.34259 -0.01536
C 8.55097 10.64707 -0.02689
C 8.40188 9.27515 -0.01046
C 7.18485 8.49431 -0.00891
C 7.29593 7.12358 0.02819
C 8.55096 27.74943 -0.00033
C 20.90624 27.57957 0.00742
C 7.41847 28.47163 -0.01062
C 8.61159 30.65928 -0.00719
C 4.95633 17.05901 0.03693
C 4.9609 15.69441 0.01745
C 6.15444 14.92759 0.00488
C 6.17056 13.48861 -0.01004
C 4.94262 12.77421 -0.02896
C 4.86627 11.37134 -0.00131
C 6.10193 10.68555 -0.01118
C 6.01281 9.28545 -0.014
C 4.81022 8.58303 0.02147
C 4.8282 7.14533 0.00373
C 6.09175 6.47436 -0.00191
C 6.07219 5.06994 0.00438
C 4.83295 4.34214 0.01291
C 4.81962 2.92541 0.00093
C 5.95426 2.25861 0.00057
C 5.99483 0.83273 -0.01634
C 4.81078 0.18132 -0.00334
C 7.32068 32.69114 0.02339
C 8.56426 32.04644 0.01641
C 7.38189 29.84651 0.01364
C 20.78276 26.08736 -0.01594
C 19.55279 25.38132 0.0106
C 19.79018 7.0506 -0.01154
C 29.49809 0.05189 0.00346
C 31.83481 32.67101 0.01713
C 33.14147 32.04053 -0.01694
C 33.08895 30.56142 0.01428
C 31.88861 29.8174 -0.02142
C 31.87806 28.3879 0.0544
C 33.10484 27.75959 0.00026
C 33.07432 26.32207 0.00682
C 30.73583 0.77643 0.00307
C 31.88006 25.53309 -0.01779
C 33.12233 23.44606 0.01927
C 33.11556 22.03163 0.01574
C 31.87347 21.31264 -0.02383
C 31.87529 19.91868 -0.01429
C 33.09553 19.27827 -0.0136
C 33.10254 17.86187 0.00594
C 31.90721 17.131 -0.02474
C 31.95521 15.61001 0.00369
C 31.89116 24.15756 0.03794
C 30.77173 2.18619 0.00716
C 29.5091 2.79675 0.02108
C 29.52311 4.24486 0.0103
C 29.4438 24.09786 -0.02049
C 30.64291 23.37382 -0.01854
C 30.59526 22.05144 -0.01415
C 29.46954 21.25798 -0.03039
C 29.49127 19.84795 0.01836
C 30.67773 19.16074 0.03531
C 30.73291 17.77542 -0.00669
C 29.5606 16.93026 0.0101
C 29.45072 15.51118 0.01705
C 30.70213 14.8407 -0.0405
C 30.62768 13.40893 -0.01303
C 29.41428 12.72925 -0.01461
C 29.52664 11.32218 -0.02155
C 30.73779 10.6074 -0.00944
C 30.68293 9.28692 -0.03735
C 29.49531 8.41382 -0.00971
C 29.44285 7.07099 0.01518
C 30.70117 6.4607 0.01908
C 30.76391 5.06165 0.07705
C 33.17864 14.94832 0.00455
C 33.18741 13.46932 -0.00644
C 31.80638 12.80011 -0.01839
C 31.91113 11.35085 0.00137
C 34.37948 19.9679 0.01951
C 1.25743 19.1924 -0.01678
C 1.22912 17.79063 0.01223
C 34.39943 17.09635 0.00648
C 34.36884 15.71678 0.02114
C 1.22178 15.10888 -0.02957
C 1.22148 13.63202 0.00343
C 34.40473 12.83709 -0.02656
C 34.35305 11.43903 -0.02442
C 1.14372 10.793 -0.00027
C 1.10647 9.27497 -0.00583
C 34.36596 8.56016 -0.02302
C 0.0022 7.1449 -0.02849
C 1.15689 6.43871 0.02931
C 1.12252 5.06979 0.00628
C 0.02091 4.26186 -0.0345
C 34.42979 2.89375 -0.00931
C 1.16068 2.18432 -0.00939
C 1.19845 0.78464 -0.00468
C 34.34879 21.3325 -0.02213
C 29.41382 25.57789 0.03265
C 1.20692 22.07633 0.02712
C 34.39357 24.17969 0.03076
C 33.13761 10.67406 0.00199
C 33.15173 9.25986 0.04381
C 31.93952 8.58176 0.02806
C 31.90488 7.22298 0.01504
C 33.1707 6.52138 -0.00069
C 33.21814 5.00931 0.04926
C 31.95511 4.33105 -0.03838
C 31.94552 2.96617 0.00349
C 33.17904 2.19302 -0.00323
C 33.11365 0.74007 -0.00841
C 31.90733 0.02559 0.0001
C 34.37166 32.70295 -0.02927
C 1.17907 32.05984 -0.01404
C 1.2118 30.5869 0.01027
C 34.37027 29.94709 0.01831
C 34.34248 28.52213 -0.01037
C 1.09457 27.75877 -0.00439
C 1.07431 26.33826 -0.00598
C 34.30196 25.58454 -0.05239
C 1.20936 23.43356 0.00723
C 3.66373 32.02026 -0.00643
C 30.58425 26.33836 0.00261
C 29.41617 28.42923 0.00924
C 22.04216 2.85015 0.01515
C 23.22437 2.04984 -0.00225
C 23.33711 0.72314 0.00071
C 22.06888 0.08235 -0.01107
C 24.49309 32.60835 -0.01586
C 25.66125 31.9454 -0.01971
C 25.59557 30.46251 -0.02118
C 24.43493 29.73938 0.00733
C 22.11009 4.23166 -0.0055
C 24.44925 28.36375 -0.00178
C 25.78051 26.28609 -0.0276
C 24.58497 25.48507 0.03005
C 24.51043 24.08891 -0.04078
C 25.69964 23.37929 0.02117
C 25.73649 21.95201 0.02737
C 25.47073 12.71163 -0.00498
C 24.79711 11.62654 0.00135
C 25.84177 10.6303 0.03102
C 25.71523 27.66757 0.00768
C 23.25742 5.01075 0.02734
C 23.41981 6.39075 0.01153
C 22.15878 7.20112 0.02239
C 20.95593 6.33339 -0.01721
C 20.89601 4.96591 -0.02422
C 19.66709 4.2913 0.01277
C 19.66384 2.81733 0.00096
C 20.83261 2.12624 -0.01527
C 20.83882 0.68576 0.01087
C 19.60921 34.06309 0.00199
C 21.9659 32.72503 0.01511
C 23.21774 31.87803 -0.00478
C 23.19649 30.46119 -0.01662
C 21.98453 29.8371 -0.01185
C 22.06528 28.42403 0.01126
C 23.2816 27.63236 0.01852
C 23.26778 26.15887 -0.00381
C 21.97979 25.5226 0.03046
C 22.10113 24.0204 0.0296
C 23.15846 23.53337 0.03374
C 23.31582 9.09962 -0.02845
C 22.26285 8.54327 -0.03213
C 25.85945 9.28823 0.02555
C 24.66425 8.50355 0.01423
C 24.57552 7.08606 -0.00285
C 25.77649 6.35364 -0.009
C 28.07115 14.81189 0.00152
C 28.14029 13.46691 0.01257
C 26.94582 12.69151 0.02316
C 27.10511 11.29572 0.04185
C 28.30277 10.55858 0.00194
C 28.30099 9.15406 -0.00621
C 27.07375 8.4653 0.02611
C 26.97812 7.09545 0.02198
C 28.28067 6.33113 0.01094
C 28.21573 4.95001 0.00235
C 26.99099 4.16671 0.01495
C 27.042 2.79924 0.01259
C 28.27855 2.05691 0.01799
C 28.24794 0.71457 0.01699
C 26.98913 34.06607 -0.00416
C 29.38342 32.69281 0.01177
C 30.66895 32.00012 0.04266
C 30.65746 30.59483 0.01324
C 29.38607 29.86232 0.0014
C 26.97959 15.69003 -0.00294
C 30.60254 27.71755 0.02326
C 27.17617 16.86433 0.00826
C 28.27758 19.13398 -0.00942
C 25.77961 4.95416 -0.01199
C 24.49622 4.26966 -0.00229
C 24.53618 2.81428 -0.00938
C 25.74419 2.10106 -0.0264
C 25.83245 0.72497 -0.01154
C 24.53419 34.00799 0.00684
C 26.86927 32.65768 -0.01052
C 28.10373 31.93566 -0.01679
C 28.10782 30.53455 0.00367
C 26.89733 29.75081 0.04306
C 27.00874 28.3458 0.00996
C 28.25804 27.69143 0.00195
C 28.20949 26.25876 -0.00802
C 26.94807 25.58699 -0.00218
C 26.89781 24.12133 -0.01654
C 28.16452 23.45159 -0.00037
C 28.1841 21.93259 -0.0032
C 26.8778 21.20972 0.00622
C 27.03599 19.83036 -0.02815
C 28.34121 17.70523 0.00487
C 2.44379 32.7231 0.0086
