366
Graphene
C 34.42012 0.04172 0.01295
C 14.62158 21.25878 0.00374
C 15.73767 9.44086 0.00052
C 14.94406 8.39136 -0.03682
C 14.70311 7.19957 0.01965
C 16.04723 5.01316 0.02058
C 14.88272 4.35194 -0.01957
C 14.76158 2.84788 -0.0108
C 15.97506 2.12956 -0.00368
C 15.95595 21.88363 -0.02813
C 15.99192 0.66575 -0.02696
C 17.3844 32.65806 0.00228
C 18.48909 31.93381 0.00798
C 18.48385 30.50689 0.00422
C 17.3272 29.86475 0.0351
C 17.07614 28.4917 -0.03113
C 18.40452 27.60435 0.02098
C 18.36772 26.19729 0.01848
C 17.15534 25.44223 -0.00619
C 14.86137 33.94393 -0.00114
C 15.88513 23.3229 -0.01952
C 14.68546 24.10277 0.05265
C 14.73426 25.55714 -0.01717
C 11.028 0.64272 -0.02971
C 9.76756 0.03739 0.02894
C 12.38947 28.44191 -0.01789
C 13.54919 27.81242 0.00444
C 13.58821 26.33241 -0.00925
C 12.30056 25.60999 0.01877
C 12.29987 24.1811 0.01363
C 13.45322 23.42046 -0.02162
C 13.71723 21.98689 0.00415
C 12.35335 7.25487 -0.0014
C 13.46281 6.46599 0.02162
C 13.52084 5.02533 0.0076
C 12.3415 4.24703 0.01241
C 12.27684 2.79487 -0.01454
C 13.53089 2.05116 0.01945
C 13.62646 0.45319 0.01416
C 12.19201 34.00211 0.03542
C 15.88615 27.63001 0.02299
C 15.94374 26.30846 0.00244
C 17.11876 24.00656 -0.02162
C 18.43779 23.43781 0.00889
C 18.46844 22.06167 -0.00481
C 17.27507 21.32689 0.00979
C 20.78278 19.22564 -0.00111
C 20.90683 17.80501 -0.03557
C 19.6497 17.02385 0.03754
C 19.64114 15.62943 0.01739
C 20.89114 14.91057 0.00755
C 20.86345 13.4415 -0.0054
C 19.60368 12.80302 0.00667
C 19.64655 11.30919 0.00143
C 20.92405 10.67073 -0.017
C 19.7525 2.74608 0.00364
C 20.93097 2.14836 -0.00831
C 21.00921 0.68121 -0.02957
C 19.73339 34.0453 -0.04422
C 22.21866 32.57663 0.00654
C 23.39773 31.93231 -0.00703
C 23.28401 30.49025 -0.04076
C 22.02588 29.72688 -0.00652
C 22.12235 28.3305 0.0058
C 23.38056 27.67251 -0.00865
C 19.60307 19.92198 0.04892
C 11.07055 2.11424 0.00165
C 19.65604 21.30566 0.01452
C 20.87699 23.41777 0.02691
C 17.25026 19.96809 0.01443
C 18.30828 19.12073 0.03505
C 18.50583 17.75814 -0.02815
C 18.51767 14.8253 -0.04147
C 18.57365 13.56842 -0.05302
C 18.46092 10.75456 0.00213
C 17.15557 2.83896 -0.00066
C 18.48316 2.25776 -0.00289
C 18.43359 0.67418 0.00028
C 17.22449 34.05964 -0.02213
C 19.73801 32.63909 0.03698
C 20.93315 31.97707 -0.00109
C 20.87669 30.52742 -0.00491
C 19.67866 29.79773 0.03338
C 19.59594 28.37804 -0.0258
C 20.86239 27.7041 -0.0331
C 20.91039 26.26207 -0.00316
C 19.64877 25.5262 0.02188
C 19.59707 24.18661 -0.01979
C 20.81029 22.05575 -0.01581
C 9.79455 2.81536 0.02819
C 9.78019 4.21663 -0.00891
C 11.0528 4.87739 -0.01046
C 3.71624 6.41659 -0.00049
C 3.78043 4.99189 0.00848
C 2.50685 4.32054 -0.01303
C 2.48345 2.86299 -0.01378
C 3.64891 2.21013 0.02635
C 3.62072 0.74745 0.0127
C 2.42742 0.02294 0.01396
C 4.94185 32.75118 0.01849
C 6.11778 31.99968 -0.01142
C 6.12751 30.53957 -0.00562
C 4.94032 29.82353 -0.00494
C 4.93582 28.42314 0.00054
C 6.14813 27.76521 0.03007
C 6.09831 26.33051 -0.00095
C 4.94162 25.55552 0.01572
C 4.95445 24.11644 -0.04848
C 6.16255 23.4675 -0.00892
C 6.17451 22.01039 -0.01362
C 4.93073 21.25688 -0.0008
C 2.41904 7.08418 0.00873
C 4.85426 19.93805 0.0288
C 2.48643 8.5777 0.01227
C 3.76684 10.71352 -0.00966
C 3.73519 30.58874 -0.00074
C 2.52038 29.78445 -0.00518
C 2.49511 28.39465 0.0086
C 3.71267 27.63379 -0.00643
C 3.69487 26.19086 0.017
C 2.3758 25.67424 -0.03113
C 2.37706 24.16588 -0.02566
C 3.65546 23.48309 -0.00094
C 3.60972 22.09764 0.02322
C 2.41706 21.31435 -0.00725
C 2.4732 19.83958 -0.05697
C 3.7947 19.02959 0.01087
C 3.66933 17.63858 -0.01343
C 2.45427 17.09301 0.00988
C 2.4195 15.63024 0.0276
C 3.51414 14.88023 0.01305
C 3.64986 13.69039 -0.00077
C 2.50518 12.76447 0.03368
C 2.40671 11.42189 -0.02929
C 3.72976 9.26276 -0.03337
C 23.37373 26.23546 0.00675
C 4.84386 11.46588 0.00393
C 4.97742 8.58708 0.00685
C 8.57761 4.91802 0.01364
C 7.31471 4.23028 -0.01062
C 7.40693 2.85106 -0.00033
C 8.60997 2.15814 0.03589
C 8.53821 0.76534 -0.02759
C 7.32578 0.07091 0.0402
C 9.86371 32.70023 0.00572
C 11.18681 31.94579 0.03592
C 11.19328 30.57505 0.00406
C 9.88541 29.86954 0.00943
C 9.85224 28.37272 0.02841
C 11.09894 27.72267 -0.01111
C 11.01741 26.2148 -0.01275
C 9.74006 25.54799 0.00985
C 9.7526 24.1188 -0.02245
C 11.06752 23.41268 -0.00428
C 11.00682 22.12423 0.03101
C 9.82327 6.92248 -0.01536
C 11.14866 6.53761 -0.02689
C 8.57254 6.37089 -0.00719
C 6.24011 9.19762 0.00895
C 7.39463 7.11852 0.01641
C 7.38858 21.4064 -0.00334
C 4.91063 7.16973 0.02888
C 6.14977 6.4439 -0.00482
C 6.17188 5.02126 -0.01384
C 4.94876 4.29774 0.03693
C 4.94316 2.87128 0.01745
C 6.20371 2.2239 0.00488
C 6.16048 0.83979 -0.01004
C 4.93155 0.09424 -0.02896
C 7.35535 32.71127 -0.00131
C 8.55093 32.02189 -0.01118
C 8.62568 30.56811 -0.014
C 7.33093 29.80593 0.02147
C 7.37377 28.41903 0.00373
C 8.55971 27.658 -0.00191
C 8.51211 26.26682 0.00438
C 7.3488 25.62211 0.01291
C 7.33392 24.22332 0.00093
C 8.58505 23.46235 0.00057
C 8.44112 22.0783 -0.01634
C 7.23379 8.48881 0.02339
C 22.12921 25.63025 -0.00311
C 22.06536 24.19512 0.00742
C 23.22884 23.49468 -0.01594
C 30.7424 0.74336 0.00307
C 29.52652 0.07155 0.00346
C 31.92481 32.66391 0.01713
C 33.13216 31.95408 -0.01694
C 33.18457 30.54458 0.01428
C 31.94246 29.83749 -0.02142
C 31.87255 28.42645 0.0544
C 33.10346 27.68516 0.00026
C 33.17962 26.30672 0.00682
C 31.95982 25.53414 -0.01779
C 31.94511 24.1573 0.03794
C 33.13899 23.46059 0.01927
C 33.20487 22.0599 0.01574
C 31.9593 21.31594 -0.02383
C 31.98956 19.89681 -0.01429
C 33.26395 19.22803 -0.0136
C 33.2729 17.75384 0.00594
C 32.01284 17.08727 -0.02474
C 31.93251 15.69186 0.00369
C 30.80077 2.20616 0.00716
C 33.1503 14.91246 0.00455
C 29.50986 2.83744 0.02108
C 30.69858 5.00513 0.07705
C 29.49425 25.56578 0.03265
C 29.47362 24.16475 -0.02049
C 30.70673 23.42535 -0.01854
C 30.75166 22.00982 -0.01415
C 29.48278 21.26463 -0.03039
C 29.46044 19.87215 0.01836
C 30.76596 19.21468 0.03531
C 30.74952 17.77309 -0.00669
C 29.62753 16.96603 0.0101
C 29.5728 15.55853 0.01705
C 30.76096 14.87967 -0.0405
C 30.73111 13.46781 -0.01303
C 29.5159 12.79288 -0.01461
C 29.59382 11.35477 -0.02155
C 30.74077 10.62443 -0.00944
C 30.65844 9.15225 -0.03735
C 29.44625 8.49806 -0.00971
C 29.44184 7.13683 0.01518
C 30.66514 6.35957 0.01908
C 29.55553 4.26081 0.0103
C 30.76236 26.24363 0.00261
C 33.11083 13.49879 -0.00644
C 32.01267 11.30268 0.00137
C 0.09175 19.89424 0.01951
C 1.27775 19.13798 -0.01678
C 1.18989 17.72033 0.01223
C 34.41634 17.05182 0.00648
C 34.40899 15.60059 0.02114
C 1.20275 14.91776 -0.02957
C 1.27267 13.49278 0.00343
C 0.01251 12.87919 -0.02656
C 0.03209 11.39078 -0.02442
C 1.23158 10.67755 -0.00027
C 1.17291 9.27353 -0.00583
C 34.39622 8.55231 -0.02302
C 34.39731 7.11917 -0.02849
C 1.24283 6.45917 0.02931
C 1.30559 5.00814 0.00628
C 0.05373 4.25296 -0.0345
C 34.42121 2.8211 -0.00931
C 1.21843 2.15716 -0.00939
C 1.21934 0.77171 -0.00468
C 0.02104 21.29511 -0.02213
C 31.96116 12.77145 -0.01839
C 1.25039 22.05653 0.02712
C 34.41239 24.18747 0.03076
C 33.25321 10.674 0.00199
C 33.13879 9.2291 0.04381
C 31.86403 8.47243 0.02806
C 31.92138 7.05879 0.01504
C 33.19393 6.35016 -0.00069
C 33.26314 4.95976 0.04926
C 31.97179 4.29313 -0.03838
C 31.97405 2.87437 0.00349
C 33.16047 2.12222 -0.00323
C 33.17448 0.72086 -0.00841
C 31.96797 0.00424 0.0001
C 34.3853 32.68961 -0.02927
C 1.20871 31.93174 -0.01404
C 1.29247 30.54098 0.01027
C 0.03666 29.85742 0.01831
C 34.35706 28.39441 -0.01037
C 1.18976 27.81431 -0.00439
C 1.14072 26.35967 -0.00598
C 34.40584 25.58381 -0.05239
C 1.19094 23.45633 0.00723
C 3.74631 31.99699 0.01465
C 30.6442 27.63481 0.02326
C 29.49375 29.78023 0.0014
C 25.82754 30.4892 0.02734
C 24.51778 29.82616 -0.0055
C 24.53236 28.41558 0.01515
C 25.72757 27.67547 -0.00225
C 25.78237 26.23913 0.00071
C 24.57891 25.53465 -0.01107
C 24.51888 24.12069 -0.01586
C 25.76344 23.40991 -0.01971
C 25.80084 22.00183 -0.02118
C 24.52306 21.26218 0.00733
C 24.4964 19.83037 -0.00178
C 25.75608 19.11057 0.00768
C 25.78871 17.69372 -0.0276
C 24.54261 16.96494 0.03005
C 24.56184 15.60589 -0.04078
C 25.86276 14.90697 0.02117
C 25.7993 13.46717 0.02737
C 24.55817 12.71849 -0.00498
C 24.5962 11.29702 0.00135
C 25.73706 31.8846 0.01153
C 25.88378 10.62745 0.03102
C 24.5772 32.57792 0.02239
C 23.38689 0.72048 -0.02845
C 23.23209 22.02203 0.0106
C 22.04339 21.29664 -0.01154
C 22.11067 19.89264 -0.01721
C 23.28438 19.15022 -0.02422
C 23.30922 17.71302 0.01277
C 22.08813 17.07125 0.00096
C 22.08104 15.61157 -0.01527
C 23.31041 14.858 0.01087
C 23.31279 13.44313 0.00199
C 22.09188 12.71038 0.01511
C 22.11956 11.25379 -0.00478
C 23.42154 10.55877 -0.01662
C 23.41643 9.12918 -0.01185
C 22.27157 8.40786 0.01126
C 23.40954 6.4318 0.01852
C 23.27931 4.9991 -0.00381
C 22.12867 4.2332 0.03046
C 22.19961 2.83391 0.0296
C 23.42593 2.14905 0.03374
C 22.18734 34.0427 -0.03213
C 29.47858 28.37341 0.00924
C 25.87803 9.22528 0.02555
C 24.59639 7.0742 -0.00285
C 27.11264 15.63799 -0.00294
C 28.30506 14.89966 0.00152
C 28.28704 13.47566 0.01257
C 27.06903 12.7748 0.02316
C 27.06245 11.35322 0.04185
C 28.30771 10.68455 0.00194
C 28.27483 9.27273 -0.00621
C 27.09511 8.50995 0.02611
C 27.08717 7.11993 0.02198
C 28.28902 6.36402 0.01094
C 28.28459 4.97104 0.00235
C 27.10391 4.30007 0.01495
C 27.04401 2.87796 0.01259
C 28.27666 2.17299 0.01799
C 28.28759 0.72027 0.01699
C 27.01771 0.00029 -0.00416
C 29.49534 32.66799 0.01177
C 30.70517 31.95556 0.04266
C 30.71626 30.55438 0.01324
C 27.07729 17.03034 0.00826
C 24.6751 8.44671 0.01423
C 28.37114 17.64912 0.00487
C 27.02722 19.83365 -0.02815
C 25.86472 6.40148 -0.009
C 25.91387 5.09506 -0.01199
C 24.65553 4.21829 -0.00229
C 24.61139 2.83897 -0.00938
C 25.83339 2.11586 -0.0264
C 25.76699 0.68244 -0.01154
C 24.6522 34.03407 0.00684
C 26.99159 32.65818 -0.01052
C 28.1767 31.95763 -0.01679
C 28.27596 30.48858 0.00367
C 26.98505 29.74895 0.04306
C 27.01518 28.37972 0.00996
C 28.19897 27.65426 0.00195
C 28.25447 26.23705 -0.00802
C 27.01159 25.55663 -0.00218
C 27.01537 24.13642 -0.01654
C 28.22859 23.44711 -0.00037
C 28.24156 21.97677 -0.0032
C 27.04463 21.25275 0.00622
C 28.27539 19.09158 -0.00942
C 2.46745 32.67676 -0.03996
