416
Graphene
C 34.34104 34.06014 0.01295
C 12.33388 28.47004 -0.01111
C 13.49466 27.7565 -0.01275
C 13.63106 26.28683 0.00985
C 12.35893 25.50775 -0.02245
C 12.37031 24.13615 -0.00428
C 13.65791 23.3758 0.03101
C 13.44934 21.87559 -0.01536
C 12.19839 21.36057 -0.02689
C 12.23901 19.83233 -0.01046
C 13.50818 19.22103 -0.00891
C 12.28706 29.90138 0.02841
C 13.50857 17.81204 0.02819
C 12.33561 15.58793 -0.02971
C 13.58922 14.86126 0.02894
C 13.46704 13.4959 -0.01789
C 12.25769 12.76428 0.00444
C 12.28406 11.32352 -0.00925
C 13.47429 10.624 0.01877
C 13.5667 9.15375 0.01363
C 12.26074 8.42014 -0.02162
C 12.30705 7.04704 0.00415
C 13.52541 6.29533 -0.0014
C 12.29478 17.06171 0.00165
C 13.46394 4.97306 0.02162
C 13.50441 30.58782 0.00943
C 12.27071 32.73992 0.03592
C 11.00171 22.00504 -0.00131
C 9.74907 21.36141 -0.01118
C 9.76931 19.92683 -0.014
C 11.03981 19.18346 0.02147
C 11.0741 17.75699 0.00373
C 9.80403 17.07016 -0.00191
C 9.8507 15.54814 0.00438
C 11.08836 14.94266 0.01291
C 11.07111 13.4467 0.00093
C 9.85815 12.84602 0.00057
C 13.53755 32.00247 0.00406
C 9.86541 11.41135 -0.01634
C 11.04331 9.18087 0.02339
C 9.82569 8.558 0.01641
C 9.77851 7.05431 -0.00719
C 10.99238 6.41044 0.01364
C 10.96978 4.98888 -0.01062
C 9.78451 4.30607 -0.00033
C 9.71792 2.8942 0.03589
C 11.00012 2.14795 -0.02759
C 11.03299 0.81238 0.0402
C 9.78844 0.13198 0.00572
C 11.04212 10.63788 -0.00334
C 11.11392 23.38251 -0.02896
C 12.24538 4.32723 0.0076
C 13.49302 2.16482 -0.01454
C 15.94856 2.1254 -0.00619
C 16.04348 0.70108 -0.02162
C 14.74971 0.07273 0.00889
C 17.29866 32.59141 -0.00481
C 18.48155 31.94937 0.00979
C 18.44795 30.59316 0.01443
C 17.19908 29.83208 0.03505
C 17.19547 28.41702 -0.02815
C 18.33596 27.61827 -0.04147
C 17.91828 26.11808 -0.05302
C 14.76123 2.84862 0.01848
C 17.12147 17.13009 0.00213
C 18.63301 15.13625 -0.00289
C 18.49429 13.61022 0.00028
C 17.13484 12.86917 -0.02213
C 17.10416 11.40263 0.03698
C 18.42452 10.67093 -0.00109
C 18.32476 9.249 -0.00491
C 17.1423 8.50818 0.03338
C 17.16895 7.08109 -0.0258
C 18.40161 6.38591 -0.0331
C 18.39798 4.92476 -0.00316
C 17.3083 15.67783 -0.00066
C 12.22532 2.82748 0.01241
C 14.78389 4.25511 0.02098
C 15.91509 6.36041 0.0351
C 13.44492 0.77768 0.01945
C 12.28386 0.06756 0.01416
C 14.7982 32.70841 0.03542
C 16.01836 31.9514 0.02299
C 15.98825 30.6004 0.00244
C 14.77525 29.88976 -0.01717
C 14.71615 28.47135 0.05265
C 15.95674 27.73057 -0.01952
C 16.21869 26.34342 -0.02813
C 14.9674 25.58241 0.00374
C 15.99114 4.90689 -0.03113
C 14.67674 24.19829 0.00052
C 14.72005 17.10198 0.01965
C 14.73515 15.67547 0.02058
C 15.9948 14.95282 -0.01957
C 15.92124 13.53411 -0.0108
C 14.67531 12.75736 -0.00368
C 14.74845 11.27827 -0.02696
C 15.91248 10.61611 -0.00114
C 15.87687 9.20015 0.00228
C 14.70745 8.51478 0.00798
C 14.72563 6.97854 0.00422
C 16.08249 17.64081 -0.03682
C 17.14411 4.21628 0.02188
C 9.9004 24.20346 -0.01004
C 11.11386 26.37817 0.01745
C 2.29317 2.90324 -0.03291
C 3.57757 2.15161 -0.04999
C 3.55817 0.80138 0.04505
C 2.37184 34.0715 0.03284
C 4.91371 32.68848 -0.04307
C 6.139 32.02113 0.03189
C 6.10031 30.60263 0.00031
C 4.83579 29.86915 -0.003
C 4.8921 28.43771 0.01402
C 6.14682 27.73024 0.02379
C 2.37111 4.21283 0.02769
C 6.15642 26.27481 0.00907
C 4.87691 24.25404 -0.01509
C 6.19528 23.52866 0.03267
C 6.14884 22.09542 0.02374
C 4.85477 21.3315 0.00402
C 4.85756 19.98514 0.0073
C 6.14524 19.2537 0.0174
C 6.17475 17.81061 0.03828
C 4.95201 17.07771 0.01226
C 4.94534 15.63933 -0.00279
C 6.14727 14.96307 0.01996
C 4.86082 25.61138 0.00643
C 6.14749 13.50482 -0.03996
C 3.57475 5.05157 0.01707
C 2.43416 7.13025 -0.00561
C 3.57396 30.49536 -0.00407
C 2.44118 29.80549 0.01138
C 2.39468 28.33062 0.03278
C 3.67612 27.7194 -0.00177
C 3.60476 26.28938 0.04421
C 2.44526 25.53841 0.00088
C 2.45796 24.14234 0.00828
C 3.67991 23.50435 -0.02375
C 3.64361 22.079 0.00558
C 2.4379 21.33115 -0.0059
C 3.64711 6.37566 0.00208
C 2.43306 19.88491 -0.01386
C 3.76113 17.77546 0.00081
C 2.46519 17.07624 0.00245
C 2.47564 15.64244 0.02728
C 3.65945 14.93 -0.00039
C 3.69572 13.53956 0.0064
C 2.40777 12.74594 0.00211
C 2.43339 11.3826 -0.00449
C 3.63094 10.70174 -0.01979
C 3.60937 9.22395 0.02784
C 2.46624 8.49682 -0.01977
C 3.66984 19.14209 -0.02805
C 9.88575 25.6379 0.00488
C 4.94844 12.77072 0.01465
C 6.07528 10.68122 -0.00518
C 7.4478 15.66308 0.0127
C 8.69836 14.91278 0.01396
C 8.62249 13.51987 0.01849
C 7.43321 12.79287 -0.01142
C 7.35852 11.37418 -0.00562
C 8.54192 10.65246 -0.00494
C 8.54132 9.2681 0.00054
C 7.37752 8.56149 0.03007
C 7.31167 7.21106 -0.00095
C 8.51377 6.40177 0.01572
C 7.33521 17.12633 0.02635
C 8.44639 5.05216 -0.04848
C 7.33954 2.93989 -0.01362
C 8.52433 2.22976 -0.0008
C 8.51355 0.82017 0.0288
C 7.36269 0.13568 0.00393
C 9.76859 32.79832 0.00895
C 10.98891 32.07237 0.00685
C 11.03204 30.70319 0.02888
C 9.82943 29.94012 -0.00482
C 9.85035 28.50039 -0.01384
C 11.03176 27.77435 0.03693
C 7.30392 4.30333 -0.00892
C 4.91188 11.36702 -0.00074
C 8.56985 17.75967 -0.01378
C 7.37252 19.93527 0.00848
C 6.07702 9.25776 0.0086
C 4.88162 8.62108 -0.00643
C 4.84457 7.105 0.017
C 6.05112 6.51775 -0.03113
C 6.13857 5.04955 -0.02566
C 4.88888 4.32641 -0.00094
C 4.86824 2.90918 0.02322
C 6.08425 2.23455 -0.00725
C 6.08362 0.85505 -0.05697
C 4.82322 0.07442 0.01087
C 8.60581 19.23238 -0.01303
C 7.33012 32.73826 -0.01343
C 8.60231 30.66786 0.0276
C 7.33557 29.91486 0.01305
C 7.39567 28.52145 -0.00077
C 8.60175 27.79187 0.03368
C 8.64982 26.31937 -0.02929
C 7.39013 25.62013 -0.00966
C 7.37496 24.17303 -0.03337
C 8.65662 23.54829 0.01227
C 8.54168 22.10169 0.00873
C 7.28625 21.40311 -0.00049
C 8.60641 32.05632 0.00988
C 17.16708 2.79042 -0.01979
C 18.44847 2.13798 0.02691
C 18.43976 0.72829 -0.01581
C 30.79839 10.59529 -0.00944
C 30.79372 9.17487 -0.03735
C 29.5519 8.49911 -0.00971
C 29.55622 7.05061 0.01518
C 30.79105 6.33541 0.01908
C 30.81337 4.93467 0.07705
C 29.49184 4.25138 0.0103
C 29.48202 2.85253 0.02108
C 30.73747 2.1055 0.00716
C 30.73168 0.66736 0.00307
C 29.60992 11.35401 -0.02155
C 29.44655 0.0035 0.00346
C 33.10085 31.89431 -0.01694
C 33.16055 30.50887 0.01428
C 31.92923 29.84041 -0.02142
C 31.83493 28.28707 0.0544
C 33.07756 27.65761 0.00026
C 33.14747 26.18946 0.00682
C 31.86417 25.51267 -0.01779
C 31.90153 24.13921 0.03794
C 33.12537 23.45148 0.01927
C 33.16681 21.92278 0.01574
C 31.856 32.60664 0.01713
C 31.8668 21.2328 -0.02383
C 29.49565 12.81405 -0.01461
C 30.64294 17.79861 -0.0405
C 27.07047 7.08034 0.01495
C 28.29281 6.37746 0.01259
C 28.21513 4.97983 0.01799
C 27.05527 4.29969 0.01699
C 26.98824 2.83186 -0.00416
C 28.2857 2.16181 0.01177
C 28.22763 0.7096 0.04266
C 27.04781 0.00425 0.01324
C 29.4768 32.72291 0.0014
C 30.67706 32.04036 0.00924
C 30.77867 13.57499 -0.01303
C 30.6642 30.52899 0.02326
C 29.45617 28.40245 0.03265
C 30.64166 27.58856 -0.02049
C 30.64695 26.25293 -0.01854
C 29.4109 25.5037 -0.01415
C 29.44923 24.13305 -0.03039
C 30.65398 23.39157 0.01836
C 30.6962 21.9549 0.03531
C 29.41348 21.22868 -0.00669
C 29.43488 19.86693 0.0101
C 30.68188 19.11388 0.01705
C 29.44994 29.83534 0.00261
C 27.16023 8.44863 0.00235
C 31.92535 19.88083 -0.01429
C 33.00857 17.64598 0.00594
C 1.25532 23.47636 0.00723
C 1.17704 22.07804 0.02712
C 34.35144 21.28212 -0.02213
C 34.36643 19.88683 0.01951
C 1.2104 19.1978 -0.01678
C 1.24899 17.72233 0.01223
C 34.37731 17.00502 0.00648
C 0.00329 15.65326 0.02114
C 1.23874 14.914 -0.02957
C 1.21239 13.5471 0.00343
C 34.40359 24.15914 0.03076
C 34.40687 12.76892 -0.02656
C 1.2241 10.64472 -0.00027
C 1.18639 9.14368 -0.00583
C 34.37347 8.48693 -0.02302
C 34.39653 7.04252 -0.02849
C 1.2099 6.35442 0.02931
C 1.11949 4.94045 0.00628
C 34.36298 4.28777 -0.0345
C 34.39755 2.80245 -0.00931
C 1.10569 2.09549 -0.00939
C 1.06911 0.68326 -0.00468
C 0.00159 11.36389 -0.02442
C 33.16911 19.07771 -0.0136
C 34.42303 25.52244 -0.05239
C 1.16238 27.69734 -0.00439
C 31.6937 16.89489 -0.02474
C 31.84737 15.40949 0.00369
C 33.16384 14.99821 0.00455
C 33.25714 13.47661 -0.00644
C 31.95769 12.7732 -0.01839
C 32.0046 11.31515 0.00137
C 33.19669 10.66126 0.00199
C 33.21567 9.22573 0.04381
C 31.98904 8.5152 0.02806
C 31.95478 7.09132 0.01504
C 1.30355 26.26383 -0.00598
C 33.2241 6.35683 -0.00069
C 31.97739 4.21976 -0.03838
C 31.94294 2.7533 0.00349
C 33.18396 2.11664 -0.00323
C 33.17741 0.67333 -0.00841
C 31.92745 34.0594 0.0001
C 34.34916 32.59664 -0.02927
C 1.16248 31.91448 -0.01404
C 1.14492 30.52847 0.01027
C 34.37148 29.7671 0.01831
C 34.35874 28.35564 -0.01037
C 33.19538 4.92466 0.04926
C 28.36476 9.23643 0.01094
C 28.37423 10.65813 0.02198
C 27.14582 11.35783 0.02611
C 23.35192 31.95994 -0.01154
C 23.41487 30.48848 -0.01721
C 22.16402 29.71003 -0.02422
C 22.10491 28.31785 0.01277
C 23.34306 27.55875 0.00096
C 23.35907 26.22363 -0.01527
C 22.0819 25.51424 0.01087
C 23.38552 23.36194 0.00199
C 23.35575 22.17037 0.01511
C 23.20798 19.09525 -0.00478
C 22.12039 32.60599 0.0106
C 22.94464 17.75501 -0.01662
C 22.11338 15.44576 0.01126
C 23.38032 14.81131 0.01852
C 23.43739 13.40229 -0.00381
C 22.11839 12.73767 0.03046
C 22.08281 11.3558 0.0296
C 23.37524 10.67968 0.03374
C 23.30201 9.27723 -0.02845
C 22.09385 8.51891 -0.03213
C 22.07586 7.1412 0.02239
C 23.26676 6.38859 0.01153
C 21.87841 16.93017 -0.01185
C 23.35536 5.03606 0.02734
C 19.71307 0.04927 -0.01594
C 20.96182 2.19509 -0.00311
C 17.24866 33.98633 0.01452
C 19.71691 32.66583 0.04892
C 20.88955 31.90854 -0.00111
C 20.92232 30.42176 -0.03557
C 19.68469 29.74488 0.03754
C 19.57642 28.2927 0.01739
C 20.88545 27.58374 0.00755
C 21.0616 26.12715 -0.0054
C 20.64644 17.17063 0.00667
C 19.89963 15.75685 0.00143
C 20.96447 0.72161 0.00742
C 20.93567 14.81879 -0.017
C 19.63895 12.8491 -0.00831
C 19.62159 11.38943 -0.02957
C 20.85121 10.71374 -0.04422
C 20.84994 9.31151 0.00654
C 19.63999 8.63731 -0.00703
C 19.54686 7.14728 -0.04076
C 20.85192 6.44196 -0.00652
C 20.89652 4.9977 0.0058
C 19.66557 4.22133 -0.00865
C 19.65786 2.85819 0.00675
C 20.8853 13.48123 0.00364
C 22.16551 4.29578 -0.0055
C 22.11965 2.92027 0.01515
C 23.3209 2.10693 -0.00225
C 25.77218 6.42766 -0.01679
C 25.83529 5.00268 0.00367
C 24.58176 4.29055 0.04306
C 24.64625 2.93078 0.00996
C 25.78674 2.20195 0.00195
C 25.79822 0.75446 -0.00802
C 24.62166 0.03532 -0.00218
C 27.06718 32.70805 -0.01654
C 28.28826 32.02502 -0.00037
C 28.21756 30.55907 -0.0032
C 24.55413 7.13868 -0.01052
C 27.01879 29.79201 0.00622
C 28.26398 27.66612 -0.00942
C 28.24037 26.18982 0.00487
C 27.04041 25.51889 0.00826
C 26.94462 24.01256 -0.00294
C 28.21731 23.35556 0.00152
C 28.19525 21.90012 0.01257
C 26.9431 21.17688 0.02316
C 26.9856 19.76273 0.04185
C 28.30702 19.11372 0.00194
C 27.35109 12.73033 -0.00621
C 27.00195 28.36758 -0.02815
C 24.61424 8.56784 0.00684
C 25.86816 9.15525 -0.01154
C 25.9034 10.60224 -0.0264
C 23.34915 0.73924 0.00071
C 22.13653 0.00677 -0.01107
C 24.59344 32.67046 -0.01586
C 25.82156 31.92229 -0.01971
C 25.83 30.54662 -0.02118
C 24.5731 29.76574 0.00733
C 24.57639 28.29173 -0.00178
C 25.82582 27.61674 0.00768
C 25.81 26.20238 -0.0276
C 24.57054 25.57217 0.03005
C 24.55252 24.17358 -0.04078
C 25.76821 23.28803 0.02117
C 25.70697 21.86827 0.02737
C 24.47915 21.21554 -0.00498
C 24.44916 19.73913 0.00135
C 25.7685 19.08118 0.03102
C 25.65754 17.72529 0.02555
C 24.39437 17.01583 0.01423
C 24.62694 15.60204 -0.00285
C 25.88108 14.93157 -0.009
C 26.15318 13.48529 -0.01199
C 24.80521 12.82422 -0.00229
C 24.72907 11.47863 -0.00938
C 3.63096 31.93407 -0.01299
C 2.38331 32.62173 -0.0154
