328
Graphene
C 0.0257 0.05271 0.01295
C 12.42146 0.14926 -0.05302
C 14.68641 32.75046 0.00213
C 15.9684 32.10414 -0.00066
C 15.91138 30.63863 -0.00289
C 14.77322 29.90806 0.00028
C 14.76114 28.45252 -0.02213
C 15.90433 27.7163 0.03698
C 13.51377 0.84072 -0.04147
C 15.9663 26.2975 -0.00109
C 14.73885 24.18749 0.03338
C 15.95014 23.42353 -0.0258
C 15.90154 21.86669 -0.0331
C 14.62092 21.18836 -0.00316
C 14.72768 19.5338 0.02188
C 15.92891 18.85899 -0.01979
C 16.05293 0.71295 0.02691
C 14.77808 25.56308 -0.00491
C 13.33252 19.15195 -0.02815
C 12.25917 19.79767 0.03505
C 12.17581 21.26254 0.01443
C 9.77385 16.91462 -0.01957
C 9.5302 15.48065 -0.0108
C 9.80487 2.80107 -0.00368
C 10.96209 2.06933 -0.02696
C 11.13398 0.79097 -0.00114
C 9.86943 0.1208 0.00228
C 12.36393 32.8359 0.00798
C 13.50114 32.03349 0.00422
C 13.49667 30.57298 0.0351
C 12.22434 29.88082 -0.03113
C 12.27543 28.40059 0.02098
C 13.53225 27.67385 0.01848
C 13.48683 26.21972 -0.00619
C 12.25743 25.60687 -0.02162
C 12.27365 24.11726 0.00889
C 13.50872 23.46299 -0.00481
C 13.45227 22.01402 0.00979
C 14.82877 0.34403 -0.01581
C 10.96632 17.59894 0.02058
C 17.23002 32.78334 0.01452
C 18.47727 30.66719 -0.00111
C 19.5897 24.18726 -0.01594
C 20.83202 23.41063 0.0106
C 20.84192 22.00015 -0.01154
C 19.59369 21.29081 -0.01721
C 19.65663 19.91879 -0.02422
C 20.81796 19.25194 0.01277
C 20.87988 17.84078 0.00096
C 19.57086 25.60615 0.00742
C 21.10707 0.64381 -0.01527
C 22.19008 32.52649 0.00199
C 23.42272 31.8016 0.01511
C 23.35815 30.41281 -0.00478
C 22.10908 29.76984 -0.01662
C 22.0991 28.33729 -0.01185
C 23.30534 27.72086 0.01126
C 23.33921 26.21622 0.01852
C 19.80687 0.22695 0.01087
C 20.82841 26.33021 -0.00311
C 20.81487 27.68568 0.00675
C 19.58009 28.46273 -0.00865
C 17.13772 29.94506 -0.03557
C 17.10955 28.48648 0.03754
C 18.39528 27.7688 0.01739
C 18.41146 26.40017 0.00755
C 17.16404 25.68223 -0.0054
C 17.19958 24.18813 0.00667
C 18.37319 23.45218 0.00143
C 18.33679 22.0148 -0.017
C 17.09499 21.23162 0.00364
C 17.10912 19.71522 -0.00831
C 18.42192 19.29269 -0.02957
C 18.55627 0.75629 -0.04422
C 17.29123 0.11679 0.00654
C 19.84991 32.78182 -0.00703
C 20.96016 31.92086 -0.04076
C 21.01065 30.50939 -0.00652
C 19.73365 29.87148 0.0058
C 18.53841 32.15414 0.04892
C 22.04296 25.59519 -0.00381
C 11.01219 19.05049 0.01965
C 9.72343 21.1764 0.00052
C 4.9947 32.59441 -0.00191
C 6.23324 31.93916 0.00438
C 6.18535 30.57504 0.01291
C 4.92771 29.89981 0.00093
C 4.90825 28.47584 0.00057
C 6.08632 27.72967 -0.01634
C 6.12749 26.247 -0.00334
C 2.45677 34.0484 0.00373
C 4.89715 25.62731 0.02339
C 6.093 23.4776 -0.00719
C 6.15602 22.02045 0.01364
C 4.92934 21.38872 -0.01062
C 4.84458 20.03214 -0.00033
C 6.02455 19.00052 0.03589
C 5.93475 17.67254 -0.02759
C 4.68427 17.144 0.0402
C 4.8717 24.27655 0.01641
C 3.67366 0.63885 0.02147
C 3.70552 2.07575 -0.014
C 2.44555 2.84796 -0.01118
C 3.70668 30.50996 -0.04848
C 2.45579 29.87558 -0.00892
C 2.3731 28.44389 -0.01362
C 3.63341 27.72491 -0.0008
C 3.60396 26.37559 0.0288
C 2.4355 25.64042 0.00393
C 2.42421 24.17803 0.00895
C 3.64311 23.52887 0.00685
C 3.67047 22.11927 0.02888
C 2.41482 21.42243 -0.00482
C 2.29958 20.06631 -0.01384
C 3.52258 19.36425 0.03693
C 3.582 17.95219 0.01745
C 2.32477 17.25433 0.00488
C 2.56292 15.85238 -0.01004
C 3.86796 4.92317 -0.02896
C 2.57649 4.32607 -0.00131
C 4.10975 15.8072 0.00572
C 9.73464 19.76878 -0.03682
C 4.96996 4.1483 0.03592
C 6.20789 2.16278 0.00943
C 7.06355 4.3658 0.00415
C 7.40973 2.91646 -0.0014
C 8.63469 2.17706 0.02162
C 8.54041 0.81618 0.0076
C 7.26039 0.03094 0.01241
C 9.87734 32.78182 -0.01454
C 11.16797 32.03734 0.01945
C 7.77881 5.34396 -0.02162
C 11.06942 30.63768 0.01416
C 9.82331 28.43488 0.02299
C 11.02794 27.69363 0.00244
C 10.99902 26.21977 -0.01717
C 9.75099 25.51045 0.05265
C 9.71938 24.06635 -0.01952
C 10.98136 23.3865 -0.02813
C 10.94637 21.89457 0.00374
C 9.96602 29.92088 0.03542
C 8.31696 15.06661 0.01363
C 7.02154 15.36426 0.01877
C 7.0627 16.86227 -0.00925
C 6.12966 0.748 0.02841
C 4.96197 34.07956 -0.01111
C 7.4752 32.67269 -0.01275
C 8.69608 32.01974 0.00985
C 8.66256 30.46663 -0.02245
C 7.43296 29.88512 -0.00428
C 7.32491 28.50379 0.03101
C 8.56464 27.69951 -0.01536
C 8.57847 26.29143 -0.02689
C 7.33886 25.56126 -0.01046
C 7.3214 24.16913 -0.00891
C 8.51534 23.3883 0.02819
C 8.47937 21.97568 0.00165
C 7.28422 21.25351 -0.02971
C 7.26915 19.75383 0.02894
C 8.48783 19.02322 -0.01789
C 8.35446 17.65329 0.00444
C 4.96547 2.82022 0.00406
C 22.04721 24.10542 0.03046
C 23.33841 23.45706 0.0296
C 23.40595 22.01866 0.03374
C 31.8536 28.41769 0.00682
C 33.09754 27.68664 -0.01779
C 33.12518 26.25184 0.03794
C 31.88887 25.52893 0.01927
C 31.93196 24.18536 0.01574
C 33.1252 23.41104 -0.02383
C 33.14595 22.01298 -0.01429
C 31.97137 29.8661 0.00026
C 31.84907 21.28387 -0.0136
C 33.1271 19.17445 -0.02474
C 33.19838 17.75252 0.00369
C 31.92552 17.03659 0.00455
C 32.04581 15.61271 -0.00644
C 33.31958 14.90723 -0.01839
C 33.36582 13.43131 0.00137
C 31.96846 12.74527 0.00199
C 31.90415 19.86714 0.00594
C 33.15444 30.56251 0.0544
C 33.22885 32.00821 -0.02142
C 32.01148 32.73199 0.01428
C 29.45884 16.96477 -0.0405
C 29.5713 15.55355 -0.01303
C 30.80555 14.88238 -0.01461
C 30.7062 13.46937 -0.02155
C 29.44709 12.80333 -0.00944
C 29.39594 11.36719 -0.03735
C 30.60288 10.6607 -0.00971
C 30.69428 9.19042 0.01518
C 29.41148 8.47909 0.01908
C 29.41914 6.98749 0.07705
C 30.7171 6.31733 0.0103
C 30.70156 4.89262 0.02108
C 29.48595 4.22412 0.00716
C 29.43403 2.85073 0.00307
C 30.69692 2.21078 0.00346
C 30.68338 0.8639 0.01713
C 29.41567 0.1653 -0.01694
C 31.83083 11.3201 0.04381
C 30.6502 17.65478 0.01705
C 33.08715 10.66938 0.02806
C 32.00239 8.48098 -0.00069
C 1.12068 19.23113 0.00648
C 1.11924 17.91498 0.02114
C 0.03746 17.0392 -0.02957
C 0.15685 15.65491 0.00343
C 1.43285 14.84197 -0.02656
C 1.33553 13.42524 -0.02442
C 0.20846 12.65123 -0.00027
C 34.36345 19.92446 0.01223
C 0.00139 11.18991 -0.00583
C 0.0507 7.32567 -0.02849
C 1.18607 6.51536 0.02931
C 1.29308 5.14307 0.00628
C 0.05362 4.41605 -0.0345
C 34.4146 2.95653 -0.00931
C 1.18588 2.20503 -0.00939
C 1.22166 0.74282 -0.00468
C 34.35105 8.69492 -0.02302
C 34.3824 21.31424 -0.01678
C 1.18543 22.06108 0.01951
C 1.17197 23.45142 -0.02213
C 31.89746 7.09689 0.04926
C 33.23265 6.44458 -0.03838
C 33.27226 5.02971 0.00349
C 31.93002 4.34823 -0.00323
C 31.92162 2.88979 -0.00841
C 33.14399 2.17661 0.0001
C 33.20081 0.77862 -0.02927
C 31.9275 0.05688 -0.01404
C 34.36 32.69227 0.01027
C 1.20086 31.96953 0.01831
C 1.18268 30.55895 -0.01037
C 34.42774 29.8431 -0.00439
C 34.35155 28.3841 -0.00598
C 1.13016 27.70733 -0.05239
C 1.13567 26.31639 0.03076
C 34.29917 25.57953 0.00723
C 34.38537 24.14726 0.02712
C 33.12563 9.22195 0.01504
C 30.73093 19.18329 0.0101
C 29.48656 19.90198 -0.00669
C 29.46029 21.29691 0.03531
C 25.78417 19.18265 -0.00498
C 25.71166 17.69512 0.00135
C 24.43329 17.06941 0.03102
C 24.47358 15.58637 0.02555
C 25.59071 14.82647 0.01423
C 25.74128 13.42878 -0.00285
C 25.63316 10.59654 -0.009
C 24.50162 19.89506 0.02737
C 25.84533 9.20248 -0.01199
C 25.60695 4.95335 -0.00938
C 24.56556 4.1338 -0.0264
C 24.33919 2.77876 -0.01154
C 25.62277 2.12203 0.00684
C 25.67842 0.6222 -0.01052
C 24.58734 33.86585 -0.01679
C 27.03688 32.64963 0.00367
C 25.85766 6.34936 -0.00229
C 24.54462 21.35063 0.02117
C 25.83659 22.11064 -0.04078
C 25.88959 23.45183 0.03005
C 22.11124 21.33661 -0.02845
C 22.01212 19.97364 -0.03213
C 23.30187 19.1605 0.02239
C 23.21158 17.78377 0.01153
C 22.03754 17.0922 0.02734
C 23.37517 1.86231 -0.0055
C 23.42446 0.50033 0.01515
C 22.22044 33.91309 -0.00225
C 24.61458 32.46906 0.00071
C 25.8068 31.89671 -0.01107
C 25.81915 30.44933 -0.01586
C 24.61252 29.70065 -0.01971
C 24.54212 28.37871 -0.02118
C 25.81055 27.62436 0.00733
C 25.73706 26.26964 -0.00178
C 24.5371 25.50843 0.00768
C 24.57436 24.16268 -0.0276
C 28.26887 32.00842 0.04306
C 28.27117 30.51112 0.00996
C 27.05795 29.8186 0.00195
C 26.99684 28.47 -0.00802
C 28.18672 4.89537 0.01259
C 26.91214 4.3109 0.01799
C 26.89033 2.83848 0.01699
C 28.14265 2.14851 -0.00416
C 28.17265 0.71914 0.01177
C 26.84325 34.06218 0.04266
C 29.50716 32.72215 0.01324
C 30.67804 31.97365 0.0014
C 30.71785 30.58024 0.00924
C 29.53001 29.86604 0.02326
C 29.51683 28.4527 0.00261
C 30.61205 27.68494 0.03265
C 30.66301 26.27796 -0.02049
C 29.40096 25.59651 -0.01854
C 29.51116 24.13826 -0.01415
C 30.72502 23.41463 -0.03039
C 30.67606 22.03906 0.01836
C 28.22962 6.36061 0.01495
C 3.68429 31.90648 0.01572
C 26.95471 7.07895 0.00235
C 28.15688 9.2311 0.02198
C 28.19192 27.79035 -0.00218
C 28.18542 26.36658 -0.01654
C 27.03659 25.58163 -0.00037
C 27.03452 24.20347 -0.0032
C 28.28976 23.48158 0.00622
C 28.22521 22.02252 -0.02815
C 27.02942 21.36887 -0.00942
C 27.02903 20.00279 0.00487
C 28.27467 19.17886 0.00826
C 28.25684 17.72054 -0.00294
C 26.91202 16.96639 0.00152
C 26.9745 15.56463 0.01257
C 28.22332 14.8327 0.02316
C 28.18797 13.34392 0.04185
C 26.98731 12.72509 0.00194
C 26.83573 11.24938 -0.00621
C 28.14312 10.71147 0.02611
C 26.99326 8.45897 0.01094
C 2.48991 32.6571 -0.00095
