390
Graphene
C 0.01325 0.0248 0.01295
C 9.89865 2.81997 0.01363
C 11.03544 2.16373 -0.02162
C 11.04651 0.74586 0.00415
C 9.86667 34.07289 -0.0014
C 12.34496 32.70421 0.02162
C 13.54446 31.95029 0.0076
C 13.48082 30.49627 0.01241
C 12.26653 29.78759 -0.01454
C 12.26449 28.31954 0.01945
C 9.83525 4.24337 0.01877
C 13.55417 27.73689 0.01416
C 12.35366 25.52753 0.02299
C 12.33905 24.11919 0.00244
C 13.57299 23.40599 -0.01717
C 13.51824 22.05539 0.05265
C 12.2945 21.25414 -0.01952
C 12.28919 19.80936 -0.02813
C 13.48669 19.12844 0.00374
C 13.56076 17.68534 0.00052
C 12.27006 17.03179 -0.03682
C 13.5029 26.30942 0.03542
C 12.31066 15.58619 0.01965
C 11.0335 5.01065 -0.00925
C 9.76669 7.16068 -0.01789
C 9.86273 28.4407 0.0402
C 11.07632 27.70008 0.00572
C 11.06534 26.3008 0.03592
C 9.8405 25.57812 0.00406
C 9.81749 24.14612 0.00943
C 11.07113 23.43819 0.02841
C 11.0859 22.02582 -0.01111
C 9.84496 21.39845 -0.01275
C 9.81985 19.89482 0.00985
C 11.03919 6.44383 0.00444
C 11.0745 19.13026 -0.02245
C 9.84189 17.03263 0.03101
C 9.85248 15.62807 -0.01536
C 11.12912 14.90171 -0.02689
C 11.06823 13.4641 -0.01046
C 9.86189 12.80306 -0.00891
C 9.86877 11.32876 0.02819
C 11.02554 10.64875 0.00165
C 11.09009 9.23585 -0.02971
C 9.90533 8.52633 0.02894
C 11.05322 17.7785 -0.00428
C 13.54837 14.9021 0.02058
C 13.48069 13.56245 -0.01957
C 12.28652 12.80733 -0.0108
C 15.96983 19.11682 0.03698
C 15.98705 17.6807 -0.00109
C 14.75688 17.05069 -0.00491
C 14.74433 15.58896 0.03338
C 15.96887 14.92024 -0.0258
C 15.96427 13.50132 -0.0331
C 14.74247 12.78267 -0.00316
C 14.80001 11.41547 0.02188
C 16.00673 10.62239 -0.01979
C 14.78545 19.87713 -0.02213
C 15.99842 9.24788 0.02691
C 14.78293 7.06739 0.01452
C 15.95012 6.37556 0.04892
C 15.98644 4.959 -0.00111
C 14.76723 4.20625 -0.03557
C 14.79043 2.81173 0.03754
C 15.98116 2.14452 0.01739
C 15.93992 0.69602 0.00755
C 14.73304 0.0032 -0.0054
C 17.15264 32.69638 0.00667
C 14.75651 8.55065 -0.01581
C 14.77673 21.31105 0.00028
C 16.0208 21.98608 -0.00289
C 15.99093 23.41389 -0.00066
C 12.31698 11.38126 -0.00368
C 13.53815 10.65979 -0.02696
C 13.56503 9.23788 -0.00114
C 12.29907 8.54332 0.00228
C 12.29171 7.06542 0.00798
C 13.4811 6.38345 0.00422
C 13.52374 4.94622 0.0351
C 12.32168 4.26154 -0.03113
C 12.27138 2.82828 0.02098
C 13.5073 2.12475 0.01848
C 13.49948 0.73209 -0.00619
C 12.28653 0.01057 -0.02162
C 14.70402 32.66816 0.00889
C 15.96193 31.97847 -0.00481
C 16.00211 30.51649 0.00979
C 14.74455 29.8211 0.01443
C 14.74248 28.34282 0.03505
C 15.95495 27.6726 -0.02815
C 16.00528 26.2705 -0.04147
C 14.71786 25.56447 -0.05302
C 14.77146 24.12051 0.00213
C 9.8732 29.82667 -0.02759
C 11.03132 30.57275 0.03589
C 11.08341 31.92794 -0.00033
C 9.83381 32.69607 -0.01062
C 2.46001 4.27617 -0.00518
C 2.49746 2.88481 0.0086
C 3.69952 2.08279 -0.00643
C 3.66144 0.74125 0.017
C 2.44383 0.01656 -0.03113
C 4.89682 32.67046 -0.02566
C 6.13554 31.96026 -0.00094
C 6.12749 30.56052 0.02322
C 4.95089 29.75541 -0.00725
C 3.69729 4.9958 -0.00074
C 4.93096 28.40942 -0.05697
C 6.1525 26.27621 -0.01343
C 4.85738 25.62254 0.00988
C 4.91064 24.18948 0.0276
C 6.13497 23.42618 0.01305
C 6.11774 22.0222 -0.00077
C 4.88218 21.34111 0.03368
C 4.96967 19.82197 -0.02929
C 6.20067 19.19231 -0.00966
C 6.11416 17.74669 -0.03337
C 6.2132 27.68645 0.01087
C 3.70621 6.38729 0.01465
C 2.40938 7.08341 -0.03996
C 2.441 8.5985 0.01996
C 3.72731 30.51731 -0.03291
C 2.50506 29.79509 -0.04999
C 2.45728 28.39978 0.04505
C 3.72344 27.66038 0.03284
C 3.64392 26.2227 -0.04307
C 2.47879 25.52021 0.03189
C 2.38654 24.09957 0.00031
C 3.66582 23.51447 -0.003
C 3.63789 22.06242 0.01402
C 2.43371 21.32994 0.02379
C 2.49732 19.94128 0.00907
C 3.69104 19.11277 0.00643
C 3.70623 17.76315 -0.01509
C 2.48837 17.06399 0.03267
C 2.47524 15.65775 0.02374
C 3.71792 14.91205 0.00402
C 3.66451 13.44901 0.0073
C 2.44382 12.76643 0.0174
C 2.47788 11.3566 0.03828
C 3.70924 10.62233 0.01226
C 3.65519 9.27843 -0.00279
C 4.92496 17.09511 0.01227
C 18.42183 31.94566 0.00143
C 4.99659 15.63496 0.00873
C 6.18858 13.48031 0.00848
C 7.39245 19.90568 0.01745
C 8.56156 19.09505 0.00488
C 8.5644 17.73927 -0.01004
C 7.32506 17.07639 -0.02896
C 7.34027 15.59206 -0.00131
C 8.62229 14.88774 -0.01118
C 8.58716 13.50498 -0.014
C 7.35595 12.80356 0.02147
C 7.40802 11.32219 0.00373
C 7.36494 21.322 0.03693
C 8.60981 10.69071 -0.00191
C 7.39435 8.55051 0.01291
C 7.38699 7.0962 0.00093
C 8.62181 6.39394 0.00057
C 8.64256 5.0134 -0.01634
C 7.3894 4.27693 -0.00334
C 7.35957 2.88905 0.02339
C 8.65583 2.13946 0.01641
C 8.64187 0.76178 -0.00719
C 7.37103 0.03989 0.01364
C 8.66585 9.26899 0.00438
C 8.55791 22.0609 -0.01384
C 8.58467 23.46071 -0.00482
C 7.39292 24.13982 0.02888
C 4.88764 12.78573 -0.01303
C 4.93627 11.4131 -0.01378
C 6.17678 10.63967 0.02635
C 6.16419 9.22639 0.0127
C 4.89181 8.55396 0.01396
C 4.90691 7.1601 0.01849
C 6.18634 6.40691 -0.01142
C 6.09216 4.95358 -0.00562
C 4.88352 4.2615 -0.00494
C 4.92898 2.80432 0.00054
C 6.17007 2.10329 0.03007
C 6.10832 0.73777 -0.00095
C 4.86995 0.02877 0.01572
C 7.39478 32.70504 -0.04848
C 8.63274 31.90944 -0.00892
C 8.58289 30.54556 -0.01362
C 7.32192 29.84049 -0.0008
C 7.39662 28.40753 0.0288
C 8.602 27.74302 0.00393
C 8.54289 26.28514 0.00895
C 7.33805 25.57739 0.00685
C 6.14048 14.85836 -0.00049
C 18.45576 30.56682 -0.017
C 17.1838 29.84843 0.00364
C 17.23606 28.44788 -0.00831
C 29.51587 7.08201 0.07705
C 30.71771 6.3817 0.0103
C 30.74283 5.00257 0.02108
C 29.55031 4.24099 0.00716
C 29.53724 2.8579 0.00307
C 30.73344 2.10609 0.00346
C 30.71417 0.70865 0.01713
C 29.5091 34.07579 -0.01694
C 31.93311 32.69717 0.01428
C 29.5643 8.53326 0.01908
C 33.22145 31.90388 -0.02142
C 32.02261 29.80796 0.00026
C 31.95074 28.41446 0.00682
C 33.19682 27.71277 -0.01779
C 33.21021 26.28365 0.03794
C 31.98616 25.54296 0.01927
C 33.21234 23.37929 0.01574
C 33.21697 22.06579 -0.02383
C 32.02554 19.92578 -0.01429
C 33.19979 19.12254 -0.0136
C 33.24766 30.4972 0.0544
C 30.76837 9.24119 0.01518
C 30.7229 10.67718 -0.00971
C 29.51494 11.34754 -0.03735
C 28.26456 9.22849 0.04266
C 27.09709 8.47742 0.01324
C 27.0211 7.0527 0.0014
C 28.2592 6.392 0.00924
C 28.27453 4.92521 0.02326
C 27.00212 4.27499 0.00261
C 27.03776 2.82441 0.03265
C 28.29422 2.04848 -0.02049
C 28.31626 0.69839 -0.01854
C 27.05156 0.04814 -0.01415
C 29.59382 32.65884 -0.03039
C 30.74835 31.87561 0.01836
C 30.75426 30.5182 0.03531
C 29.55722 29.77674 -0.00669
C 29.49775 28.3715 0.0101
C 30.73539 27.67577 0.01705
C 30.7827 17.76944 -0.0405
C 29.51279 15.63011 -0.01303
C 30.74935 14.98012 -0.01461
C 30.74309 13.49861 -0.02155
C 29.5578 12.8078 -0.00944
C 33.15693 17.77508 0.00594
C 28.26518 10.6504 0.01177
C 31.96423 17.03775 -0.02474
C 33.24827 14.91977 0.00455
C 0.01199 21.29038 -0.02213
C 34.41278 19.84837 0.01951
C 1.23926 19.21345 -0.01678
C 1.23125 17.75386 0.01223
C 0.02355 17.06663 0.00648
C 34.3959 15.55058 0.02114
C 1.19859 14.89204 -0.02957
C 1.22467 13.49445 0.00343
C 0.05496 12.75905 -0.02656
C 1.16088 21.9958 0.02712
C 34.37098 11.37705 -0.02442
C 1.2177 9.19563 -0.00583
C 34.39712 8.52169 -0.02302
C 34.41491 7.05533 -0.02849
C 1.21277 6.42011 0.02931
C 1.22683 4.98734 0.00628
C 0.00284 4.23213 -0.0345
C 0.01 2.81343 -0.00931
C 1.22227 2.11857 -0.00939
C 1.20543 0.72276 -0.00468
C 1.2176 10.69216 -0.00027
C 1.24883 23.40266 0.00723
C 34.42387 24.14468 0.03076
C 34.40725 25.61617 -0.05239
C 33.23243 13.49451 -0.00644
C 31.95668 12.83391 -0.01839
C 31.93831 11.35651 0.00137
C 33.15709 10.64264 0.00199
C 33.18639 9.26814 0.04381
C 31.995 8.51319 0.02806
C 31.96886 7.11471 0.01504
C 33.17663 6.3692 -0.00069
C 33.18947 4.9615 0.04926
C 31.96318 4.2832 -0.03838
C 31.96564 2.92054 0.00349
C 33.20177 2.0754 -0.00323
C 33.19854 0.66613 -0.00841
C 31.92488 34.07189 0.0001
C 34.42996 32.67492 -0.02927
C 1.26338 31.96199 -0.01404
C 1.18229 30.47614 0.01027
C 34.40353 29.81106 0.01831
C 0.01596 28.41466 -0.01037
C 1.22411 27.6315 -0.00439
C 1.2127 26.28025 -0.00598
C 32.02067 15.56399 0.00369
C 3.7147 31.97415 0.02769
C 27.07823 11.36067 -0.00416
C 28.27035 13.46381 0.01799
C 18.48058 0.64411 0.01126
C 17.19075 34.04718 0.01852
C 19.65366 32.63628 -0.00381
C 20.91125 31.93518 0.03046
C 20.95893 30.49839 0.0296
C 19.663 29.82927 0.03374
C 19.61371 28.4023 -0.02845
C 19.61105 17.00424 -0.03213
C 19.69048 15.60914 0.02239
C 18.40301 2.12805 -0.01185
C 20.96125 14.89764 0.01153
C 19.68031 12.76657 -0.0055
C 19.58996 11.37561 0.01515
C 20.84157 10.61617 -0.00225
C 20.89143 9.24797 0.00071
C 19.67073 8.49016 -0.01107
C 19.71724 7.0557 -0.01586
C 20.946 6.36564 -0.01971
C 20.91729 4.95692 -0.02118
C 19.64527 4.27004 0.00733
C 20.89792 13.41464 0.02734
C 17.17216 2.81753 -0.01662
C 17.2007 4.28221 -0.00478
C 18.46831 4.92033 0.01511
C 18.52602 27.66272 -0.02957
C 18.40768 26.25042 -0.04422
C 17.21859 25.57425 0.00654
C 17.22127 24.12432 -0.00703
C 18.45803 23.3695 -0.04076
C 18.5104 22.07059 -0.00652
C 17.20828 21.28519 0.0058
C 17.22141 19.88332 -0.00865
C 18.49217 19.16886 0.00675
C 18.49825 17.77543 -0.00311
C 17.24812 17.05798 0.00742
C 17.24421 15.61565 -0.01594
C 18.48885 14.83645 0.0106
C 18.42924 13.50062 -0.01154
C 17.22237 12.7975 -0.01721
C 17.17836 11.41036 -0.02422
C 18.41531 10.63603 0.01277
C 18.42491 9.224 0.00096
C 17.17621 8.54481 -0.01527
C 17.22144 7.06415 0.01087
C 18.48308 6.38778 0.00199
C 19.64819 2.87068 -0.00178
C 27.05019 12.73584 0.01699
C 20.90213 2.17556 0.00768
C 19.71547 0.00751 0.03005
C 25.8588 13.46024 -0.00037
C 24.55405 12.75663 -0.0032
C 24.61242 11.37975 0.00622
C 25.81257 10.60753 -0.02815
C 25.94219 9.25262 -0.00942
C 24.56749 8.53098 0.00487
C 24.58435 7.08877 0.00826
C 25.82067 6.3848 -0.00294
C 25.75162 4.97071 0.00152
C 25.7847 14.93591 -0.01654
C 24.56601 4.25966 0.01257
C 25.80449 2.11562 0.04185
C 25.84922 0.68002 0.00194
C 24.52297 34.05763 -0.00621
C 27.06008 32.67897 0.02611
C 28.25726 31.9649 0.02198
C 28.27237 30.49409 0.01094
C 27.04269 29.85156 0.00235
C 26.99974 15.59167 0.01495
C 28.28759 14.92347 0.01259
C 24.57404 2.83558 0.02316
C 24.6166 29.78468 -0.00218
C 25.85242 30.52635 -0.00802
C 25.82076 31.94376 0.00195
C 22.11329 32.64491 -0.04078
C 23.41319 32.02995 0.02117
C 23.39026 30.53963 0.02737
C 22.13133 29.80873 -0.00498
C 22.15743 15.59909 0.00135
C 23.34127 14.93748 0.03102
C 23.31854 13.49551 0.02555
C 22.12919 12.76247 0.01423
C 22.18306 11.37131 -0.00285
C 23.39267 10.65733 -0.009
C 23.36332 9.2215 -0.01199
C 22.09356 8.5015 -0.00229
C 22.14956 7.15241 -0.00938
C 23.36142 6.40335 -0.0264
C 23.35617 4.96989 -0.01154
C 22.102 4.23765 0.00684
C 22.12996 2.79344 -0.01052
C 23.36585 2.11062 -0.01679
C 23.36838 0.71805 0.00367
C 22.16696 34.07472 0.04306
C 24.57635 32.70946 0.00996
C 20.94815 0.76019 -0.0276
C 2.43591 32.67026 0.01707
