442
Graphene
C 34.39494 34.07686 0.01295
C 12.2414 12.86549 0.00057
C 12.29364 11.37894 -0.01634
C 13.45686 10.66331 -0.00334
C 13.55164 9.27754 0.02339
C 12.31583 8.56667 0.01641
C 12.27017 7.16517 -0.00719
C 13.49089 6.32143 0.01364
C 13.4542 4.83238 -0.01062
C 12.27538 4.18513 -0.00033
C 12.30026 2.74884 0.03589
C 13.53786 2.0959 -0.02759
C 13.60599 0.68724 0.0402
C 12.37971 0.01258 0.00572
C 14.80925 32.64817 0.03592
C 16.0219 31.92121 0.00406
C 15.95049 30.5328 0.00943
C 14.74119 29.7159 0.02841
C 14.71627 28.29092 -0.01111
C 15.99809 27.62237 -0.01275
C 15.94549 26.22893 0.00985
C 14.73288 25.53329 -0.02245
C 14.76524 24.17009 -0.00428
C 16.0028 23.41171 0.03101
C 13.50041 13.55687 0.00093
C 13.51124 14.95624 0.01291
C 12.28318 15.70495 0.00438
C 12.34195 17.07081 -0.00191
C 9.87197 8.51836 0.03007
C 9.82485 7.09176 -0.00095
C 11.12676 6.42601 0.01572
C 11.1451 4.9934 -0.04848
C 9.85513 4.34846 -0.00892
C 9.82298 2.96137 -0.01362
C 11.02142 2.09011 -0.0008
C 11.08272 0.70393 0.0288
C 9.80593 0.01104 0.00393
C 12.37238 32.64703 0.00895
C 13.58362 31.92852 0.00685
C 15.99602 22.01366 -0.01536
C 13.52532 30.5218 0.02888
C 12.23816 28.3965 -0.01384
C 13.44839 27.62824 0.03693
C 13.52139 26.27771 0.01745
C 12.28848 25.57167 0.00488
C 12.30452 24.17669 -0.01004
C 13.49963 23.49599 -0.02896
C 13.47062 22.07798 -0.00131
C 12.29896 21.34528 -0.01118
C 12.38472 19.90627 -0.014
C 13.61188 19.21438 0.02147
C 13.5592 17.77357 0.00373
C 12.29872 29.80162 -0.00482
C 11.09493 9.27102 0.00054
C 14.70545 21.35261 -0.02689
C 15.98959 19.18483 -0.00891
C 18.46652 22.01395 0.01965
C 17.25134 21.32143 0.02058
C 17.29687 19.83158 -0.01957
C 18.49532 19.08953 -0.0108
C 18.40389 17.69192 -0.00368
C 17.17705 17.03751 -0.02696
C 17.19685 15.59274 -0.00114
C 18.44701 14.8367 0.00228
C 18.45274 13.4491 0.00798
C 17.23382 12.74572 0.00422
C 17.11695 11.39808 0.0351
C 18.41239 10.73251 -0.03113
C 18.40181 9.28852 0.02098
C 17.18046 8.55483 0.01848
C 17.21649 7.11961 -0.00619
C 18.45751 6.37113 -0.02162
C 18.45652 4.95454 0.00889
C 17.23234 4.3122 -0.00481
C 17.24194 2.90573 0.00979
C 18.41453 2.12445 0.01443
C 18.45047 0.74295 0.03505
C 17.22 0.04349 -0.02815
C 19.57236 32.65137 -0.04147
C 18.43674 23.45678 -0.03682
C 17.2129 24.15938 0.00052
C 17.1469 25.55971 0.00374
C 18.40997 26.22009 -0.02813
C 15.93856 17.74416 0.02819
C 14.71564 17.05608 0.00165
C 14.75484 15.65354 -0.02971
C 15.93308 14.92918 0.02894
C 15.9347 13.49408 -0.01789
C 14.72031 12.7916 0.00444
C 14.71975 11.35501 -0.00925
C 15.93603 10.58101 0.01877
C 15.90525 9.18547 0.01363
C 14.74594 8.49613 -0.02162
C 14.69614 7.07227 0.00415
C 14.77661 19.88682 -0.01046
C 15.97285 6.43444 -0.0014
C 14.7562 4.31586 0.0076
C 14.77978 2.859 0.01241
C 15.98554 2.20484 -0.01454
C 16.01244 0.70513 0.01945
C 14.82278 34.04654 0.01416
C 17.18539 32.68155 0.03542
C 18.33399 31.96608 0.02299
C 18.38825 30.57854 0.00244
C 17.17218 29.84654 -0.01717
C 17.23072 28.39573 0.05265
C 18.48192 27.67766 -0.01952
C 15.9678 5.02738 0.02162
C 11.04823 10.74425 -0.00494
C 9.85985 11.45951 -0.00562
C 9.78427 12.84914 -0.01142
C 6.18162 31.90333 0.03278
C 6.18037 30.58704 -0.00177
C 4.96639 29.79538 0.04421
C 5.02107 28.36763 0.00088
C 6.22213 27.66887 0.00828
C 6.18917 26.2654 -0.02375
C 4.93482 25.57735 0.00558
C 4.99757 24.13538 -0.0059
C 6.16762 23.39644 -0.01386
C 6.16934 22.02216 -0.02805
C 4.92025 21.28204 0.00081
C 4.91174 19.91297 0.00245
C 6.15654 19.19781 0.02728
C 6.18227 17.74666 -0.00039
C 4.93318 17.00201 0.0064
C 4.93426 15.59122 0.00211
C 6.10828 14.84587 -0.00449
C 6.14623 13.48168 -0.01979
C 4.81381 12.83496 0.02784
C 4.86518 11.45024 -0.01977
C 6.08237 10.71663 -0.00561
C 6.12114 9.23764 0.00208
C 4.90505 8.38778 0.01707
C 4.93613 32.58963 0.01138
C 2.42269 0.02317 -0.00407
C 3.72445 0.73211 -0.01299
C 3.74228 2.17086 -0.0154
C 3.67644 30.45762 -0.00374
C 2.43577 29.78784 -0.0213
C 2.4375 28.31981 0.01116
C 3.71976 27.68295 -0.0005
C 3.7388 26.2602 -0.00018
C 2.45795 25.59681 0.01073
C 2.48676 24.20491 0.01984
C 3.74433 23.4748 0.00535
C 3.67857 22.08196 -0.00198
C 2.47505 21.26262 -0.00012
C 2.4026 19.89439 -0.04306
C 6.17507 6.48531 0.02769
C 3.68911 19.15117 -0.03672
C 2.42323 17.01876 0.00267
C 2.41921 15.56405 0.00787
C 3.66206 14.93743 0.02426
C 3.59724 13.54047 0.01218
C 2.4289 12.81908 -0.01471
C 2.46348 11.35816 -0.02827
C 3.64145 10.6457 0.01078
C 3.82039 9.21124 -0.00112
C 3.68619 4.89389 0.03345
C 2.4555 4.31016 0.00748
C 2.50041 2.8737 0.00662
C 3.67648 17.68073 0.01913
C 6.0654 5.13405 -0.03291
C 4.88827 4.32018 -0.04999
C 4.88888 2.87352 0.04505
C 7.38104 4.33843 -0.00094
C 7.30325 2.96117 0.02322
C 8.55098 2.25843 -0.00725
C 8.61449 0.79544 -0.05697
C 7.3867 0.03785 0.01087
C 9.80656 32.69856 -0.01343
C 11.08733 31.99578 0.00988
C 11.10974 30.54667 0.0276
C 9.76697 29.90156 0.01305
C 9.7127 28.44458 -0.00077
C 10.95717 27.68205 0.03368
C 8.58882 4.97411 -0.02566
C 10.947 26.32671 -0.02929
C 9.76094 24.16707 -0.03337
C 11.02138 23.45922 0.01227
C 11.019 21.9964 0.00873
C 9.82814 21.34295 -0.00049
C 9.85194 19.96048 0.00848
C 11.01906 19.1839 -0.01303
C 11.08504 17.73962 -0.01378
C 9.81361 17.06805 0.02635
C 9.80408 15.63891 0.0127
C 11.07045 15.00107 0.01396
C 11.04503 13.52237 0.01849
C 9.73311 25.59307 -0.00966
C 20.78167 31.84971 -0.05302
C 8.58132 6.40441 -0.03113
C 7.44806 8.60296 -0.00643
C 6.1289 2.1869 0.03284
C 6.13385 0.74125 -0.04307
C 4.94714 0.00492 0.03189
C 7.38998 32.73651 0.00031
C 8.55803 31.93126 -0.003
C 8.6439 30.63109 0.01402
C 8.53198 27.68308 0.02379
C 8.50877 26.34891 0.00907
C 7.37565 25.54853 0.00643
C 7.3431 24.18541 -0.01509
C 8.54338 23.48762 0.03267
C 7.3742 7.11643 0.017
C 8.53673 22.06502 0.02374
C 7.39008 19.91213 0.0073
C 8.66041 19.18711 0.0174
C 8.62424 17.79598 0.03828
C 7.34924 17.08186 0.01226
C 7.40102 15.59666 -0.00279
C 8.55537 14.95382 0.01996
C 8.55388 13.55435 -0.03996
C 7.34778 12.72675 0.01465
C 7.42212 11.32082 -0.00074
C 8.65388 10.63773 -0.00518
C 8.6546 9.22338 0.0086
C 7.3323 21.28877 0.00402
C 20.83167 30.50529 0.00213
C 19.62987 29.78473 -0.00066
C 19.64509 28.36901 -0.00289
C 29.51159 15.61091 0.01705
C 30.71022 14.86705 -0.0405
C 30.69849 13.48229 -0.01303
C 29.46793 12.75485 -0.01461
C 29.46081 11.31887 -0.02155
C 30.71489 10.64554 -0.00944
C 30.75884 9.14387 -0.03735
C 29.54202 8.48677 -0.00971
C 29.54442 7.0778 0.01518
C 30.80282 6.34449 0.01908
C 30.75909 4.88956 0.07705
C 29.52467 4.23956 0.0103
C 29.49532 2.78218 0.02108
C 30.74273 2.1369 0.00716
C 30.71295 0.73141 0.00307
C 29.50194 0.0675 0.00346
C 32.00457 32.69863 0.01713
C 33.24186 32.0244 -0.01694
C 33.21362 30.57787 0.01428
C 31.94717 29.86355 -0.02142
C 31.95756 28.42189 0.0544
C 33.21739 27.74868 0.00026
C 33.23358 26.33834 0.00682
C 29.49569 16.99003 0.0101
C 30.72893 17.71281 -0.00669
C 30.65171 19.1461 0.03531
C 29.4475 19.92065 0.01836
C 27.03744 11.30092 0.04185
C 28.25514 10.61019 0.00194
C 28.25014 9.15265 -0.00621
C 26.99774 8.48853 0.02611
C 27.04705 7.09303 0.02198
C 28.28965 6.36613 0.01094
C 28.24255 4.90389 0.00235
C 27.03963 4.20792 0.01495
C 27.03366 2.75929 0.01259
C 28.24209 2.15067 0.01799
C 28.27468 0.69617 0.01699
C 32.037 25.62022 -0.01779
C 27.06351 0.02805 -0.00416
C 30.72208 31.98311 0.04266
C 30.68106 30.51695 0.01324
C 29.44763 29.80778 0.0014
C 29.48992 28.38371 0.00924
C 30.73864 27.69686 0.02326
C 30.77615 26.24459 0.00261
C 29.52737 25.57826 0.03265
C 29.46422 24.23533 -0.02049
C 30.74832 23.49643 -0.01854
C 30.73788 22.06005 -0.01415
C 29.44705 21.31828 -0.03039
C 29.56415 32.69606 0.01177
C 32.01369 24.18076 0.03794
C 33.18472 23.4199 0.01927
C 33.21293 22.00632 0.01574
C 34.40688 25.55597 -0.05239
C 34.39902 24.17556 0.03076
C 1.19871 23.46415 0.00723
C 1.258 22.00522 0.02712
C 34.42625 21.24166 -0.02213
C 34.31054 19.8046 0.01951
C 1.10425 19.10216 -0.01678
C 1.15981 17.72106 0.01223
C 34.38835 17.01791 0.00648
C 0.01066 15.56315 0.02114
C 1.2107 14.88815 -0.02957
C 1.18609 26.26872 -0.00598
C 1.18439 13.44941 0.00343
C 34.4111 11.25448 -0.02442
C 1.25945 10.57768 -0.00027
C 1.2968 9.25144 -0.00583
C 0.14528 8.44253 -0.02302
C 0.04619 7.00305 -0.02849
C 1.18709 6.27301 0.02931
C 1.23839 4.92322 0.00628
C 34.41423 4.24164 -0.0345
C 0.02863 2.842 -0.00931
C 1.26834 2.12396 -0.00939
C 1.20536 0.75933 -0.00468
C 34.42977 12.72114 -0.02656
C 27.10614 12.80109 0.02316
C 1.21205 27.71919 -0.00439
C 0.06464 29.9047 0.01831
C 31.8885 21.31217 -0.02383
C 31.87475 19.87504 -0.01429
C 33.05833 19.12966 -0.0136
C 33.1591 17.67984 0.00594
C 31.97318 16.92692 -0.02474
C 31.99927 15.55799 0.00369
C 33.23071 14.81587 0.00455
C 33.13706 13.40551 -0.00644
C 31.95741 12.706 -0.01839
C 31.95685 11.32728 0.00137
C 33.25202 10.55107 0.00199
C 0.00682 28.42079 -0.01037
C 33.27792 9.15619 0.04381
C 32.02483 7.04835 0.01504
C 33.25058 6.29592 -0.00069
C 33.21022 4.90219 0.04926
C 31.97675 4.21761 -0.03838
C 32.00448 2.7921 0.00349
C 33.25345 2.12352 -0.00323
C 33.2092 0.75779 -0.00841
C 31.94273 0.04165 0.0001
C 0.06898 32.69042 -0.02927
C 1.30075 31.95943 -0.01404
C 1.27739 30.55972 0.01027
C 32.02115 8.47212 0.02806
C 3.75282 31.85289 -0.00141
C 28.2378 13.48276 0.01257
C 27.08098 15.68402 -0.00294
C 23.28968 31.98952 0.00654
C 23.36781 30.64914 -0.00703
C 22.09228 29.85001 -0.04076
C 22.10465 28.41342 -0.00652
C 23.35004 27.74753 0.0058
C 23.32745 26.31769 -0.00865
C 22.09461 25.57876 0.00675
C 22.14042 24.12495 -0.00311
C 23.38447 23.47334 0.00742
C 23.40141 22.10971 -0.01594
C 22.21405 21.29863 0.0106
C 22.22573 19.88791 -0.01154
C 23.35903 19.15807 -0.01721
C 23.51665 17.7877 -0.02422
C 22.15141 17.06795 0.01277
C 22.14791 15.65396 0.00096
C 23.31776 14.85765 -0.01527
C 23.35557 13.46942 0.01087
C 22.04417 12.8239 0.00199
C 22.08911 11.41222 0.01511
C 23.27764 10.68434 -0.00478
C 23.35003 9.22206 -0.01662
C 22.12239 8.46036 -0.01185
C 22.02066 32.64407 -0.04422
C 19.64421 0.00112 -0.02957
C 20.87922 0.70721 -0.00831
C 20.90874 2.12182 0.00364
C 20.90033 27.69886 0.00028
C 20.86002 26.30802 -0.02213
C 19.66967 25.53182 0.03698
C 19.71249 24.14666 -0.00109
C 20.93216 23.37736 -0.00491
C 20.99435 21.88918 0.03338
C 19.68532 21.28692 -0.0258
C 19.67842 19.88855 -0.0331
C 20.89086 19.14158 -0.00316
C 20.96856 17.78551 0.02188
C 19.68935 17.05215 -0.01979
C 22.13314 7.05245 0.01126
C 19.62851 15.54839 0.02691
C 20.82559 13.52894 0.01452
C 19.66177 12.77374 0.04892
C 19.65084 11.3276 -0.00111
C 20.88106 10.6217 -0.03557
C 20.86578 9.16378 0.03754
C 19.60213 8.5746 0.01739
C 19.69292 7.08715 0.00755
C 20.86392 6.37486 -0.0054
C 20.84739 4.96519 0.00667
C 19.63949 4.23254 0.00143
C 19.67376 2.83494 -0.017
C 20.84856 14.9515 -0.01581
C 23.43472 6.38976 0.01852
C 23.37326 5.01025 -0.00381
C 22.10594 4.3234 0.03046
C 24.60922 7.11834 -0.00285
C 25.87612 6.37035 -0.009
C 25.814 4.99227 -0.01199
C 24.63638 4.24407 -0.00229
C 24.58291 2.81945 -0.00938
C 25.82043 2.10097 -0.0264
C 25.8674 0.70858 -0.01154
C 24.64509 34.04288 0.00684
C 27.05419 32.70759 -0.01052
C 28.22943 32.02412 -0.01679
C 28.23413 30.53135 0.00367
C 24.57905 8.55073 0.01423
C 27.03364 29.71049 0.04306
C 28.28129 27.63306 0.00195
C 28.23141 26.23847 -0.00802
C 26.98064 25.57883 -0.00218
C 26.99036 24.15919 -0.01654
C 28.21867 23.48027 -0.00037
C 28.21262 21.98655 -0.0032
C 27.02493 21.24673 0.00622
C 27.01543 19.87076 -0.02815
C 28.24903 19.18611 -0.00942
C 28.32437 17.78685 0.00487
C 27.07103 17.10712 0.00826
C 27.01754 28.29955 0.00996
C 28.23479 14.91037 0.00152
C 25.81305 9.24921 0.02555
C 24.56245 11.33704 0.00135
C 22.12173 2.8732 0.0296
C 23.38713 2.15731 0.03374
C 23.4091 0.67558 -0.02845
C 22.097 34.07927 -0.03213
C 24.59122 32.6103 0.02239
C 25.78991 31.93925 0.01153
C 25.89724 30.49868 0.02734
C 24.58204 29.88935 -0.0055
C 24.54947 28.43112 0.01515
C 25.74989 27.68826 -0.00225
C 25.75556 26.24379 0.00071
C 25.79771 10.70205 0.03102
C 24.57379 25.60792 -0.01107
C 25.80256 23.43126 -0.01971
C 25.88767 22.03952 -0.02118
C 24.64798 21.30735 0.00733
C 24.57542 19.96985 -0.00178
C 25.74411 19.12199 0.00768
C 25.79936 17.71319 -0.0276
C 24.59912 17.00436 0.03005
C 24.57857 15.59455 -0.04078
C 25.86818 14.96206 0.02117
C 25.89702 13.52994 0.02737
C 24.64672 12.76022 -0.00498
C 24.56626 24.19881 -0.01586
C 2.57497 32.66416 -0.03951
