407
Graphene
C 34.40761 34.05766 0.01295
C 15.99925 23.46018 -0.02689
C 15.96536 22.00455 -0.01046
C 14.72781 21.35553 -0.00891
C 14.80926 19.96988 0.02819
C 15.98535 19.15691 0.00165
C 15.97577 17.75379 -0.02971
C 14.72922 17.06039 0.02894
C 14.75581 15.58052 -0.01789
C 15.93338 14.84644 0.00444
C 15.98942 13.3973 -0.00925
C 14.74288 12.73003 0.01877
C 14.79844 11.33192 0.01363
C 16.07214 10.60123 -0.02162
C 16.0652 9.18546 0.00415
C 14.74711 8.50484 -0.0014
C 14.80484 7.16508 0.02162
C 15.84068 6.26307 0.0076
C 15.92907 4.80775 0.01241
C 16.17045 2.06394 -0.01454
C 15.93729 0.69689 0.01945
C 14.73246 0.03129 0.01416
C 14.71904 24.19287 -0.01536
C 14.6968 25.54283 0.03101
C 15.75018 26.44331 -0.00428
C 16.04591 27.77276 -0.02245
C 9.84919 0.20663 0.01291
C 13.60992 32.0074 0.00093
C 13.47372 23.40798 0.00057
C 13.54416 22.03245 -0.01634
C 12.29274 21.3381 -0.00334
C 12.34754 19.95255 0.02339
C 13.58649 19.2431 0.01641
C 13.48018 17.84552 -0.00719
C 12.29001 17.09564 0.01364
C 12.25566 15.63195 -0.01062
C 17.29633 32.65542 0.03542
C 13.49805 14.91267 -0.00033
C 12.3185 12.78943 -0.02759
C 12.30088 11.32436 0.0402
C 13.55302 10.6357 0.00572
C 13.4473 9.17213 0.03592
C 12.25326 8.47984 0.00406
C 13.54093 0.62225 0.00943
C 12.34231 0.2595 0.02841
C 14.75283 32.75085 -0.01111
C 16.00926 32.00094 -0.01275
C 15.97865 30.64658 0.00985
C 13.58262 13.50895 0.03589
C 11.11649 0.24898 0.00438
C 18.46487 31.93222 0.02299
C 17.18194 29.89608 -0.01717
C 18.41969 0.71597 0.03505
C 17.20211 34.06214 -0.02815
C 19.69043 32.62937 -0.04147
C 20.97431 32.00942 -0.05302
C 20.91614 30.56468 0.00213
C 19.75738 29.79673 -0.00066
C 19.71733 28.3253 -0.00289
C 20.92893 27.64691 0.00028
C 20.88418 26.24424 -0.02213
C 19.67925 25.48903 0.03698
C 19.65762 24.14099 -0.00109
C 20.92279 23.4052 -0.00491
C 20.83876 21.98756 0.03338
C 19.57702 21.32794 -0.0258
C 19.57375 19.9632 -0.0331
C 20.81784 19.20302 -0.00316
C 20.84721 17.81875 0.02188
C 19.60198 17.08189 -0.01979
C 19.6493 15.58608 0.02691
C 20.89012 14.89913 -0.01581
C 20.93783 13.41722 0.01452
C 18.44792 2.09797 0.01443
C 17.2421 2.87478 0.00979
C 17.20192 4.28926 -0.00481
C 18.43993 5.02888 0.00889
C 17.21839 28.45693 0.05265
C 18.48937 27.6752 -0.01952
C 18.43107 26.25757 -0.02813
C 17.14776 25.60393 0.00374
C 17.21405 24.21669 0.00052
C 18.35249 23.42662 -0.03682
C 18.36433 22.0342 0.01965
C 17.15781 21.35616 0.02058
C 17.23736 19.92885 -0.01957
C 18.36636 19.17665 -0.0108
C 18.48853 30.5064 0.00244
C 18.3965 17.78157 -0.00368
C 17.13189 15.54142 -0.00114
C 18.42498 14.83433 0.00228
C 18.43998 13.4176 0.00798
C 17.2554 12.6853 0.00422
C 17.26119 11.35013 0.0351
C 18.48805 10.6733 -0.03113
C 18.45374 9.25813 0.02098
C 17.23356 8.49757 0.01848
C 17.15785 7.02598 -0.00619
C 18.4166 6.42413 -0.02162
C 17.18132 17.04233 -0.02696
C 19.68882 12.75051 0.04892
C 9.74841 3.03287 -0.00191
C 9.79749 8.46114 0.02147
C 2.43786 2.8882 0.02379
C 3.64476 2.19533 0.00907
C 3.67081 0.75798 0.00643
C 2.49314 0.01916 -0.01509
C 4.89497 32.67392 0.03267
C 6.14185 32.05824 0.02374
C 4.86678 29.85662 0.00402
C 4.67227 28.62359 0.0073
C 4.94595 25.58261 0.0174
C 4.93112 24.23469 0.03828
C 6.10137 23.53229 0.01226
C 6.15726 22.01734 -0.00279
C 4.89364 21.2991 0.01996
C 4.92401 19.84641 -0.03996
C 6.1525 19.10938 0.01465
C 6.18955 17.73572 -0.00074
C 4.95171 17.05674 -0.00518
C 4.8569 15.69231 0.0086
C 6.1206 14.98584 -0.00643
C 6.17976 13.52614 0.017
C 4.92439 12.77818 -0.03113
C 2.44148 4.29075 0.01402
C 3.62441 4.96982 -0.003
C 3.67343 6.38134 0.00031
C 2.4159 7.05949 0.03189
C 3.69046 30.54854 -0.0059
C 2.3336 29.86528 -0.01386
C 2.39569 28.44602 -0.02805
C 3.65189 27.74997 0.00081
C 3.76188 26.29388 0.00245
C 2.49457 25.5082 0.02728
C 2.4872 24.06751 -0.00039
C 3.72666 23.43586 0.0064
C 3.67975 22.02619 0.00211
C 2.43441 21.32482 -0.00449
C 4.93895 11.3283 -0.02566
C 2.4309 19.93691 -0.01979
C 3.75782 17.76099 -0.01977
C 2.46507 17.08482 -0.00561
C 2.39437 15.61734 0.00208
C 3.62419 14.93907 0.01707
C 3.72725 13.49685 0.02769
C 2.46184 12.80708 -0.03291
C 2.52743 11.37006 -0.04999
C 3.67765 10.55614 0.04505
C 3.61773 9.15984 0.03284
C 2.38479 8.45271 -0.04307
C 3.71929 19.17252 0.02784
C 9.724 7.10849 0.00373
C 6.17065 10.68931 -0.00094
C 4.85138 8.54555 -0.00725
C 8.59244 6.31241 -0.00095
C 8.65409 4.78317 0.01572
C 7.40236 4.31264 -0.04848
C 7.34976 2.92456 -0.00892
C 8.66075 2.2163 -0.01362
C 8.64197 0.67615 -0.0008
C 7.41793 34.02187 0.0288
C 11.2423 23.47694 0.00393
C 11.08663 22.1396 0.00895
C 9.81871 21.34396 0.00685
C 9.86003 19.98882 0.02888
C 11.12922 19.25216 -0.00482
C 11.0978 17.89934 -0.01384
C 9.80193 17.16601 0.03693
C 9.80282 15.7591 0.01745
C 11.04447 14.96941 0.00488
C 11.10953 13.52325 -0.01004
C 9.82701 12.79171 -0.02896
C 9.80368 11.35147 -0.00131
C 11.02309 10.66353 -0.01118
C 11.02616 9.1746 -0.014
C 7.30043 7.16717 0.03007
C 7.30332 8.57586 0.00054
C 8.54309 9.29004 -0.00494
C 8.60505 10.70342 -0.00562
C 4.87609 7.0811 -0.05697
C 6.09696 6.3861 0.01087
C 6.09983 5.01457 -0.01343
C 4.92093 4.29184 0.00988
C 4.91636 2.90372 0.0276
C 6.14835 2.18533 0.01305
C 6.18879 0.70325 -0.00077
C 4.92437 0.03424 0.03368
C 7.23991 32.68515 -0.02929
C 7.32627 24.11261 -0.00966
C 6.12374 9.30893 0.02322
C 8.37739 23.3502 -0.03337
C 7.25975 21.2633 0.00873
C 7.3408 19.89369 -0.00049
C 8.62953 19.22398 0.00848
C 8.6045 17.84028 -0.01303
C 7.43566 17.00337 -0.01378
C 7.35019 15.67587 0.02635
C 8.57697 14.96704 0.0127
C 8.59557 13.56912 0.01396
C 7.37703 12.83849 0.01849
C 7.34412 11.40282 -0.01142
C 8.55219 22.03839 0.01227
C 3.65263 31.96804 0.00558
C 19.73561 11.30954 -0.00111
C 20.89016 9.24088 0.03754
C 29.54547 8.45905 -0.00971
C 29.49454 7.05149 0.01518
C 30.74042 6.36669 0.01908
C 30.73874 4.96467 0.07705
C 29.56527 4.28926 0.0103
C 29.55427 2.82899 0.02108
C 30.75144 2.1186 0.00716
C 30.68676 0.70367 0.00307
C 29.51924 34.02962 0.00346
C 32.0291 32.61999 0.01713
C 33.23673 31.92077 -0.01694
C 33.18002 30.49907 0.01428
C 31.9767 29.83784 -0.02142
C 31.96816 28.44647 0.0544
C 33.11943 27.67238 0.00026
C 33.15343 26.26525 0.00682
C 31.92749 25.51343 -0.01779
C 31.93482 24.08786 0.03794
C 33.15546 23.43349 0.01927
C 33.15608 22.04614 0.01574
C 31.92909 21.32497 -0.02383
C 30.76011 9.11619 -0.03735
C 30.69994 10.61274 -0.00944
C 29.55908 11.39457 -0.02155
C 29.49908 12.7634 -0.01461
C 28.37601 2.06565 0.01799
C 28.28959 0.65778 0.01699
C 27.01919 34.02952 -0.00416
C 29.54 32.63102 0.01177
C 30.75584 31.93074 0.04266
C 30.75981 30.5003 0.01324
C 29.51441 29.81845 0.0014
C 29.48212 28.42267 0.00924
C 30.71682 27.76266 0.02326
C 30.75223 26.27424 0.00261
C 31.93824 19.90838 -0.01429
C 29.45509 25.60166 0.03265
C 30.68311 23.42092 -0.01854
C 30.75761 22.05186 -0.01415
C 29.54518 21.26477 -0.03039
C 29.55501 19.92293 0.01836
C 30.77891 19.20533 0.03531
C 30.72577 17.76718 -0.00669
C 29.56536 17.08336 0.0101
C 29.51392 15.64128 0.01705
C 30.66893 14.85798 -0.0405
C 30.73972 13.42864 -0.01303
C 29.46369 24.1981 -0.02049
C 27.17808 2.78649 0.01259
C 33.14877 19.13125 -0.0136
C 31.93695 16.98099 -0.02474
C 1.18778 21.96613 0.02712
C 34.37147 21.23963 -0.02213
C 34.35627 19.833 0.01951
C 1.17924 19.17577 -0.01678
C 1.24332 17.80153 0.01223
C 0.00303 17.07246 0.00648
C 34.39582 15.60224 0.02114
C 1.19196 14.89162 -0.02957
C 1.23028 13.44542 0.00343
C 34.4186 12.77751 -0.02656
C 0.00843 11.31717 -0.02442
C 1.30211 10.64424 -0.00027
C 1.20415 9.26585 -0.00583
C 34.41403 8.60111 -0.02302
C 34.41982 7.16392 -0.02849
C 1.18577 6.4366 0.02931
C 1.18401 5.02849 0.00628
C 34.40588 4.26483 -0.0345
C 34.43079 2.81604 -0.00931
C 1.20497 2.09709 -0.00939
C 1.22431 0.70534 -0.00468
C 1.17792 23.40185 0.00723
C 34.38463 24.20549 0.03076
C 34.37337 25.58721 -0.05239
C 1.23878 26.18619 -0.00598
C 31.87468 15.60052 0.00369
C 33.15603 14.90988 0.00455
C 33.16712 13.4689 -0.00644
C 31.97873 12.70653 -0.01839
C 31.94944 11.34822 0.00137
C 33.18458 10.62952 0.00199
C 33.18444 9.22033 0.04381
C 31.95791 8.52139 0.02806
C 32.02115 7.05163 0.01504
C 33.22725 6.42055 -0.00069
C 33.17416 17.68506 0.00594
C 33.19584 4.97373 0.04926
C 31.96673 2.78337 0.00349
C 33.21875 2.09558 -0.00323
C 33.18055 0.68312 -0.00841
C 31.9393 34.04574 0.0001
C 0.02261 32.6387 -0.02927
C 1.21114 31.95065 -0.01404
C 1.14277 30.55789 0.01027
C 0.00363 29.77243 0.01831
C 34.39332 28.29461 -0.01037
C 1.20196 27.65532 -0.00439
C 31.9558 4.26635 -0.03838
C 20.96606 10.67307 -0.03557
C 27.12129 4.23362 0.01495
C 28.23712 6.35506 0.01094
C 23.30182 14.8737 -0.01527
C 23.33748 13.45869 0.01087
C 22.16938 12.70126 0.00199
C 22.23252 11.29657 0.01511
C 23.42116 10.59583 -0.00478
C 23.36276 9.18972 -0.01662
C 22.12277 8.49322 -0.01185
C 22.0674 7.08815 0.01126
C 23.39515 6.37851 0.01852
C 23.37806 4.92203 -0.00381
C 22.17682 4.22724 0.03046
C 22.20328 2.80378 0.0296
C 23.41023 2.05194 0.03374
C 23.33417 0.69248 -0.02845
C 22.09751 0.07794 -0.03213
C 24.62744 32.61729 0.02239
C 25.78226 31.9397 0.01153
C 25.82219 30.58075 0.02734
C 24.54956 29.81784 -0.0055
C 24.63594 28.39721 0.01515
C 25.86342 27.69681 -0.00225
C 22.12161 15.67499 0.00096
C 22.09045 17.10272 0.01277
C 23.39883 17.73326 -0.02422
C 23.31751 19.13183 -0.01721
C 19.61679 8.61299 0.01739
C 19.66011 7.17323 0.00755
C 20.84146 6.4018 -0.0054
C 20.9163 4.93449 0.00667
C 19.65083 4.31108 0.00143
C 19.69178 2.89333 -0.017
C 20.95212 2.16748 0.00364
C 20.87705 0.7703 -0.00831
C 19.6738 0.02157 -0.02957
C 22.19662 32.68414 -0.04422
C 25.83572 26.22606 0.00071
C 23.39925 31.92184 0.00654
C 22.09131 29.83338 -0.04076
C 22.12427 28.35394 -0.00652
C 23.45465 27.72748 0.0058
C 23.41516 26.30205 -0.00865
C 22.18633 25.54342 0.00675
C 22.15739 24.12015 -0.00311
C 23.33612 23.38252 0.00742
C 23.22415 22.01522 -0.01594
C 22.04545 21.2568 0.0106
C 22.05414 19.84028 -0.01154
C 23.32576 30.54149 -0.00703
C 28.27657 4.97133 0.00235
C 24.65183 25.49707 -0.01107
C 25.83859 23.36848 -0.01971
C 27.07123 28.48113 0.00996
C 28.22824 27.73177 0.00195
C 28.20826 26.28208 -0.00802
C 27.01823 25.52911 -0.00218
C 27.05069 24.12755 -0.01654
C 28.26011 23.38283 -0.00037
C 28.29587 21.92616 -0.0032
C 27.0709 21.23333 0.00622
C 27.05927 19.87699 -0.02815
C 28.32454 19.23876 -0.00942
C 28.33801 17.79803 0.00487
C 27.09461 17.0779 0.00826
C 27.03053 15.60625 -0.00294
C 28.26844 14.96908 0.00152
C 28.23733 13.48863 0.01257
C 27.05806 12.79681 0.02316
C 27.06689 11.3815 0.04185
C 28.34529 10.68337 0.00194
C 28.35665 9.23686 -0.00621
C 27.11389 8.49285 0.02611
C 27.0132 7.10776 0.02198
C 26.99461 29.85238 0.04306
C 28.28642 30.52071 0.00367
C 28.25217 31.94219 -0.01679
C 27.07174 32.67248 -0.01052
C 25.8274 21.97416 -0.02118
C 24.54402 21.26339 0.00733
C 24.54852 19.8904 -0.00178
C 25.84548 19.19979 0.00768
C 25.8667 17.73389 -0.0276
C 24.62374 17.00209 0.03005
C 24.55453 15.61928 -0.04078
C 25.75555 14.91403 0.02117
C 25.80324 13.49995 0.02737
C 24.58808 12.75641 -0.00498
C 24.57358 24.06938 -0.01586
C 24.63013 11.34171 0.00135
C 25.88011 9.25624 0.02555
C 24.63699 8.50497 0.01423
C 24.55963 7.13716 -0.00285
C 25.77802 6.35926 -0.009
C 25.81342 4.945 -0.01199
C 24.62473 4.15453 -0.00229
C 24.58823 2.72816 -0.00938
C 25.924 2.10399 -0.0264
C 25.79431 0.69145 -0.01154
C 24.58951 34.07738 0.00684
C 25.85636 10.64693 0.03102
C 2.49282 32.61342 -0.02375
