363
Graphene
C 34.39286 0.01815 0.01295
C 13.54266 21.85924 -0.03682
C 12.28092 21.29473 0.01965
C 12.2312 20.03228 0.02058
C 12.24825 4.28528 -0.01957
C 12.39209 2.88284 -0.0108
C 13.51628 2.10568 -0.00368
C 13.47877 0.70823 -0.02696
C 12.21635 0.00494 -0.00114
C 13.50267 23.33758 0.00052
C 14.8424 32.61294 0.00228
C 16.12908 30.44356 0.00422
C 14.87345 29.76768 0.0351
C 14.83238 28.33516 -0.03113
C 16.06306 27.72133 0.02098
C 15.95777 26.27116 0.01848
C 14.73761 25.47423 -0.00619
C 14.68326 24.02361 -0.02162
C 15.92643 23.37355 0.00889
C 16.05255 31.92288 0.00798
C 12.26391 24.14593 0.00374
C 12.21788 25.56785 -0.02813
C 13.53044 26.19782 -0.01952
C 10.97025 26.31316 -0.01789
C 9.74926 25.65384 0.00444
C 9.84267 24.22299 -0.00925
C 11.02129 23.4579 0.01877
C 11.01928 22.07264 0.01363
C 9.86731 21.29238 -0.02162
C 9.69924 19.83804 0.00415
C 11.20767 4.8394 -0.0014
C 9.86879 4.35302 0.02162
C 9.82741 2.92511 0.0076
C 11.06585 2.22889 0.01241
C 11.01373 0.78754 -0.01454
C 9.85888 34.06067 0.01945
C 12.32835 32.58711 0.01416
C 13.6053 31.93814 0.03542
C 13.5999 30.49283 0.02299
C 12.36557 29.78686 0.00244
C 12.29817 28.32655 -0.01717
C 13.54144 27.6161 0.05265
C 15.89105 21.95909 -0.00481
C 14.74793 21.20699 0.00979
C 14.96517 4.23673 0.01443
C 14.78183 2.96923 0.03505
C 20.87455 30.5997 0.03754
C 19.67586 29.92028 0.01739
C 19.65686 28.42644 0.00755
C 20.83056 27.66774 -0.0054
C 20.93928 26.20333 0.00667
C 19.64958 25.5476 0.00143
C 19.61644 24.15289 -0.017
C 20.85217 23.41188 0.00364
C 20.87678 22.01946 -0.00831
C 19.65285 21.34032 -0.02957
C 19.7061 19.85742 -0.04422
C 20.83656 19.08644 0.00654
C 20.94633 17.79312 -0.00703
C 19.81868 4.20001 -0.04076
C 19.70724 2.84372 -0.00652
C 20.95994 2.03563 0.0058
C 20.9262 0.64981 -0.00865
C 19.6053 34.07316 0.00675
C 22.17399 32.5644 -0.00311
C 20.90472 31.99677 -0.03557
C 11.00682 27.7545 0.02894
C 19.63628 32.66808 -0.00111
C 18.38366 0.71947 0.01452
C 16.04928 2.24183 -0.02815
C 15.951 0.72205 -0.04147
C 14.77288 34.02135 -0.05302
C 17.23801 32.66609 0.00213
C 18.4471 32.00721 -0.00066
C 18.47201 30.62406 -0.00289
C 17.27477 29.82705 0.00028
C 17.26941 28.40859 -0.02213
C 18.44567 27.6312 0.03698
C 18.42431 26.25756 -0.00109
C 17.16632 25.56865 -0.00491
C 17.18932 24.12819 0.03338
C 18.39614 23.41869 -0.0258
C 18.36372 22.00342 -0.0331
C 17.10943 21.2616 -0.00316
C 17.28951 19.93665 0.02188
C 18.34741 19.29525 -0.01979
C 17.23897 2.84278 0.02691
C 18.43108 2.18888 -0.01581
C 17.15499 0.03087 0.04892
C 23.38803 31.88036 0.00742
C 9.77563 28.43932 -0.02971
C 11.09451 30.47399 0.02819
C 3.69285 6.33879 -0.01378
C 3.73038 4.98853 0.02635
C 2.49687 4.29987 0.0127
C 2.50275 2.90044 0.01396
C 3.69234 2.14037 0.01849
C 3.60352 0.71969 -0.01142
C 2.44848 34.05707 -0.00562
C 4.91252 32.78145 -0.00494
C 2.38834 7.0697 -0.01303
C 6.11187 32.0471 0.00054
C 4.82334 29.88054 -0.00095
C 4.89432 28.40909 0.01572
C 6.15961 27.7696 -0.04848
C 6.11919 26.31807 -0.00892
C 4.99821 25.5828 -0.01362
C 4.93817 24.13236 -0.0008
C 6.11473 23.43893 0.0288
C 6.11039 22.02298 0.00393
C 6.04461 30.6325 0.03007
C 2.45553 8.51929 0.00848
C 3.66076 9.3012 -0.00049
C 3.65098 10.66672 0.00873
C 3.64172 30.54522 -0.00643
C 2.45188 29.78809 0.017
C 2.48216 28.38939 -0.03113
C 3.69721 27.63158 -0.02566
C 3.72778 26.20783 -0.00094
C 2.47623 25.58674 0.02322
C 2.37801 24.23264 -0.00725
C 3.66783 23.49821 -0.05697
C 3.72669 22.04323 0.01087
C 2.4842 21.37898 -0.01343
C 2.51036 19.89887 0.00988
C 3.74524 19.13805 0.0276
C 3.71683 17.71855 0.01305
C 2.46146 16.96805 -0.00077
C 2.42455 15.59464 0.03368
C 3.65311 15.02605 -0.02929
C 3.63788 13.59487 -0.00966
C 2.45328 12.84648 -0.03337
C 2.47844 11.42792 0.01227
C 4.9237 21.3099 0.00895
C 4.97057 19.84347 0.00685
C 6.20303 19.28183 0.02888
C 6.25232 17.77809 -0.00482
C 8.47217 26.31498 -0.00033
C 7.32567 25.53864 0.03589
C 7.4032 24.11411 -0.02759
C 8.66649 23.41823 0.0402
C 8.66758 22.02145 0.00572
C 7.41322 21.35891 0.03592
C 7.39613 19.96329 0.00406
C 8.59971 19.24491 0.00943
C 7.45619 17.1254 0.02841
C 7.5077 7.02271 -0.01111
C 8.58661 6.43757 -0.01275
C 8.59877 4.93233 0.00985
C 7.30807 4.26276 -0.02245
C 7.35202 2.81176 -0.00428
C 8.54002 2.12527 0.03101
C 8.6077 0.68524 -0.01536
C 7.34422 0.03709 -0.02689
C 9.83661 32.5752 -0.01046
C 11.08209 31.88799 -0.00891
C 8.52016 27.69996 -0.01062
C 9.8148 29.83315 0.00165
C 7.34202 28.48578 0.01364
C 8.55346 30.55811 0.01641
C 4.96046 17.10756 -0.01384
C 4.97675 15.70316 0.03693
C 6.09993 14.89211 0.01745
C 6.02146 13.66916 0.00488
C 4.97275 12.84055 -0.01004
C 4.98222 11.40508 -0.02896
C 6.08414 10.59522 -0.00131
C 6.16453 9.43939 -0.01118
C 4.98146 8.61773 -0.014
C 4.89656 7.19746 0.02147
C 6.14486 6.50985 0.00373
C 6.13331 5.0325 -0.00191
C 4.8968 4.26943 0.00438
C 4.9632 2.83009 0.01291
C 6.11034 2.1474 0.00093
C 6.10738 0.75379 0.00057
C 4.87397 0.05645 -0.01634
C 7.3289 32.69717 -0.00334
C 8.58425 31.96193 0.02339
C 7.265 29.90709 -0.00719
C 3.65518 31.97785 0.0086
C 23.31247 30.51289 -0.01594
C 22.04839 28.39201 -0.01154
C 29.46417 0.00732 0.00346
C 32.05878 32.70236 0.01713
C 33.21378 31.94135 -0.01694
C 33.1444 30.49745 0.01428
C 31.89473 29.85827 -0.02142
C 31.92464 28.4501 0.0544
C 33.19388 27.68825 0.00026
C 33.10116 26.28477 0.00682
C 30.67593 0.71719 0.00307
C 31.86637 25.52819 -0.01779
C 33.13747 23.44269 0.01927
C 33.19529 22.07024 0.01574
C 31.97668 21.25721 -0.02383
C 31.98313 19.86623 -0.01429
C 33.22823 19.18133 -0.0136
C 33.26727 17.74964 0.00594
C 32.0041 17.07494 -0.02474
C 32.01849 15.68658 0.00369
C 31.94108 24.0819 0.03794
C 30.68847 2.13456 0.00716
C 29.47165 2.86631 0.02108
C 29.49257 4.307 0.0103
C 29.53818 24.15846 -0.02049
C 30.77461 23.35314 -0.01854
C 30.7869 21.96454 -0.01415
C 29.48508 21.33252 -0.03039
C 29.53065 19.96352 0.01836
C 30.75887 19.16522 0.03531
C 30.72312 17.74282 -0.00669
C 29.49521 17.03677 0.0101
C 29.51306 15.60175 0.01705
C 30.7533 14.93995 -0.0405
C 30.76606 13.47456 -0.01303
C 29.54602 12.75621 -0.01461
C 29.53838 11.35994 -0.02155
C 30.73577 10.64107 -0.00944
C 30.73276 9.14755 -0.03735
C 29.50635 8.50248 -0.00971
C 29.53606 7.12097 0.01518
C 30.70842 6.33133 0.01908
C 30.66628 4.93689 0.07705
C 33.19294 14.90994 0.00455
C 33.13136 13.47399 -0.00644
C 31.99011 12.70689 -0.01839
C 31.95886 11.34598 0.00137
C 0.01983 19.91712 0.01951
C 1.23572 19.15496 -0.01678
C 1.28192 17.73842 0.01223
C 0.01976 17.03169 0.00648
C 0.01661 15.53979 0.02114
C 1.18666 14.84227 -0.02957
C 1.17784 13.44173 0.00343
C 34.37217 12.80291 -0.02656
C 34.396 11.32922 -0.02442
C 1.24279 10.70978 -0.00027
C 1.24111 9.31466 -0.00583
C 0.03347 8.59497 -0.02302
C 34.39698 7.16498 -0.02849
C 1.1998 6.42086 0.02931
C 1.2438 5.00592 0.00628
C 0.01653 4.30129 -0.0345
C 0.0637 2.858 -0.00931
C 1.25504 2.11422 -0.00939
C 1.21311 0.69959 -0.00468
C 0.02994 21.37045 -0.02213
C 29.4854 25.56335 0.03265
C 1.27691 22.07908 0.02712
C 34.39572 24.17535 0.03076
C 33.19387 10.61676 0.00199
C 33.23093 9.20763 0.04381
C 31.94671 8.48746 0.02806
C 31.93081 7.04225 0.01504
C 33.14395 6.38185 -0.00069
C 33.15204 4.94246 0.04926
C 31.89395 4.23693 -0.03838
C 31.93034 2.79211 0.00349
C 33.25048 2.2143 -0.00323
C 33.21717 0.82648 -0.00841
C 31.971 0.05959 0.0001
C 34.42588 32.6668 -0.02927
C 1.19773 31.92114 -0.01404
C 1.18291 30.51579 0.01027
C 34.41124 29.80671 0.01831
C 0.03092 28.35134 -0.01037
C 1.28403 27.74155 -0.00439
C 1.19625 26.28044 -0.00598
C 34.33752 25.56614 -0.05239
C 1.1582 23.45872 0.00723
C 22.08991 29.86739 0.0106
C 30.70615 26.28609 0.00261
C 29.47123 28.42887 0.00924
C 24.53618 28.3447 0.01515
C 25.77618 27.65428 -0.00225
C 25.82455 26.20135 0.00071
C 24.55118 25.57777 -0.01107
C 24.46242 24.14704 -0.01586
C 25.70607 23.41378 -0.01971
C 25.77966 21.9998 -0.02118
C 24.56422 21.27661 0.00733
C 24.55402 29.75736 -0.0055
C 24.59836 19.888 -0.00178
C 25.79838 17.69346 -0.0276
C 24.5298 16.96866 0.03005
C 24.4703 15.50404 -0.04078
C 25.85521 14.8834 0.02117
C 25.79331 13.46251 0.02737
C 24.51817 12.68227 -0.00498
C 24.70935 11.49384 0.00135
C 25.81147 10.60268 0.03102
C 25.85688 19.16427 0.00768
C 25.75361 30.51349 0.02734
C 25.77497 31.91173 0.01153
C 24.6242 32.57464 0.02239
C 23.29477 27.7045 -0.01721
C 23.37031 26.28781 -0.02422
C 22.15746 25.57202 0.01277
C 22.10596 24.17106 0.00096
C 23.26072 23.38049 -0.01527
C 23.25965 21.9928 0.01087
C 22.05281 21.26193 0.00199
C 22.13171 19.78983 0.01511
C 23.35437 19.12734 -0.00478
C 23.31689 17.67271 -0.01662
C 22.0114 17.10624 -0.01185
C 23.28848 14.71715 0.01126
C 23.49916 6.32243 0.01852
C 23.28448 4.96367 -0.00381
C 22.16881 4.09121 0.03046
C 22.17265 2.74998 0.0296
C 23.39103 2.0511 0.03374
C 23.42271 0.65854 -0.02845
C 22.18782 34.00623 -0.03213
C 25.78019 9.21146 0.02555
C 24.53668 8.48675 0.01423
C 24.61364 7.06793 -0.00285
C 25.99154 6.34281 -0.009
C 28.28498 14.87749 0.00152
C 28.28647 13.4298 0.01257
C 27.06999 12.74859 0.02316
C 27.07604 11.34372 0.04185
C 28.32504 10.65969 0.00194
C 28.25664 9.24686 -0.00621
C 27.01098 8.49243 0.02611
C 27.18125 7.11304 0.02198
C 28.35907 6.43717 0.01094
C 28.25881 5.04243 0.00235
C 27.1422 4.25728 0.01495
C 27.07853 2.81911 0.01259
C 28.31914 2.12062 0.01799
C 28.27839 0.74195 0.01699
C 27.06872 0.04601 -0.00416
C 29.52575 32.66439 0.01177
C 30.72877 32.03791 0.04266
C 30.7011 30.56911 0.01324
C 29.4761 29.84531 0.0014
C 27.06777 15.56575 -0.00294
C 30.69843 27.74746 0.02326
C 27.07417 17.05595 0.00826
C 28.27995 19.23351 -0.00942
C 25.8792 4.9538 -0.01199
C 24.68908 4.17948 -0.00229
C 24.58706 2.80793 -0.00938
C 25.85497 2.14421 -0.0264
C 25.88411 0.79089 -0.01154
C 24.65737 34.06028 0.00684
C 27.04652 32.71341 -0.01052
C 28.21206 31.93723 -0.01679
C 28.23539 30.47991 0.00367
C 26.93308 29.80291 0.04306
C 26.97909 28.43088 0.00996
C 28.19862 27.71759 0.00195
C 28.23541 26.25674 -0.00802
C 26.99971 25.49781 -0.00218
C 27.01055 24.12855 -0.01654
C 28.24473 23.44769 -0.00037
C 28.21492 22.00097 -0.0032
C 27.01385 21.30389 0.00622
C 27.04902 19.91432 -0.02815
C 28.27386 17.79774 0.00487
C 2.4324 32.62116 -0.00518
