388
Graphene
C 0.01347 0.01705 0.01295
C 9.87424 4.22332 -0.02162
C 9.78523 2.88323 0.00415
C 11.07632 2.15661 -0.0014
C 11.09142 0.70616 0.02162
C 9.86742 0.00491 0.0076
C 12.30602 32.6697 0.01241
C 13.50532 31.90526 -0.01454
C 13.49516 30.53111 0.01945
C 12.26881 29.78985 0.01416
C 11.08784 4.95434 0.01363
C 12.31671 28.41675 0.03542
C 13.55715 26.24017 0.00244
C 12.32658 25.55265 -0.01717
C 12.34112 24.11185 0.05265
C 13.4949 23.44854 -0.01952
C 13.5207 21.98083 -0.02813
C 12.30373 21.24712 0.00374
C 12.24398 19.84911 0.00052
C 13.58674 19.14866 -0.03682
C 13.50502 17.74169 0.01965
C 13.55518 27.70747 0.02299
C 12.30547 16.98645 0.02058
C 11.0478 6.41756 0.01877
C 9.78597 8.54793 0.00444
C 9.84049 29.83664 0.00572
C 9.82603 28.43682 0.03592
C 11.06782 27.711 0.00406
C 11.06809 26.26205 0.00943
C 9.8174 25.58713 0.02841
C 9.83555 24.12675 -0.01111
C 11.08839 23.48402 -0.01275
C 11.08178 22.0608 0.00985
C 9.82456 21.31597 -0.02245
C 9.82167 7.14043 -0.00925
C 9.8309 19.86319 -0.00428
C 11.06186 17.72467 -0.01536
C 9.846 17.05337 -0.02689
C 9.90854 15.63917 -0.01046
C 11.09368 14.87101 -0.00891
C 11.08274 13.49848 0.02819
C 9.85447 12.77389 0.00165
C 9.80387 11.36988 -0.02971
C 11.07407 10.63809 0.02894
C 11.10143 9.25477 -0.01789
C 11.06276 19.18373 0.03101
C 12.29993 15.62869 -0.01957
C 13.50664 14.96643 -0.0108
C 13.52986 13.50798 -0.00368
C 15.973 19.08703 -0.00109
C 15.98392 17.70131 -0.00491
C 14.73891 17.06111 0.03338
C 14.76958 15.60625 -0.0258
C 15.95867 14.9029 -0.0331
C 15.94976 13.52882 -0.00316
C 14.76417 12.76915 0.02188
C 14.8151 11.39058 -0.01979
C 15.99883 10.66123 0.02691
C 14.76627 19.89272 0.03698
C 16.00007 9.23117 -0.01581
C 14.78172 7.04429 0.04892
C 15.98642 6.40336 -0.00111
C 15.95802 2.09203 -0.03557
C 16.01774 0.69408 0.03754
C 14.78012 34.0449 0.01739
C 17.1892 32.67315 0.00755
C 18.43872 31.93728 -0.0054
C 18.4186 30.54176 0.00667
C 17.19456 29.83205 0.00143
C 14.75091 8.54194 0.01452
C 14.76829 21.30583 -0.02213
C 16.05059 21.99306 0.00028
C 15.99516 23.42993 -0.00289
C 12.30999 12.76384 -0.02696
C 12.3018 11.37146 -0.00114
C 13.55364 10.67886 0.00228
C 13.52373 9.22781 0.00798
C 12.26645 8.52486 0.00422
C 12.29339 7.05988 0.0351
C 13.5041 6.36051 -0.03113
C 12.3162 4.27035 0.02098
C 12.29534 2.82396 0.01848
C 13.5234 2.1402 -0.00619
C 13.49982 0.74562 -0.02162
C 12.28847 0.00479 0.00889
C 14.70276 32.67211 -0.00481
C 15.96509 31.95449 0.00979
C 16.02425 30.53948 0.01443
C 14.72896 29.79421 0.03505
C 14.74988 28.36237 -0.02815
C 15.98341 27.70136 -0.04147
C 15.98909 26.28356 -0.05302
C 14.72409 25.53395 0.00213
C 14.75972 24.11791 -0.00066
C 11.10137 30.54921 0.0402
C 17.20273 28.42494 -0.017
C 11.07757 31.91449 -0.02759
C 7.35284 0.01294 -0.00033
C 3.71514 4.98197 0.0086
C 2.4596 4.2823 -0.00643
C 2.46223 2.83186 0.017
C 3.69419 2.13145 -0.03113
C 3.67823 0.72468 -0.02566
C 2.43623 0.0027 -0.00094
C 4.90126 32.64049 0.02322
C 6.16307 31.95173 -0.00725
C 6.15486 30.51479 -0.05697
C 3.71092 6.41196 -0.00518
C 4.92864 29.84808 0.01087
C 6.14261 27.7042 0.00988
C 6.08592 26.334 0.0276
C 4.92488 25.59088 0.01305
C 4.90564 24.14688 -0.00077
C 6.13471 23.44195 0.03368
C 6.15138 22.0103 -0.02929
C 4.94665 21.28084 -0.00966
C 4.93049 19.88797 -0.03337
C 6.13541 19.16795 0.01227
C 4.96368 28.37861 -0.01343
C 6.1935 17.77237 0.00873
C 2.42026 7.08442 -0.00074
C 3.67541 9.28434 -0.03996
C 3.70675 30.51998 0.04505
C 2.46806 29.78301 0.03284
C 2.43181 28.39169 -0.04307
C 3.70014 27.65905 0.03189
C 3.67254 26.24549 0.00031
C 2.48133 25.57216 -0.003
C 2.38762 24.12616 0.01402
C 3.67197 23.49269 0.02379
C 3.67439 22.06334 0.00907
C 2.45967 8.52599 0.01465
C 2.477 21.33223 0.00643
C 3.69839 19.10923 0.03267
C 3.73346 17.7731 0.02374
C 2.51672 17.06392 0.00402
C 2.46676 15.64377 0.0073
C 3.67703 14.91066 0.0174
C 3.6504 13.44773 0.03828
C 2.46594 12.7536 0.01226
C 2.43166 11.39627 -0.00279
C 3.70641 10.64009 0.01996
C 2.44343 19.90157 -0.01509
C 4.93672 17.06538 -0.00049
C 4.88891 15.61693 0.00848
C 6.2043 14.9088 -0.01303
C 7.39321 21.3083 0.00488
C 7.35264 19.91541 -0.01004
C 8.57281 19.1454 -0.02896
C 8.60528 17.76526 -0.00131
C 7.37612 17.02607 -0.01118
C 7.33364 15.58916 -0.014
C 8.60432 14.91218 0.02147
C 8.60558 13.51657 0.00373
C 7.37225 12.82449 -0.00191
C 8.6161 21.95586 0.01745
C 7.40169 11.37528 0.00438
C 8.62193 9.24821 0.00093
C 7.40273 8.52794 0.00057
C 7.3739 7.1121 -0.01634
C 8.63534 6.40423 -0.00334
C 8.63925 5.00875 0.02339
C 7.38803 4.28181 0.01641
C 7.3873 2.87592 -0.00719
C 8.6227 2.14366 0.01364
C 8.63457 0.77899 -0.01062
C 8.58484 10.67922 0.01291
C 8.63684 23.44997 0.03693
C 7.33706 24.16002 -0.01384
C 7.36021 25.58529 -0.00482
C 6.16269 13.53352 -0.01378
C 4.89945 12.77362 0.02635
C 4.93328 11.39492 0.0127
C 6.16057 10.63531 0.01396
C 6.17022 9.24286 0.01849
C 4.93424 8.55361 -0.01142
C 4.89356 7.11091 -0.00562
C 6.16152 6.36104 -0.00494
C 6.12939 4.96079 0.00054
C 4.89593 4.26174 0.03007
C 4.92273 2.80745 -0.00095
C 6.13562 2.13276 0.01572
C 6.08823 0.7325 -0.04848
C 4.91206 34.07691 -0.00892
C 7.38152 32.698 -0.01362
C 8.60423 31.95415 -0.0008
C 8.61583 30.54237 0.0288
C 7.36102 29.8394 0.00393
C 7.39186 28.4124 0.00895
C 8.59241 27.73121 0.00685
C 8.56473 26.25086 0.02888
C 9.79826 32.66231 0.03589
C 18.44286 27.69719 0.00364
C 18.47351 26.30383 -0.00831
C 17.18924 25.57668 -0.02957
C 29.52767 7.13325 0.07705
C 30.72014 6.35948 0.0103
C 30.74733 4.9843 0.02108
C 29.51024 4.25555 0.00716
C 29.54317 2.82418 0.00307
C 30.75989 2.13681 0.00346
C 30.70964 0.69319 0.01713
C 29.51265 0.00017 -0.01694
C 31.97374 32.65409 0.01428
C 29.4916 8.57167 0.01908
C 33.23929 31.93262 -0.02142
C 31.9865 29.80846 0.00026
C 31.99312 28.38349 0.00682
C 33.19332 27.693 -0.01779
C 33.20948 26.30005 0.03794
C 31.99832 25.54429 0.01927
C 31.98075 24.12011 0.01574
C 33.2267 23.42643 -0.02383
C 33.19933 22.03261 -0.01429
C 33.23989 19.2038 -0.0136
C 33.22988 30.48428 0.0544
C 33.19427 17.74474 0.00594
C 30.7631 9.23468 0.01518
C 29.50956 11.4173 -0.03735
C 28.28089 9.20441 0.01324
C 27.02856 8.51706 0.0014
C 27.08338 7.0552 0.00924
C 28.28596 6.34095 0.02326
C 28.24112 4.9723 0.00261
C 27.03075 4.22093 0.03265
C 27.03109 2.8028 -0.02049
C 28.28428 2.14763 -0.01854
C 28.28548 0.70284 -0.01415
C 30.74899 10.63992 -0.00971
C 27.08887 0.03841 -0.03039
C 30.77086 31.92833 0.03531
C 30.7557 30.46812 -0.00669
C 29.5057 29.82128 0.0101
C 29.54019 28.37237 0.01705
C 30.76093 27.69235 -0.0405
C 30.75938 26.26259 -0.01303
C 30.73148 14.92658 -0.01461
C 30.75122 13.50018 -0.02155
C 29.53782 12.79681 -0.00944
C 29.51239 32.63854 0.01836
C 32.00505 17.07928 -0.02474
C 31.96759 15.60986 0.00369
C 33.22216 14.88733 0.00455
C 34.41888 21.29302 -0.02213
C 0.01921 19.91144 0.01951
C 1.26447 19.18173 -0.01678
C 1.20902 17.71354 0.01223
C 0.00372 17.02627 0.00648
C 34.42306 15.61827 0.02114
C 1.24517 14.94023 -0.02957
C 1.20876 13.45751 0.00343
C 34.41748 12.73557 -0.02656
C 1.20093 22.02536 0.02712
C 0.01565 11.37164 -0.02442
C 1.20019 9.20132 -0.00583
C 34.39229 8.53063 -0.02302
C 34.42038 7.0788 -0.02849
C 1.19534 6.36475 0.02931
C 1.21362 4.9186 0.00628
C 0.00165 4.26124 -0.0345
C 0.01345 2.85353 -0.00931
C 1.25889 2.14256 -0.00939
C 1.25681 0.70041 -0.00468
C 1.19075 10.66548 -0.00027
C 1.19115 23.4578 0.00723
C 34.42679 24.16405 0.03076
C 0.02114 25.56228 -0.05239
C 33.23274 13.46918 -0.00644
C 31.93724 12.81125 -0.01839
C 31.96531 11.34884 0.00137
C 33.17831 10.67482 0.00199
C 33.16416 9.24941 0.04381
C 31.96819 8.50381 0.02806
C 31.9532 7.13892 0.01504
C 33.20665 6.39727 -0.00069
C 33.21263 4.97363 0.04926
C 31.9656 4.24589 -0.03838
C 31.96962 2.86551 0.00349
C 33.18857 2.12563 -0.00323
C 33.19028 0.72861 -0.00841
C 31.97968 34.0529 0.0001
C 34.42834 32.6393 -0.02927
C 1.20247 31.96013 -0.01404
C 1.23408 30.53476 0.01027
C 0.01224 29.81341 0.01831
C 34.40068 28.38949 -0.01037
C 1.21092 27.65659 -0.00439
C 1.25356 26.27404 -0.00598
C 28.3022 10.60385 0.04266
C 27.00461 11.365 0.01177
C 27.07471 12.75245 -0.00416
C 28.28652 13.4708 0.01699
C 20.91175 31.93468 0.01852
C 20.90109 30.50289 -0.00381
C 19.68868 29.77469 0.03046
C 19.68117 28.38734 0.0296
C 20.87682 27.66191 0.03374
C 20.90171 26.25012 -0.02845
C 19.70772 25.53347 -0.03213
C 19.67378 17.11886 0.02239
C 19.66718 15.62176 0.01153
C 19.67025 32.62397 0.01126
C 20.86055 14.83981 0.02734
C 19.65198 12.79573 0.01515
C 19.68392 11.35701 -0.00225
C 20.8998 10.67952 0.00071
C 20.85099 9.22255 -0.01107
C 19.64813 8.48136 -0.01586
C 19.67903 7.1093 -0.01971
C 20.88956 6.37275 -0.02118
C 20.90311 4.95318 0.00733
C 19.69697 4.20008 -0.00178
C 20.91707 13.47368 -0.0055
C 17.19808 34.07529 -0.01185
C 18.44163 0.67304 -0.01662
C 18.42659 2.11034 -0.00478
C 17.20362 24.17427 -0.04422
C 18.47079 23.42059 0.00654
C 18.47355 21.97017 -0.00703
C 17.22626 21.27008 -0.04076
C 17.25114 19.88286 -0.00652
C 18.45849 19.16826 0.0058
C 18.44312 17.73265 -0.00865
C 17.25717 17.04906 0.00675
C 17.18939 15.61568 -0.00311
C 18.45674 14.91565 0.00742
C 18.4935 13.44397 -0.01594
C 17.26103 12.77238 0.0106
C 17.22694 11.39955 -0.01154
C 18.4356 10.67203 -0.01721
C 18.43616 9.18578 -0.02422
C 17.20986 8.5082 0.01277
C 17.19765 7.0787 0.00096
C 18.42317 6.43431 -0.01527
C 18.43844 4.93863 0.01087
C 17.2322 4.25977 0.00199
C 17.1722 2.84989 0.01511
C 19.64241 2.82845 0.00768
C 3.72614 31.95289 -0.04999
C 20.89606 2.19427 -0.0276
C 19.64412 34.03406 -0.04078
C 25.86592 13.5357 -0.0032
C 24.60627 12.78363 0.00622
C 24.62604 11.3183 -0.02815
C 25.78829 10.61921 -0.00942
C 25.83002 9.22873 0.00487
C 24.56722 8.50098 0.00826
C 24.66213 7.14092 -0.00294
C 25.80888 6.3932 0.00152
C 25.83761 4.97145 0.01257
C 24.58949 28.36757 -0.00037
C 24.52895 4.24508 0.02316
C 25.78995 2.1334 0.00194
C 25.80373 0.72006 -0.00621
C 24.59285 0.01347 0.02611
C 27.07213 32.63881 0.02198
C 28.25595 31.91575 0.01094
C 28.29216 30.52994 0.00235
C 27.01686 29.82041 0.01495
C 27.05066 28.39399 0.01259
C 28.25967 27.70195 0.01799
C 24.59908 2.83047 0.04185
C 24.59231 29.81306 -0.01654
C 25.8247 30.56478 -0.00218
C 25.83929 31.91605 -0.00802
C 22.13161 32.67056 0.02117
C 23.37764 31.95313 0.02737
C 23.40005 30.55904 -0.00498
C 22.18845 29.88463 0.00135
C 22.14455 28.39242 0.03102
C 23.33156 27.63537 0.02555
C 23.35958 13.48038 0.01423
C 22.14446 12.78352 -0.00285
C 22.11255 11.37293 -0.009
C 23.38667 10.6146 -0.01199
C 23.36658 9.27089 -0.00229
C 22.18014 8.54875 -0.00938
C 22.11341 7.11701 -0.0264
C 23.38265 6.37754 -0.01154
C 23.34689 4.99368 0.00684
C 22.12864 4.2284 -0.01052
C 22.151 2.81759 -0.01679
C 23.3391 2.13048 0.00367
C 23.38912 0.7143 0.04306
C 22.10756 34.07648 0.00996
C 24.60567 32.66195 0.00195
C 20.90932 0.71088 0.03005
C 2.49184 32.66849 -0.03291
