293
Graphene
C 34.38849 34.066 0.01295
C 7.34774 0.06432 -0.0054
C 9.86017 32.68564 0.00667
C 11.15759 31.96532 0.00143
C 11.1138 30.49315 -0.017
C 9.90695 29.81193 0.00364
C 9.97854 28.31974 -0.00831
C 8.55682 0.77337 0.00755
C 11.14438 27.56503 -0.02957
C 9.78062 25.58596 0.00654
C 9.79642 24.18703 -0.00703
C 11.11059 23.54633 -0.04076
C 11.15887 22.08322 -0.00652
C 9.91255 21.3213 0.0058
C 9.93924 19.91066 -0.00865
C 11.07455 26.2307 -0.04422
C 11.0855 19.20804 0.00675
C 8.55048 2.19802 0.01739
C 7.24471 4.21852 -0.03557
C 8.6646 19.21332 0.03698
C 8.61261 17.8462 -0.00109
C 7.44 17.07515 -0.00491
C 7.37861 15.58547 0.03338
C 8.58549 14.92143 -0.0258
C 8.62689 13.49654 -0.0331
C 7.29935 2.87469 0.03754
C 7.41631 12.79194 -0.00316
C 8.6151 10.62799 -0.01979
C 8.66286 9.23381 0.02691
C 7.35917 8.55568 -0.01581
C 7.33288 7.08998 0.01452
C 8.58813 6.38787 0.04892
C 8.58548 4.98831 -0.00111
C 7.39122 11.33363 0.02188
C 11.11968 17.84708 -0.00311
C 9.90928 17.0805 0.00742
C 9.83148 15.68356 -0.01594
C 12.38913 28.44503 -0.02845
C 13.73638 27.8441 -0.03213
C 12.05833 25.10742 0.02239
C 12.38282 16.95927 0.01153
C 12.22264 15.54813 0.02734
C 13.43169 14.85447 -0.0055
C 12.32379 29.90126 0.03374
C 13.77146 13.54775 0.01515
C 12.31154 11.32596 0.00071
C 12.33464 8.6688 -0.01107
C 12.31385 7.27792 -0.01586
C 13.27032 6.27204 -0.01971
C 13.70681 4.98455 -0.02118
C 12.3119 4.35374 0.00733
C 12.61584 12.69602 -0.00225
C 13.56299 30.65829 0.0296
C 13.53181 32.08091 0.03046
C 12.35905 32.74585 -0.00381
C 11.01825 14.85258 0.0106
C 11.25232 13.50772 -0.01154
C 9.95113 12.76616 -0.01721
C 9.78508 11.42448 -0.02422
C 11.0046 10.79651 0.01277
C 11.1039 9.32243 0.00096
C 9.8102 8.56852 -0.01527
C 9.80504 7.14716 0.01087
C 11.07495 6.46103 0.00199
C 11.09066 5.05398 0.01511
C 9.83737 4.35474 -0.00478
C 9.78956 2.8845 -0.01662
C 11.03368 2.19357 -0.01185
C 11.02752 0.7729 0.01126
C 9.82873 0.03765 0.01852
C 7.32923 19.91465 -0.02213
C 7.46285 21.28502 0.00028
C 8.69854 21.98624 -0.00289
C 8.67906 23.40322 -0.00066
C 3.62666 10.57948 -0.02971
C 3.65429 9.19293 0.02894
C 2.43727 8.49485 -0.01789
C 2.46908 7.09274 0.00444
C 3.63828 6.40771 -0.00925
C 3.59971 4.94568 0.01877
C 2.44855 11.34643 0.00165
C 2.33759 4.25858 0.01363
C 3.64201 2.11069 0.00415
C 3.61808 0.72243 -0.0014
C 2.39974 0.02036 0.02162
C 4.89995 32.67836 0.0076
C 6.17379 31.9336 0.01241
C 6.22742 30.50797 -0.01454
C 2.35381 2.81434 -0.02162
C 2.41121 12.75776 0.02819
C 3.63463 13.54972 -0.00891
C 3.6595 14.96083 -0.01046
C 3.69355 30.62231 -0.02759
C 2.47452 29.88937 0.0402
C 2.43027 28.48383 0.00572
C 3.65382 27.81258 0.03592
C 3.6035 26.29052 0.00406
C 2.39316 25.5821 0.00943
C 2.41637 24.1827 0.02841
C 3.6936 23.54054 -0.01111
C 3.70005 22.05039 -0.01275
C 2.49444 21.31566 0.00985
C 2.50058 19.85746 -0.02245
C 3.75653 19.19787 -0.00428
C 3.66019 17.75285 0.03101
C 2.41171 17.03024 -0.01536
C 2.40981 15.56606 -0.02689
C 4.97296 29.87748 0.01945
C 12.29637 2.97896 -0.00178
C 4.91446 28.47052 0.01416
C 6.01637 26.3706 0.02299
C 6.0895 4.96483 -0.03113
C 4.84693 4.21804 0.02098
C 4.87584 2.80648 0.01848
C 6.06426 2.12004 -0.00619
C 6.08419 0.663 -0.02162
C 4.90554 34.07137 0.00889
C 6.06397 6.38754 0.0351
C 7.4209 32.72835 -0.00481
C 8.69323 30.58164 0.01443
C 7.42424 29.82669 0.03505
C 7.44863 28.53193 -0.02815
C 8.66633 27.69601 -0.04147
C 8.58948 26.24018 -0.05302
C 7.51089 24.10148 0.00213
C 8.63798 32.02282 0.00979
C 4.87775 7.08784 0.00422
C 4.91097 8.52759 0.00798
C 6.07958 9.18396 0.00228
C 4.83837 25.60478 0.00244
C 4.90115 24.12756 -0.01717
C 6.2414 23.50511 0.05265
C 6.24784 22.10242 -0.01952
C 4.94772 21.38667 -0.02813
C 4.99542 19.97271 0.00374
C 6.14967 19.15299 0.00052
C 6.14461 17.69438 -0.03682
C 4.89786 17.02719 0.01965
C 4.85043 15.63316 0.02058
C 6.08774 14.93532 -0.01957
C 6.16134 13.56101 -0.0108
C 4.91393 12.70527 -0.00368
C 4.89427 11.2969 -0.02696
C 6.17126 10.66947 -0.00114
C 6.17186 27.71661 0.03542
C 3.74758 32.01388 0.03589
C 13.51324 2.17786 0.00768
C 12.35187 0.08578 0.03005
C 31.87639 19.81257 -0.01429
C 33.12652 19.14515 -0.0136
C 33.18173 17.71055 0.00594
C 31.87345 16.9581 -0.02474
C 31.83955 15.57733 0.00369
C 33.1313 14.9426 0.00455
C 31.90861 21.32896 -0.02383
C 33.14348 13.47817 -0.00644
C 31.83841 11.35254 0.00137
C 33.11114 10.71547 0.00199
C 33.20777 9.33461 0.04381
C 31.95032 8.58623 0.02806
C 31.99931 7.14166 0.01504
C 33.15067 6.48911 -0.00069
C 31.88152 12.72354 -0.01839
C 33.09514 5.02489 0.04926
C 33.11874 22.0194 0.01574
C 31.88876 24.1558 0.03794
C 30.50399 5.15111 0.07705
C 29.31729 4.27053 0.0103
C 29.46797 2.84861 0.02108
C 30.69448 2.16887 0.00716
C 30.69031 0.75811 0.00307
C 29.41423 0.06815 0.00346
C 33.11207 23.44098 0.01927
C 31.9778 32.76241 0.01713
C 33.1865 30.6115 0.01428
C 31.95904 29.90191 -0.02142
C 31.91457 28.45733 0.0544
C 33.17447 27.76647 0.00026
C 33.11818 26.30679 0.00682
C 31.89983 25.60556 -0.01779
C 33.21073 32.00156 -0.01694
C 31.82055 4.38905 -0.03838
C 31.83446 2.97401 0.00349
C 33.05946 2.20339 -0.00323
C 1.22322 14.9149 -0.02957
C 1.17948 13.44726 0.00343
C 34.35636 12.83694 -0.02656
C 34.34162 11.35493 -0.02442
C 1.19279 10.60325 -0.00027
C 1.18628 9.23949 -0.00583
C 34.35434 15.56141 0.02114
C 34.36388 8.58691 -0.02302
C 1.20997 6.44973 0.02931
C 1.18588 5.07047 0.00628
C 34.31267 4.30912 -0.0345
C 34.31841 2.9118 -0.00931
C 1.09759 2.14462 -0.00939
C 1.12541 0.76024 -0.00468
C 34.3784 7.18696 -0.02849
C 0.02754 16.93482 0.00648
C 1.22144 17.73261 0.01223
C 1.18745 19.16004 -0.01678
C 33.11915 0.73905 -0.00841
C 31.86776 0.072 0.0001
C 34.42863 32.70881 -0.02927
C 1.25786 31.95666 -0.01404
C 1.20337 30.53914 0.01027
C 34.4153 29.87849 0.01831
C 34.3785 28.45428 -0.01037
C 1.16773 27.72739 -0.00439
C 1.19768 26.28413 -0.00598
C 34.37982 25.60764 -0.05239
C 34.34996 24.14884 0.03076
C 1.19765 23.45641 0.00723
C 1.23848 21.99967 0.02712
C 34.29987 21.29669 -0.02213
C 34.41134 19.91821 0.01951
C 30.6809 6.59548 0.01908
C 29.66541 7.63131 0.01518
C 30.59473 9.05383 -0.00971
C 30.63524 10.49405 -0.03735
C 21.2922 30.44874 0.04306
C 20.80268 0.46843 0.00996
C 19.6183 33.85837 0.00195
C 22.08425 32.67465 -0.00802
C 23.27893 32.00591 -0.00218
C 23.13325 30.45147 -0.01654
C 20.94876 31.80394 0.00367
C 23.39328 0.65481 -0.00037
C 24.53443 32.66676 0.00622
C 25.77227 31.94962 -0.02815
C 25.73989 30.52328 -0.00942
C 24.33877 29.91755 0.00487
C 25.97964 2.12337 0.00826
C 25.8069 0.62148 -0.00294
C 22.11083 0.03393 -0.0032
C 19.64204 32.40717 -0.01679
C 17.19991 0.02253 -0.01052
C 18.51191 0.73094 0.00684
C 14.74263 32.77671 -0.04078
C 15.95471 32.07377 0.02117
C 16.0486 30.57542 0.02737
C 14.82717 29.90898 -0.00498
C 14.78657 15.43178 0.00135
C 14.91515 4.32939 0.03102
C 14.66018 2.9242 0.02555
C 15.85745 2.20885 0.01423
C 15.98833 0.82691 -0.00285
C 14.76744 0.10976 -0.009
C 17.18977 32.76902 -0.01199
C 18.26105 31.80124 -0.00229
C 17.99055 30.4527 -0.00938
C 17.37375 2.68584 -0.0264
C 18.46858 2.21666 -0.01154
C 24.49218 34.01089 0.00152
C 13.48362 0.77748 -0.0276
C 26.95578 32.57526 0.01257
C 28.17968 30.57431 0.04185
C 30.65699 27.70543 -0.02049
C 30.7163 26.34284 -0.01854
C 29.49771 25.63557 -0.01415
C 29.49294 24.13817 -0.03039
C 30.64706 23.40436 0.01836
C 30.68645 21.96736 0.03531
C 29.3241 28.42796 0.03265
C 29.55664 21.26181 -0.00669
C 30.72103 19.16912 0.01705
C 30.72667 17.79339 -0.0405
C 29.42434 17.09315 -0.01303
C 29.30297 15.71686 -0.01461
C 30.4979 14.86279 -0.02155
C 30.67425 13.4833 -0.00944
C 29.41813 19.8439 0.0101
C 29.46713 29.87244 0.00261
C 30.72779 30.56015 0.02326
C 30.72157 32.02011 0.00924
C 26.95656 29.81698 0.00194
C 26.80628 28.42407 -0.00621
C 28.12219 27.68237 0.02611
C 28.28549 26.31629 0.02198
C 28.3418 23.26862 0.01094
C 28.35877 22.00357 0.00235
C 28.09686 19.30124 0.01495
C 28.08599 17.88772 0.01259
C 27.29509 16.78091 0.01799
C 27.89683 4.73892 0.01699
C 26.96332 2.85638 -0.00416
C 28.29845 2.1258 0.01177
C 28.23652 0.68063 0.04266
C 27.06451 34.05379 0.01324
C 29.43704 32.72622 0.0014
C 28.22883 31.97502 0.02316
C 2.47062 32.72753 -0.00033
