345
Graphene
C 0.01654 34.07109 0.01295
C 18.24255 9.02069 0.02098
C 16.84429 8.31682 0.01848
C 16.81937 6.80746 -0.00619
C 18.20005 6.33034 -0.02162
C 18.43171 4.93772 0.00889
C 17.07202 4.33934 -0.00481
C 17.08084 2.88848 0.00979
C 18.39784 2.19878 0.01443
C 18.34517 0.69736 0.03505
C 17.09447 0.03841 -0.02815
C 19.62732 32.75002 -0.04147
C 20.78951 31.92414 -0.05302
C 20.69454 30.54478 0.00213
C 19.37343 29.71665 -0.00066
C 19.61621 28.41142 -0.00289
C 20.83008 27.69191 0.00028
C 20.81271 26.23565 -0.02213
C 18.30108 10.52764 -0.03113
C 17.25701 11.37088 0.0351
C 17.29599 12.81442 0.00422
C 18.48322 13.52398 0.00798
C 15.88446 10.77167 0.03542
C 15.88414 9.35755 0.02299
C 16.02213 5.33459 0.00244
C 14.64179 4.50973 -0.01717
C 14.672 3.01919 0.05265
C 15.87319 2.24231 -0.01952
C 15.86512 0.78268 -0.02813
C 14.64875 33.98998 0.00374
C 19.52599 25.48098 0.03698
C 17.08015 32.70027 0.00052
C 18.31544 30.68094 0.01965
C 18.10166 21.70508 0.02058
C 17.33336 20.1174 -0.01957
C 18.32847 19.21393 -0.0108
C 18.39142 17.78502 -0.00368
C 17.33726 17.05916 -0.02696
C 17.35125 15.63371 -0.00114
C 18.48858 14.89745 0.00228
C 18.3319 31.97159 -0.03682
C 14.76387 11.70596 0.01416
C 19.65699 24.30914 -0.00109
C 20.68725 22.00475 0.03338
C 23.34039 31.92387 0.00654
C 23.34733 30.53973 -0.00703
C 22.10481 29.78552 -0.04076
C 22.05412 28.39383 -0.00652
C 23.24832 27.70948 0.0058
C 23.24613 26.19118 -0.00865
C 22.0591 25.53933 0.00675
C 22.00506 24.20678 -0.00311
C 23.21031 23.35652 0.00742
C 23.20535 22.00145 -0.01594
C 21.94233 21.2995 0.0106
C 22.06212 19.8901 -0.01154
C 23.28065 19.19333 -0.01721
C 23.26664 17.70946 -0.02422
C 22.04751 17.0493 0.01277
C 22.06824 15.69192 0.00096
C 23.2867 14.93565 -0.01527
C 22.03493 32.57852 -0.04422
C 19.60321 0.04306 -0.02957
C 20.91491 0.78013 -0.00831
C 20.88255 2.20185 0.00364
C 19.48267 21.28952 -0.0258
C 19.59198 19.86844 -0.0331
C 20.78752 19.20654 -0.00316
C 20.91121 17.82683 0.02188
C 19.73399 17.10532 -0.01979
C 19.67062 15.72105 0.02691
C 20.86711 14.94231 -0.01581
C 20.88952 13.51503 0.01452
C 20.74048 23.4594 -0.00491
C 19.6961 12.72417 0.04892
C 20.84747 10.63424 -0.03557
C 20.80814 9.18683 0.03754
C 19.51887 8.4077 0.01739
C 19.43879 7.02312 0.00755
C 20.76161 6.49865 -0.0054
C 20.94179 5.08919 0.00667
C 19.62424 4.26651 0.00143
C 19.6803 2.88388 -0.017
C 19.61387 11.30814 -0.00111
C 14.93428 13.02759 0.01945
C 16.14813 13.58374 -0.01454
C 16.05344 14.96765 0.01241
C 6.22749 30.49543 0.00393
C 4.91944 29.81346 0.00895
C 4.87213 28.40285 0.00685
C 6.18304 27.81357 0.02888
C 5.39391 10.71408 -0.00482
C 5.87097 9.24299 -0.01384
C 4.75365 8.37772 0.03693
C 4.94592 7.07104 0.01745
C 6.1631 6.42193 0.00488
C 6.14168 4.94336 -0.01004
C 4.94241 4.23411 -0.02896
C 4.97162 2.77153 -0.00131
C 6.20514 2.06104 -0.01118
C 6.15935 0.6467 -0.014
C 4.90485 0.03271 0.02147
C 7.37271 32.66289 0.00373
C 8.6225 32.05702 -0.00191
C 6.17036 31.90539 0.0288
C 4.95123 32.6682 -0.0008
C 2.45039 0.01222 -0.01362
C 3.66114 0.70708 -0.00892
C 3.69032 30.52639 0.01227
C 2.48806 29.79117 0.00873
C 2.4416 28.38838 -0.00049
C 3.67194 27.64957 0.00848
C 3.60716 26.27035 -0.01303
C 2.49655 25.52535 -0.01378
C 2.38002 24.20144 0.02635
C 2.48189 12.73791 0.0127
C 8.78099 30.54917 0.00438
C 2.75969 11.41065 0.01396
C 3.63927 9.24539 -0.01142
C 2.48928 8.50852 -0.00562
C 2.3883 7.10733 -0.00494
C 3.63411 6.37441 0.00054
C 3.71426 4.89561 0.03007
C 2.45216 4.21093 -0.00095
C 2.3615 2.86656 0.01572
C 3.69326 2.10056 -0.04848
C 4.0318 10.59712 0.01849
C 7.58739 29.79207 0.01291
C 7.42871 28.43531 0.00093
C 8.02238 10.68572 0.00057
C 9.78315 0.15755 -0.01536
C 12.32574 32.75822 -0.02689
C 13.5377 31.86231 -0.01046
C 15.10032 18.65439 -0.00891
C 13.75675 14.07534 0.02819
C 12.24944 11.33252 0.00165
C 13.47759 11.37322 -0.02971
C 12.44511 4.51276 0.02894
C 10.97178 0.75509 0.03101
C 12.29305 3.04744 -0.01789
C 13.47595 0.73973 -0.00925
C 12.22819 0.07305 0.01877
C 14.69302 32.55263 0.01363
C 15.90777 32.0518 -0.02162
C 16.09783 19.4875 0.00415
C 16.00519 17.24452 -0.0014
C 14.7198 16.85497 0.02162
C 14.69043 15.17586 0.0076
C 13.42135 2.21614 0.00444
C 23.37167 13.55446 0.01087
C 11.04488 2.23099 -0.00428
C 9.96264 4.37948 0.00985
C 8.22617 9.38836 -0.01634
C 7.14331 8.5067 -0.00334
C 7.35706 7.17835 0.02339
C 8.63089 6.54811 0.01641
C 8.66748 5.10857 -0.00719
C 7.38989 4.29819 0.01364
C 7.35504 2.85572 -0.01062
C 8.55336 2.20612 -0.00033
C 9.85683 2.91984 -0.02245
C 8.55508 0.73081 0.03589
C 9.84112 32.78671 0.0402
C 10.94343 32.11093 0.00572
C 10.16865 30.39564 0.03592
C 11.19469 10.77349 0.00406
C 10.60493 9.67165 0.00943
C 9.76041 8.71445 0.02841
C 9.85306 7.32112 -0.01111
C 11.17666 5.19699 -0.01275
C 7.33777 0.00432 -0.02759
C 3.63596 31.94072 -0.03337
C 22.12675 12.82048 0.00199
C 23.31645 10.63718 -0.00478
C 31.97209 29.89311 -0.02142
C 31.9012 28.42241 0.0544
C 33.17582 27.76228 0.00026
C 33.14342 26.28607 0.00682
C 31.81532 25.59478 -0.01779
C 31.88036 24.1973 0.03794
C 33.2109 23.394 0.01927
C 33.251 21.99674 0.01574
C 31.94461 21.34731 -0.02383
C 31.89617 19.88663 -0.01429
C 33.13627 19.1964 -0.0136
C 33.11996 17.71042 0.00594
C 31.93807 17.04707 -0.02474
C 31.96559 15.57203 0.00369
C 33.26368 14.88001 0.00455
C 33.21563 13.50413 -0.00644
C 31.88467 12.77819 -0.01839
C 33.23852 30.56815 0.01428
C 33.22593 31.96558 -0.01694
C 31.97923 32.65371 0.01713
C 29.42416 34.03894 0.00346
C 30.69326 19.17197 0.03531
C 30.75408 17.73365 -0.00669
C 29.46559 17.02808 0.0101
C 29.39866 15.58038 0.01705
C 30.77012 14.85829 -0.0405
C 30.77357 13.53809 -0.01303
C 29.51442 12.80787 -0.01461
C 29.52888 11.34349 -0.02155
C 32.04345 11.36563 0.00137
C 30.80083 10.7218 -0.00944
C 29.45651 8.53501 -0.00971
C 29.41514 7.07278 0.01518
C 30.66309 6.37247 0.01908
C 30.70091 4.97623 0.07705
C 29.52001 4.26889 0.0103
C 29.55464 2.82529 0.02108
C 30.70511 2.12693 0.00716
C 30.70788 0.6943 0.00307
C 30.63918 9.28792 -0.03735
C 29.45879 19.92005 0.01836
C 33.21561 10.60671 0.00199
C 31.91286 8.52663 0.02806
C 1.12815 17.79153 0.01223
C 0.03057 17.00937 0.00648
C 0.07147 15.57913 0.02114
C 1.23058 15.011 -0.02957
C 1.38249 13.5793 0.00343
C 0.00618 12.71855 -0.02656
C 0.09732 11.35437 -0.02442
C 1.39981 10.54398 -0.00027
C 1.29424 9.1893 -0.00583
C 0.01018 8.55959 -0.02302
C 34.34883 7.10504 -0.02849
C 1.17647 6.38321 0.02931
C 1.15112 4.97034 0.00628
C 34.36547 4.24954 -0.0345
C 34.382 2.79591 -0.00931
C 1.17682 2.14952 -0.00939
C 1.24229 0.66548 -0.00468
C 1.14166 19.15584 -0.01678
C 34.38397 19.82819 0.01951
C 34.40884 21.29599 -0.02213
C 1.18274 21.97255 0.02712
C 31.87951 7.16072 0.01504
C 33.06717 6.39673 -0.00069
C 33.16744 5.00453 0.04926
C 31.91263 4.29582 -0.03838
C 31.87508 2.8306 0.00349
C 33.13697 2.13866 -0.00323
C 33.24734 0.68019 -0.00841
C 31.98978 34.00931 0.0001
C 33.16941 9.18277 0.04381
C 0.02997 32.72277 -0.02927
C 1.20159 30.5269 0.01027
C 34.41606 29.84057 0.01831
C 34.35258 28.41623 -0.01037
C 1.15042 27.6952 -0.00439
C 1.08418 26.28133 -0.00598
C 34.35844 25.51915 -0.05239
C 34.39014 24.06648 0.03076
C 1.33023 23.32777 0.00723
C 1.25018 31.98634 -0.01404
C 29.44467 21.32216 -0.03039
C 30.74004 21.99989 -0.01415
C 30.68914 23.48633 -0.01854
C 24.46189 19.95947 -0.00178
C 25.77274 19.25468 0.00768
C 25.80792 17.80578 -0.0276
C 24.49009 17.10892 0.03005
C 24.48432 15.71015 -0.04078
C 25.79909 15.03233 0.02117
C 25.79008 13.56548 0.02737
C 24.58121 12.80108 -0.00498
C 24.54884 11.40656 0.00135
C 25.75439 10.63542 0.03102
C 25.7247 9.23452 0.02555
C 24.46014 8.46925 0.01423
C 24.45825 7.03065 -0.00285
C 25.75971 6.35469 -0.009
C 25.7552 4.91916 -0.01199
C 24.59802 4.28445 -0.00229
C 24.62196 2.85326 -0.00938
C 24.46749 21.35567 0.00733
C 25.67557 22.02341 -0.02118
C 25.73173 23.41672 -0.01971
C 24.4846 24.07471 -0.01586
C 23.28153 9.20515 -0.01662
C 22.02115 8.4918 -0.01185
C 22.04462 7.09468 0.01126
C 23.305 6.33119 0.01852
C 23.27516 4.91614 -0.00381
C 22.14334 4.31415 0.03046
C 22.10673 2.92224 0.0296
C 23.4006 2.12994 0.03374
C 25.85515 2.13569 -0.0264
C 23.41157 0.63445 -0.02845
C 24.56271 32.63009 0.02239
C 25.79382 31.90459 0.01153
C 25.73406 30.485 0.02734
C 24.53828 29.75033 -0.0055
C 24.53962 28.34983 0.01515
C 25.7894 27.69276 -0.00225
C 25.71912 26.23846 0.00071
C 24.49362 25.52998 -0.01107
C 22.13099 34.00356 -0.03213
C 25.80619 0.72749 -0.01154
C 24.63608 34.03578 0.00684
C 27.01615 32.63166 -0.01052
C 26.96195 8.53006 0.02611
C 27.02966 7.0994 0.02198
C 28.27507 6.35827 0.01094
C 28.22352 4.94569 0.00235
C 26.97154 4.24161 0.01495
C 27.0562 2.84561 0.01259
C 28.31878 2.17049 0.01799
C 28.24626 0.68069 0.01699
C 28.24575 9.14701 -0.00621
C 26.98812 0.0483 -0.00416
C 30.72469 32.00828 0.04266
C 30.71644 30.58464 0.01324
C 29.42652 29.79243 0.0014
C 29.43691 28.41521 0.00924
C 30.71691 27.67735 0.02326
C 30.68888 26.31254 0.00261
C 29.40957 25.5447 0.03265
C 29.41642 24.13026 -0.02049
C 29.54867 32.63645 0.01177
C 22.0904 11.30573 0.01511
C 28.31074 10.60796 0.00194
C 26.98329 12.84239 0.02316
C 28.24809 31.97254 -0.01679
C 28.26726 30.49785 0.00367
C 26.98159 29.83662 0.04306
C 27.11811 28.4362 0.00996
C 28.2779 27.73815 0.00195
C 28.20133 26.23295 -0.00802
C 26.93477 25.53783 -0.00218
C 26.94512 24.1384 -0.01654
C 26.97219 11.42351 0.04185
C 28.18815 23.43207 -0.00037
C 26.96046 21.33508 0.00622
C 26.96341 19.9818 -0.02815
C 28.20054 19.20118 -0.00942
C 28.24262 17.81813 0.00487
C 27.05414 17.08525 0.00826
C 27.01918 15.61008 -0.00294
C 28.2392 14.87985 0.00152
C 28.28896 13.4846 0.01257
C 28.22738 22.05281 -0.0032
C 2.45033 32.70659 -0.00966
