421
Graphene
C 34.38503 34.02995 0.01295
C 12.28401 24.19517 0.00406
C 13.52506 23.51604 0.00943
C 13.49369 22.08926 0.02841
C 12.26457 21.36688 -0.01111
C 12.60811 20.01595 -0.01275
C 13.36354 9.18922 0.00985
C 12.18065 8.4053 -0.02245
C 12.27009 7.01478 -0.00428
C 13.53358 6.32494 0.03101
C 13.48011 4.89572 -0.01536
C 12.22294 25.62228 0.03592
C 12.28232 4.122 -0.02689
C 13.55026 2.0799 -0.00891
C 13.5784 0.67606 0.02819
C 12.29229 0.03991 0.00165
C 14.71935 32.60736 -0.02971
C 15.98148 31.86058 0.02894
C 15.90981 30.51956 -0.01789
C 14.72681 29.83787 0.00444
C 14.6831 28.45885 -0.00925
C 15.94636 27.71941 0.01877
C 15.99054 26.33081 0.01363
C 12.3128 2.78494 -0.01046
C 14.72317 25.62941 -0.02162
C 13.45178 26.28254 0.00572
C 12.2218 28.50652 -0.02759
C 9.98047 19.97795 0.00488
C 11.32312 19.25032 -0.01004
C 11.05241 17.92502 -0.02896
C 10.06026 16.98687 -0.00131
C 9.79861 15.59857 -0.01118
C 9.82702 12.99612 -0.014
C 10.03744 11.62054 0.02147
C 11.02227 10.60901 0.00373
C 11.04603 9.21177 -0.00191
C 9.84891 8.52952 0.00438
C 13.46445 27.76631 0.0402
C 9.82419 7.16431 0.01291
C 11.03516 4.86833 0.00057
C 9.76163 4.27928 -0.01634
C 9.75782 2.8309 -0.00334
C 11.01663 2.10617 0.02339
C 11.03793 0.68909 0.01641
C 9.83682 0.04105 -0.00719
C 12.31676 32.68268 0.01364
C 13.5191 31.92116 -0.01062
C 13.48422 30.52621 -0.00033
C 12.26277 29.87088 0.03589
C 11.05397 6.31615 0.00093
C 14.78944 24.19018 0.00415
C 15.99908 23.42179 -0.0014
C 15.95896 22.03346 0.02162
C 18.39725 9.25384 0.02098
C 17.17687 8.50709 0.01848
C 17.09787 7.11344 -0.00619
C 18.34657 6.40383 -0.02162
C 18.35041 4.91605 0.00889
C 17.13889 4.23588 -0.00481
C 17.13882 2.80608 0.00979
C 18.38762 2.05556 0.01443
C 18.38249 0.58887 0.03505
C 17.18867 33.98041 -0.02815
C 18.57321 10.5177 -0.03113
C 19.65503 32.60577 -0.04147
C 20.90897 30.50942 0.00213
C 19.63638 29.82348 -0.00066
C 19.61847 28.43655 -0.00289
C 20.86246 27.65748 0.00028
C 20.89385 26.23891 -0.02213
C 19.66214 25.57241 0.03698
C 19.71229 24.12024 -0.00109
C 20.94745 23.39402 -0.00491
C 20.92232 22.02125 0.03338
C 19.72679 21.26366 -0.0258
C 20.88191 31.97291 -0.05302
C 18.47009 19.23053 0.0351
C 17.20523 19.85723 0.00422
C 17.15375 21.25389 0.00798
C 14.73769 21.32984 0.0076
C 14.69713 19.95752 0.01241
C 15.91579 9.21187 -0.01454
C 14.65361 8.64726 0.01945
C 14.69028 7.15817 0.01416
C 15.88641 6.37982 0.03542
C 16.00163 4.9293 0.02299
C 14.76809 4.17848 0.00244
C 14.75794 2.76095 -0.01717
C 15.99194 2.08954 0.05265
C 16.01825 0.66044 -0.01952
C 14.75507 34.04901 -0.02813
C 17.20074 32.56176 0.00374
C 18.3708 31.90796 0.00052
C 18.42406 30.52126 -0.03682
C 17.19103 29.72848 0.01965
C 17.15636 28.31108 0.02058
C 18.41088 27.69655 -0.01957
C 18.42077 26.27988 -0.0108
C 17.18281 25.58753 -0.00368
C 17.19012 24.11292 -0.02696
C 18.45377 23.43901 -0.00114
C 18.43515 21.99014 0.00228
C 9.88243 21.37131 0.01745
C 11.09111 22.15706 0.03693
C 11.0378 23.53568 -0.01384
C 9.80866 24.25472 -0.00482
C 3.69465 2.19002 -0.00561
C 3.57526 0.75882 0.00208
C 2.35552 34.07735 0.01707
C 4.88013 32.68015 0.02769
C 6.1596 31.99071 -0.03291
C 6.13061 30.59114 -0.04999
C 4.89918 29.87828 0.04505
C 4.96321 28.43189 0.03284
C 6.14655 27.68991 -0.04307
C 6.10781 26.25334 0.03189
C 2.36721 2.8684 -0.01977
C 4.94677 25.50336 0.00031
C 6.09717 23.43392 0.01402
C 6.12003 22.04421 0.02379
C 4.90607 21.29157 0.00907
C 4.94527 19.9078 0.00643
C 6.16771 19.23849 -0.01509
C 6.15653 17.80884 0.03267
C 4.93685 17.07349 0.02374
C 4.91324 15.59086 0.00402
C 6.12196 14.96372 0.0073
C 6.12227 13.50554 0.0174
C 4.87328 24.1157 -0.003
C 2.36563 4.3114 0.02784
C 3.59276 5.0415 -0.01979
C 3.60828 6.48787 -0.00449
C 3.70576 30.5712 0.03345
C 2.47974 29.82531 0.00748
C 2.53924 28.41702 0.00662
C 3.71897 27.65418 -0.0154
C 3.67824 26.12815 -0.01299
C 2.43633 25.56364 -0.00407
C 2.40297 24.15508 0.01138
C 3.66113 23.4664 0.03278
C 3.67278 22.03764 -0.00177
C 2.41737 21.27484 0.04421
C 2.43578 19.89277 0.00088
C 3.68988 19.16657 0.00828
C 3.70053 17.78879 -0.02375
C 2.52978 17.07319 0.00558
C 2.44718 15.67903 -0.0059
C 3.67119 14.88263 -0.01386
C 3.69184 13.46989 -0.02805
C 2.46363 12.75371 0.00081
C 2.40657 11.32515 0.00245
C 3.65472 10.59238 0.02728
C 3.63463 9.24979 -0.00039
C 2.42237 8.50407 0.0064
C 2.32475 7.14224 0.00211
C 4.90157 12.70723 0.03828
C 19.71926 19.83696 -0.0331
C 4.92374 11.2863 0.01226
C 6.1491 9.23838 0.01996
C 8.59745 13.60005 -0.01303
C 7.38272 12.83646 -0.01378
C 7.4305 11.34609 0.02635
C 8.75557 10.76992 0.0127
C 8.63243 9.27741 0.01396
C 7.39692 8.56207 0.01849
C 7.40419 7.1785 -0.01142
C 8.55629 6.43924 -0.00562
C 8.58287 4.97685 -0.00494
C 7.31411 4.3389 0.00054
C 8.51522 14.98388 0.00848
C 7.33971 2.90972 0.03007
C 8.53263 0.77993 0.01572
C 7.35892 0.09543 -0.04848
C 9.81595 32.68865 -0.00892
C 11.03887 32.03624 -0.01362
C 11.06952 30.65917 -0.0008
C 9.79615 29.9333 0.0288
C 9.78205 28.4831 0.00393
C 11.04115 27.78157 0.00895
C 11.06012 26.3979 0.00685
C 9.85374 25.6177 0.02888
C 8.50688 2.15197 -0.00095
C 7.34858 15.68761 -0.00049
C 7.39843 17.12226 0.00873
C 8.6869 17.70405 0.01227
C 4.9 8.55806 -0.03996
C 4.90043 7.20746 0.01465
C 6.09867 6.42747 -0.00074
C 6.07821 5.03056 -0.00518
C 4.86199 4.37396 0.0086
C 4.91858 2.92578 -0.00643
C 6.15586 2.28063 0.017
C 6.14069 0.77996 -0.03113
C 4.85196 0.07456 -0.02566
C 7.33356 32.71968 -0.00094
C 8.5768 32.04914 0.02322
C 8.54949 30.60773 -0.00725
C 7.30879 29.89878 -0.05697
C 7.3498 28.47334 0.01087
C 8.55376 27.73028 -0.01343
C 8.57168 26.3622 0.00988
C 7.31676 25.62265 0.0276
C 7.33542 24.17959 0.01305
C 8.59669 23.44333 -0.00077
C 8.57395 22.01338 0.03368
C 7.40089 21.29512 -0.02929
C 7.46359 19.92809 -0.00966
C 8.72615 19.18494 -0.03337
C 6.07902 10.60703 -0.00279
C 3.60834 31.94351 -0.00112
C 20.87052 19.16273 -0.00316
C 19.68435 17.03562 -0.01979
C 29.43628 11.37828 -0.02155
C 30.69073 10.62523 -0.00944
C 30.71044 9.26632 -0.03735
C 29.47565 8.5344 -0.00971
C 29.48889 7.14318 0.01518
C 30.72228 6.39988 0.01908
C 30.72656 4.918 0.07705
C 29.48522 4.19966 0.0103
C 29.52 2.88429 0.02108
C 30.68627 2.10107 0.00716
C 29.44868 12.8383 -0.01461
C 30.68376 0.7263 0.00307
C 31.93484 32.62796 0.01713
C 33.23365 31.86787 -0.01694
C 33.25861 30.4613 0.01428
C 32.02541 29.78245 -0.02142
C 32.00807 28.35134 0.0544
C 33.21191 27.65042 0.00026
C 33.20701 26.16759 0.00682
C 31.99419 25.48662 -0.01779
C 31.91602 24.08954 0.03794
C 33.18377 23.33647 0.01927
C 29.43734 34.04259 0.00346
C 33.15373 21.93274 0.01574
C 30.71795 13.49921 -0.01303
C 29.46721 15.5809 0.01705
C 28.3014 4.96963 0.00235
C 27.00913 4.27607 0.01495
C 27.0961 2.88913 0.01259
C 28.3067 2.12053 0.01799
C 28.2448 0.71601 0.01699
C 27.00678 0.05574 -0.00416
C 29.42008 32.66142 0.01177
C 30.74357 31.95556 0.04266
C 30.774 30.53991 0.01324
C 29.56949 29.79347 0.0014
C 30.70507 14.87866 -0.0405
C 29.50505 28.33786 0.00924
C 30.80007 26.28846 0.00261
C 29.56406 25.60262 0.03265
C 29.49349 24.08454 -0.02049
C 30.6959 23.34217 -0.01854
C 30.67034 21.91253 -0.01415
C 29.4834 21.27336 -0.03039
C 29.40652 19.81991 0.01836
C 30.64876 19.17736 0.03531
C 30.74473 17.74542 -0.00669
C 29.488 17.08317 0.0101
C 30.77459 27.6407 0.02326
C 31.96751 21.22936 -0.02383
C 31.92514 19.83834 -0.01429
C 33.15794 19.17447 -0.0136
C 1.20964 23.36496 0.00723
C 1.18102 21.96447 0.02712
C 34.3682 21.23905 -0.02213
C 34.42586 19.86586 0.01951
C 1.23174 19.17723 -0.01678
C 1.2629 17.71859 0.01223
C 0.02571 17.00924 0.00648
C 0.06612 15.63089 0.02114
C 1.27397 14.92355 -0.02957
C 1.22495 13.49057 0.00343
C 0.00358 24.04798 0.03076
C 34.36091 12.76143 -0.02656
C 1.15383 10.62568 -0.00027
C 1.19201 9.15096 -0.00583
C 34.35744 8.45001 -0.02302
C 34.34484 7.06516 -0.02849
C 1.11571 6.39453 0.02931
C 1.18165 5.02021 0.00628
C 34.37463 4.25799 -0.0345
C 34.3813 2.81457 -0.00931
C 1.22339 2.1491 -0.00939
C 1.16973 0.71786 -0.00468
C 34.36661 11.39017 -0.02442
C 34.43001 25.52715 -0.05239
C 1.23459 26.23944 -0.00598
C 1.2781 27.66011 -0.00439
C 33.19125 17.73296 0.00594
C 31.94239 17.04048 -0.02474
C 31.92777 15.53554 0.00369
C 33.21285 14.95019 0.00455
C 33.19181 13.54302 -0.00644
C 31.92125 12.82646 -0.01839
C 31.9282 11.34893 0.00137
C 33.15881 10.69562 0.00199
C 33.14686 9.25201 0.04381
C 31.92905 8.50065 0.02806
C 31.93827 7.10179 0.01504
C 33.13976 6.37407 -0.00069
C 33.12412 4.98717 0.04926
C 31.94207 4.19891 -0.03838
C 31.92638 2.80749 0.00349
C 33.14616 2.07577 -0.00323
C 33.14767 0.64809 -0.00841
C 31.9392 34.07707 0.0001
C 34.41139 32.5974 -0.02927
C 1.20778 31.96062 -0.01404
C 1.24981 30.55798 0.01027
C 0.01351 29.76485 0.01831
C 0.05323 28.37234 -0.01037
C 28.24736 6.36755 0.01094
C 27.01654 7.08523 0.02198
C 27.0453 8.52107 0.02611
C 28.27254 9.18671 -0.00621
C 22.14022 21.2543 0.0106
C 22.11173 19.85652 -0.01154
C 23.32775 19.08812 -0.01721
C 23.31 17.63788 -0.02422
C 22.05039 17.01771 0.01277
C 22.05604 15.61066 0.00096
C 23.31944 14.95922 -0.01527
C 23.35195 13.49857 0.01087
C 22.14622 12.84209 0.00199
C 22.18403 11.43527 0.01511
C 23.37724 22.00107 -0.01594
C 23.37156 10.62599 -0.00478
C 22.11738 8.56362 -0.01185
C 22.13025 7.1485 0.01126
C 23.28718 6.43176 0.01852
C 23.36397 4.94655 -0.00381
C 22.08364 4.26203 0.03046
C 22.10857 2.87918 0.0296
C 23.30886 2.148 0.03374
C 23.33131 0.77308 -0.02845
C 22.10159 0.02359 -0.03213
C 24.55353 32.7296 0.02239
C 23.35141 9.23567 -0.01662
C 23.42107 23.4436 0.00742
C 22.1782 24.17541 -0.00311
C 22.12985 25.58983 0.00675
C 19.73869 15.69521 0.02691
C 20.93894 14.90168 -0.01581
C 20.91525 13.49541 0.01452
C 19.65784 12.7696 0.04892
C 19.58688 11.46323 -0.00111
C 20.994 10.6651 -0.03557
C 20.95785 9.28924 0.03754
C 19.66811 8.55542 0.01739
C 19.5808 7.08882 0.00755
C 20.89355 6.43264 -0.0054
C 20.85967 4.97153 0.00667
C 19.62511 4.23906 0.00143
C 19.6361 2.77654 -0.017
C 20.8581 2.14663 0.00364
C 20.84577 0.6719 -0.00831
C 19.60909 33.9965 -0.02957
C 22.10372 32.69823 -0.04422
C 23.3148 31.96712 0.00654
C 23.32541 30.521 -0.00703
C 22.16776 29.81598 -0.04076
C 22.07264 28.45249 -0.00652
C 23.32582 27.76278 0.0058
C 23.35326 26.30786 -0.00865
C 25.83919 31.99181 0.01153
C 20.85714 17.77121 0.02188
C 25.79178 30.55392 0.02734
C 24.62248 28.4641 0.01515
C 27.0447 32.68602 -0.01052
C 28.26549 31.93976 -0.01679
C 28.31559 30.57844 0.00367
C 27.07485 29.85893 0.04306
C 27.10826 28.42169 0.00996
C 28.26276 27.68934 0.00195
C 28.2826 26.27196 -0.00802
C 27.07251 25.55996 -0.00218
C 27.04169 24.14539 -0.01654
C 28.25809 23.40433 -0.00037
C 24.50438 0.01199 0.00684
C 28.2527 21.95783 -0.0032
C 26.98086 19.78901 -0.02815
C 28.19768 19.15856 -0.00942
C 28.19285 17.72066 0.00487
C 26.9932 17.01497 0.00826
C 27.06606 15.6303 -0.00294
C 28.24189 14.8739 0.00152
C 28.26411 13.51277 0.01257
C 27.01079 12.76791 0.02316
C 27.09151 11.38755 0.04185
C 28.20569 10.56442 0.00194
C 27.03429 21.24334 0.00622
C 25.81686 0.7104 -0.01154
C 25.79014 2.10531 -0.0264
C 24.60706 2.82568 -0.00938
C 25.85745 27.70539 -0.00225
C 25.8561 26.26378 0.00071
C 24.62708 25.54002 -0.01107
C 24.64497 24.13056 -0.01586
C 25.86214 23.43226 -0.01971
C 25.75919 21.9661 -0.02118
C 24.56784 21.28764 0.00733
C 24.62713 19.76094 -0.00178
C 25.79772 19.09734 0.00768
C 25.79632 17.71237 -0.0276
C 24.57061 16.9663 0.03005
C 24.56415 15.53499 -0.04078
C 25.79998 14.8821 0.02117
C 25.81578 13.48126 0.02737
C 24.594 12.75955 -0.00498
C 24.60261 11.345 0.00135
C 25.84682 10.66862 0.03102
C 25.83117 9.26832 0.02555
C 24.60714 8.5614 0.01423
C 24.5576 7.08658 -0.00285
C 25.76989 6.46828 -0.009
C 25.8436 4.99237 -0.01199
C 24.57461 4.25548 -0.00229
C 24.53982 29.83953 -0.0055
C 2.39942 32.62252 0.01078
