310
Graphene
C 34.42507 0.06606 0.01295
C 13.56065 31.96255 -0.00316
C 13.51298 30.55209 0.02188
C 12.22834 29.89505 -0.01979
C 12.3064 28.39171 0.02691
C 13.54686 27.70279 -0.01581
C 13.50992 26.26566 0.01452
C 12.30374 25.5339 0.04892
C 12.21331 24.03073 -0.00111
C 13.46314 23.33761 -0.03557
C 13.59944 21.82925 0.03754
C 12.26895 21.27271 0.01739
C 12.36223 19.86305 0.00755
C 13.57242 19.06099 -0.0054
C 13.58625 17.81632 0.00667
C 12.33093 17.12004 0.00143
C 12.28644 32.63318 -0.0331
C 12.32717 15.53859 -0.017
C 9.81078 34.00482 -0.0258
C 11.1028 2.07167 -0.00491
C 10.96993 23.4339 0.00889
C 11.083 21.98712 -0.00481
C 9.85852 21.33737 0.00979
C 9.73536 19.88092 0.01443
C 11.04371 19.27047 0.03505
C 11.09664 17.8643 -0.02815
C 9.91038 17.00252 -0.04147
C 10.03256 15.63011 -0.05302
C 11.01154 14.98326 0.00213
C 11.04066 9.23374 -0.00066
C 9.73899 6.99707 -0.00289
C 11.02708 6.48334 0.00028
C 11.03354 5.0526 -0.02213
C 9.82486 4.35366 0.03698
C 9.85978 2.91264 -0.00109
C 11.0469 0.61345 0.03338
C 13.54424 14.95673 0.00364
C 13.64108 13.61975 -0.00831
C 12.49796 12.65645 -0.02957
C 14.69116 24.01861 0.01511
C 15.977 23.53185 -0.00478
C 14.7853 21.17859 -0.01662
C 14.56873 12.65526 -0.01185
C 14.8981 11.38152 0.01126
C 16.15795 10.61741 0.01852
C 16.02038 9.26342 -0.00381
C 14.77075 8.60053 0.03046
C 14.72798 7.12434 0.0296
C 15.93576 6.41715 0.03374
C 15.96865 4.95869 -0.02845
C 14.75374 4.24031 -0.03213
C 14.73385 2.74883 0.02239
C 15.89467 2.09965 0.01153
C 15.98571 0.70403 0.02734
C 14.72881 25.52239 0.00199
C 15.98605 26.29458 0.01087
C 15.99591 27.65962 -0.01527
C 14.82525 28.47711 0.00096
C 12.39129 11.42327 -0.04422
C 13.51624 10.55019 0.00654
C 13.55508 9.25041 -0.00703
C 12.18189 8.5485 -0.04076
C 12.31007 7.05838 -0.00652
C 13.53466 6.36021 0.0058
C 13.52603 4.9177 -0.00865
C 9.82288 24.20029 -0.02162
C 12.23669 4.28949 0.00675
C 13.49169 2.20276 0.00742
C 13.40151 0.81927 -0.01594
C 12.26805 34.02199 0.0106
C 14.76971 32.67227 -0.01154
C 15.99685 31.94293 -0.01721
C 16.05631 30.50298 -0.02422
C 14.73985 29.84167 0.01277
C 12.2686 2.84048 -0.00311
C 9.83988 25.60418 -0.00619
C 11.09033 26.27887 0.01848
C 11.08588 27.70133 0.02098
C 3.69562 2.07842 0.03592
C 3.69852 0.7074 0.00406
C 2.47838 0.00118 0.00943
C 4.84764 32.66191 0.02841
C 6.06962 31.9861 -0.01111
C 6.12128 30.50109 -0.01275
C 4.86809 29.81717 0.00985
C 4.8801 28.38208 -0.02245
C 6.14294 27.72317 -0.00428
C 6.1203 26.28397 0.03101
C 4.92473 25.53685 -0.01536
C 4.89847 24.11047 -0.02689
C 6.09313 23.29402 -0.01046
C 6.11202 21.93053 -0.00891
C 4.88635 21.31477 0.02819
C 2.50867 2.86783 0.00572
C 2.49393 4.27273 0.0402
C 3.72001 5.01251 -0.02759
C 3.60267 6.44869 0.03589
C 3.68835 30.49037 -0.014
C 2.47572 29.82152 0.02147
C 2.43914 28.40828 0.00373
C 3.64379 27.66366 -0.00191
C 3.61873 26.23792 0.00438
C 2.4161 25.59997 0.01291
C 2.40711 24.22043 0.00093
C 4.96565 19.86325 0.00165
C 3.61496 23.4618 0.00057
C 2.42153 21.32209 -0.00334
C 2.485 19.86471 0.02339
C 3.72313 19.20029 0.01641
C 3.70565 17.78883 -0.00719
C 2.47863 17.11206 0.01364
C 2.32817 15.65952 -0.01062
C 2.50746 6.9636 -0.00033
C 3.66055 22.01608 -0.01634
C 14.66342 0.05229 -0.0055
C 6.19434 19.18447 -0.02971
C 4.94474 17.15628 -0.01789
C 8.61066 19.15836 0.00374
C 8.6845 17.73026 0.00052
C 7.46434 17.07254 -0.03682
C 8.62897 6.52044 0.01965
C 8.5175 5.07903 0.02058
C 7.38695 4.27585 -0.01957
C 7.40581 2.84615 -0.0108
C 8.64614 2.11732 -0.00368
C 8.58608 0.71413 -0.02696
C 7.3767 34.03632 -0.00114
C 9.75693 32.61654 0.00228
C 11.04836 31.96411 0.00798
C 11.04105 30.49078 0.00422
C 9.84406 29.80681 0.0351
C 9.80947 28.37224 -0.03113
C 7.42292 19.81743 -0.02813
C 7.44576 21.31233 -0.01952
C 8.62161 22.03799 0.05265
C 8.58465 23.4523 -0.01717
C 6.11239 6.39399 0.00444
C 6.09104 5.0341 -0.00925
C 4.84293 4.20643 0.01877
C 4.88695 2.7723 0.01363
C 6.18348 2.11873 -0.02162
C 6.18642 0.685 0.00415
C 4.87197 0.00163 -0.0014
C 6.24049 17.70089 0.02894
C 7.32918 32.60736 0.02162
C 8.62722 30.56589 0.01241
C 7.40189 29.89893 -0.01454
C 7.38181 28.40462 0.01945
C 8.56537 27.60329 0.01416
C 8.59966 26.17926 0.03542
C 7.30566 25.48386 0.02299
C 7.31149 24.09742 0.00244
C 8.59106 31.96159 0.0076
C 17.19595 32.65 0.01515
C 18.42384 31.92718 -0.00225
C 18.51596 30.54882 0.00071
C 33.11277 27.72743 0.01927
C 33.22728 26.32896 0.01574
C 31.91284 25.53012 -0.02383
C 32.00259 24.18161 -0.01429
C 33.1184 23.39836 -0.0136
C 33.35581 22.05584 0.00594
C 33.23625 19.20703 -0.02474
C 33.06751 17.89564 0.00369
C 32.14151 17.01173 0.00455
C 31.85815 15.70978 -0.00644
C 33.23551 14.93734 -0.01839
C 33.2485 13.60277 0.00137
C 31.96148 12.93385 0.00199
C 31.9467 11.4873 0.04381
C 33.21221 10.80227 0.02806
C 31.91276 28.4149 0.03794
C 31.99379 29.85087 -0.01779
C 33.22657 30.54163 0.00682
C 33.1343 31.93566 0.00026
C 30.70458 15.03308 -0.00944
C 30.65324 13.6215 -0.03735
C 29.43377 12.89273 -0.00971
C 29.42056 11.43859 0.01518
C 30.66407 10.67968 0.01908
C 30.71711 9.26101 0.07705
C 29.53868 8.52147 0.0103
C 33.17326 9.34107 0.01504
C 29.45565 7.08265 0.02108
C 30.79229 4.95721 0.00307
C 29.54504 4.30466 0.00346
C 29.48955 2.81961 0.01713
C 30.70729 2.09121 -0.01694
C 30.72183 0.67244 0.01428
C 29.4813 34.06542 -0.02142
C 31.8627 32.63073 0.0544
C 30.7223 6.43542 0.00716
C 30.71239 26.25185 -0.02155
C 31.96497 8.55967 -0.00069
C 33.19309 6.37163 -0.03838
C 1.18305 17.81268 0.02114
C 0.02369 17.0271 -0.02957
C 0.01706 15.58523 0.00343
C 1.33241 15.08082 -0.02656
C 0.06293 12.77653 -0.02442
C 0.01267 11.52129 -0.00027
C 1.1641 9.15493 -0.00583
C 34.41516 8.59337 -0.02302
C 34.34264 7.13 -0.02849
C 1.1956 6.46386 0.02931
C 1.27588 4.98678 0.00628
C 0.07172 4.26513 -0.0345
C 0.03331 2.8201 -0.00931
C 1.27394 2.12422 -0.00939
C 1.24557 0.74342 -0.00468
C 1.238 19.2562 0.00648
C 34.42433 19.88434 0.01223
C 34.40035 21.28917 -0.01678
C 1.23467 22.03948 0.01951
C 33.2568 4.87972 0.00349
C 32.04993 4.22178 -0.00323
C 31.97909 2.78999 -0.00841
C 33.25416 2.11539 0.0001
C 33.21906 0.72442 -0.02927
C 31.96868 34.03981 -0.01404
C 34.36743 32.7042 0.01027
C 31.91887 7.12142 0.04926
C 1.1944 31.95198 0.01831
C 0.00866 29.84261 -0.00439
C 34.35189 28.44144 -0.00598
C 1.19176 27.72901 -0.05239
C 1.19201 26.32454 0.03076
C 34.42682 25.54583 0.00723
C 0.03338 24.12968 0.02712
C 1.23805 23.4515 -0.02213
C 1.18703 30.49242 -0.01037
C 3.62671 31.93609 -0.01118
C 30.71334 27.60902 -0.01461
C 29.49264 29.85905 -0.0405
C 20.92615 5.0117 -0.00229
C 19.61614 4.278 -0.00938
C 19.64721 2.86373 -0.0264
C 20.85901 2.19795 -0.01154
C 20.89768 0.77327 0.00684
C 19.70459 0.09848 -0.01052
C 22.07009 32.67327 -0.01679
C 23.36417 32.03034 0.00367
C 23.38444 9.20993 0.04306
C 22.1453 8.68654 0.00996
C 22.21916 7.15516 0.00195
C 23.40549 6.36275 -0.00802
C 23.34018 4.93474 -0.00218
C 22.09298 4.29237 -0.01654
C 22.11723 2.92702 -0.00037
C 20.93002 6.48767 -0.01199
C 19.6621 7.03293 -0.009
C 19.5875 8.59695 -0.00285
C 20.82931 9.12196 0.01423
C 17.40566 29.7217 -0.01107
C 17.17619 28.41502 -0.01586
C 17.11264 25.36631 -0.01971
C 17.06127 24.19144 -0.02118
C 18.35333 9.14799 0.00733
C 17.18177 8.55261 -0.00178
C 17.20517 7.05607 0.00768
C 23.29511 2.15154 -0.0032
C 18.38552 6.34335 -0.0276
C 17.22506 4.25207 -0.04078
C 17.16609 2.80662 0.02117
C 18.38659 2.16064 0.02737
C 18.41266 0.71817 -0.00498
C 17.20702 0.01004 0.00135
C 19.62698 32.67712 0.03102
C 20.8753 32.07877 0.02555
C 18.41844 4.94977 0.03005
C 29.46235 28.39964 -0.01303
C 23.38878 0.75155 0.00622
C 24.56839 32.63353 -0.00942
C 26.90599 11.35337 0.01324
C 28.22638 10.63193 0.0014
C 28.27609 9.21442 0.00924
C 27.02582 8.4962 0.02326
C 27.05975 7.06286 0.00261
C 28.25148 6.43125 0.03265
C 28.27363 5.01279 -0.02049
C 27.01439 4.21592 -0.01854
C 27.00213 2.75794 -0.01415
C 28.20378 2.10486 -0.03039
C 28.27315 0.74662 0.01836
C 27.08449 0.01931 0.03531
C 29.36202 32.62728 -0.00669
C 30.63631 31.93975 0.0101
C 30.76046 30.55897 0.01705
C 27.17601 12.72367 0.04266
C 28.18145 13.42433 0.01177
C 28.40352 27.64744 -0.00416
C 26.92771 29.8397 0.01699
C 25.79117 31.9218 0.00487
C 25.93238 30.47516 0.00826
C 25.8952 10.49643 -0.00294
C 25.79777 9.16805 0.00152
C 24.54786 8.48406 0.01257
C 24.65192 7.08246 0.02316
C 25.81041 6.3496 0.04185
C 22.1244 0.12966 -0.02815
C 25.79411 4.92087 0.00194
C 24.58314 2.81544 0.02611
C 25.77887 2.09687 0.02198
C 25.82322 0.66691 0.01094
C 24.55695 34.06841 0.00235
C 27.01398 32.68291 0.01495
C 28.17708 31.82353 0.01259
C 28.21889 30.43387 0.01799
C 24.52418 4.21014 -0.00621
C 2.42245 32.58987 -0.00131
