306
Graphene
C 0.01803 0.02603 0.01295
C 13.60144 13.47106 0.02691
C 12.26098 12.84724 -0.01581
C 12.30516 11.39025 0.01452
C 13.54249 10.63305 0.04892
C 13.60622 9.28367 -0.00111
C 12.31286 8.52537 -0.03557
C 12.26882 7.07232 0.03754
C 13.49715 6.35178 0.01739
C 13.49892 4.86094 0.00755
C 12.29767 4.22588 -0.0054
C 12.34722 2.86091 0.00667
C 13.56334 2.08912 0.00143
C 13.57174 0.66689 -0.017
C 12.353 0.02421 0.00364
C 14.77181 15.68127 -0.00831
C 13.54559 14.91053 -0.01979
C 15.98714 14.88612 -0.02957
C 12.24579 15.57623 0.02188
C 11.11819 0.61023 -0.0331
C 9.75777 17.04964 0.01443
C 9.81636 15.64706 0.03505
C 11.06636 14.87791 -0.02815
C 11.04915 13.54247 -0.04147
C 9.76339 12.84328 -0.05302
C 9.85248 11.38934 0.00213
C 11.08444 10.66639 -0.00066
C 11.09464 9.24709 -0.00289
C 9.87897 8.5321 0.00028
C 9.84103 7.11215 -0.02213
C 11.07859 6.37762 0.03698
C 11.08882 4.95734 -0.00109
C 9.84125 4.3089 -0.00491
C 9.80698 2.84415 0.03338
C 11.05796 2.19585 -0.0258
C 9.81743 34.05644 -0.00316
C 7.37447 34.05271 0.00979
C 14.7743 12.82139 -0.04422
C 14.83784 7.07381 -0.00703
C 19.6414 4.20556 -0.01662
C 19.66203 2.85797 -0.01185
C 20.94049 2.07159 0.01126
C 20.84311 0.66605 0.01852
C 19.68236 34.03148 -0.00381
C 22.21165 32.64239 0.03046
C 23.37626 31.95809 0.0296
C 23.41657 30.51228 0.03374
C 22.12768 15.67535 -0.02845
C 23.31034 14.932 -0.03213
C 22.09668 7.06434 0.02239
C 23.38337 6.36213 0.01153
C 23.33602 4.9978 0.02734
C 22.11976 4.23209 -0.0055
C 22.10107 2.85033 0.01515
C 20.88132 4.99924 -0.00478
C 14.77224 8.50684 0.00654
C 20.97884 6.45994 0.01511
C 19.74211 32.57554 0.01087
C 16.03117 6.37884 -0.04076
C 16.01139 4.98524 -0.00652
C 14.7933 4.21161 0.0058
C 14.71072 2.83253 -0.00865
C 15.97299 2.11865 0.00675
C 15.99565 0.65446 -0.00311
C 14.78871 34.05077 0.00742
C 17.20306 15.59546 -0.01594
C 18.41435 6.36144 0.0106
C 18.40059 5.00094 -0.01154
C 17.15155 4.29625 -0.01721
C 17.18135 2.87481 -0.02422
C 18.42345 2.12854 0.01277
C 18.44725 0.6497 0.00096
C 17.22155 0.00982 -0.01527
C 20.88957 31.98753 0.00199
C 8.59336 0.74904 -0.00481
C 8.6336 2.16067 0.00889
C 7.3757 2.86956 -0.02162
C 3.67932 10.61769 0.02841
C 3.6698 9.20306 -0.01111
C 2.45105 8.54331 -0.01275
C 2.49717 7.13004 0.00985
C 3.66657 6.40379 -0.02245
C 3.64199 4.9904 -0.00428
C 2.41472 4.27903 0.03101
C 2.44916 2.82468 -0.01536
C 3.62946 2.12828 -0.02689
C 3.70956 0.74874 -0.01046
C 2.53656 34.0621 -0.00891
C 4.90836 32.6568 0.02819
C 6.16422 31.8955 0.00165
C 6.10194 30.53439 -0.02971
C 4.95241 29.78272 0.02894
C 2.41129 11.33929 0.00943
C 4.92331 28.39512 -0.01789
C 2.49438 12.80376 0.00406
C 3.64589 14.96685 0.00572
C 3.72717 30.49558 0.00438
C 2.43022 29.83527 0.01291
C 2.45172 28.41259 0.00093
C 3.71094 27.7361 0.00057
C 3.71714 26.23497 -0.01634
C 2.46494 25.58247 -0.00334
C 2.43406 24.18165 0.02339
C 3.67031 23.44361 0.01641
C 3.71119 22.02845 -0.00719
C 2.44686 21.37441 0.01364
C 2.49255 19.87684 -0.01062
C 3.69543 19.20322 -0.00033
C 3.69594 17.76812 0.03589
C 2.46067 17.04852 -0.02759
C 2.4011 15.68783 0.0402
C 3.68946 13.53384 0.03592
C 4.89257 25.47915 0.00444
C 4.87655 24.18614 -0.00925
C 4.86921 21.33013 0.01877
C 7.42159 32.62175 0.01965
C 8.69792 17.71163 0.02058
C 7.34723 17.04149 -0.01957
C 7.45032 15.59983 -0.0108
C 8.62181 14.89994 -0.00368
C 8.55186 13.45703 -0.02696
C 7.35312 12.8564 -0.00114
C 7.37858 11.3853 0.00228
C 8.6328 10.63432 0.00798
C 8.5714 9.26105 0.00422
C 7.42587 8.49183 0.0351
C 7.35528 7.04673 -0.03113
C 8.65026 6.35789 0.02098
C 8.54176 4.91756 0.01848
C 7.36067 4.32707 -0.00619
C 4.89906 0.04755 -0.03682
C 6.12221 0.71427 0.00052
C 6.18405 2.15997 0.00374
C 4.90446 2.75364 -0.02813
C 4.9926 19.90494 0.01363
C 6.17385 19.18529 -0.02162
C 6.12577 17.79502 0.00415
C 4.90587 17.0426 -0.0014
C 4.88925 15.57489 0.02162
C 6.13654 14.87818 0.0076
C 6.17658 13.48935 0.01241
C 23.36315 2.1068 -0.00225
C 4.9204 12.79742 -0.01454
C 6.14528 10.73196 0.01416
C 6.11915 9.24452 0.03542
C 4.99155 8.50158 0.02299
C 4.98646 7.08962 0.00244
C 6.17063 6.4158 -0.01717
C 6.11468 4.86099 0.05265
C 4.88762 4.21785 -0.01952
C 4.86676 11.38677 0.01945
C 23.29521 0.67732 0.00071
C 22.12466 34.05492 -0.01107
C 24.58867 32.67895 -0.01586
C 33.19637 23.44353 0.01927
C 33.23986 21.9487 0.01574
C 31.97562 21.33391 -0.02383
C 31.96563 19.91133 -0.01429
C 33.23036 19.19492 -0.0136
C 33.18331 17.74648 0.00594
C 31.98833 17.04332 -0.02474
C 32.02943 15.63462 0.00369
C 33.20822 14.88823 0.00455
C 33.18883 13.51021 -0.00644
C 32.00505 12.76934 -0.01839
C 31.97511 11.38666 0.00137
C 33.18152 10.67295 0.00199
C 33.21894 9.27623 0.04381
C 31.94188 8.59235 0.02806
C 31.96156 24.17988 0.03794
C 31.97575 7.1347 0.01504
C 31.90511 25.55493 -0.01779
C 33.21769 27.73309 0.00026
C 30.75416 9.2388 -0.03735
C 29.52044 8.50716 -0.00971
C 29.49913 7.1351 0.01518
C 30.72327 6.44817 0.01908
C 30.75643 4.99122 0.07705
C 29.44431 4.25361 0.0103
C 29.47822 2.87535 0.02108
C 30.74118 2.09472 0.00716
C 30.76604 0.67962 0.00307
C 29.46797 0.02828 0.00346
C 31.93034 32.6713 0.01713
C 33.2449 31.99845 -0.01694
C 33.2252 30.4814 0.01428
C 31.97768 29.82471 -0.02142
C 31.94493 28.38924 0.0544
C 33.19804 26.27523 0.00682
C 33.17522 6.43269 -0.00069
C 33.12588 4.97232 0.04926
C 31.92796 4.27222 -0.03838
C 34.40407 15.55633 0.02114
C 1.2324 14.95496 -0.02957
C 1.18625 13.49738 0.00343
C 0.00937 12.79726 -0.02656
C 34.41478 11.33959 -0.02442
C 1.20519 10.66703 -0.00027
C 1.22202 9.25884 -0.00583
C 0.02693 8.52717 -0.02302
C 0.01318 7.14572 -0.02849
C 1.20403 6.36183 0.02931
C 1.205 4.95766 0.00628
C 34.40945 4.23873 -0.0345
C 34.38663 2.87471 -0.00931
C 1.28182 2.12973 -0.00939
C 1.26962 0.66706 -0.00468
C 0.04553 16.9895 0.00648
C 1.21769 17.76671 0.01223
C 1.23837 19.20799 -0.01678
C 0.01679 19.89081 0.01951
C 31.96052 2.84669 0.00349
C 33.18964 2.10932 -0.00323
C 33.18881 0.7208 -0.00841
C 32.0136 0.03626 0.0001
C 0.00755 32.59403 -0.02927
C 1.26587 31.92705 -0.01404
C 1.24012 30.54346 0.01027
C 30.74364 10.67571 -0.00944
C 0.00184 29.77127 0.01831
C 1.19128 27.68107 -0.00439
C 1.28071 26.22984 -0.00598
C 34.39266 25.54164 -0.05239
C 34.3917 24.17284 0.03076
C 1.19499 23.42999 0.00723
C 1.17494 22.05704 0.02712
C 34.41794 21.30345 -0.02213
C 0.01446 28.36067 -0.01037
C 3.73096 31.95166 -0.00191
C 29.52463 11.39259 -0.02155
C 30.80105 13.48383 -0.01303
C 24.60025 2.79076 -0.00938
C 25.83159 2.14374 -0.0264
C 25.87958 0.69858 -0.01154
C 24.55491 0.00034 0.00684
C 27.06194 32.61011 -0.01052
C 28.29434 31.95074 -0.01679
C 28.27151 30.54918 0.00367
C 27.08193 29.89989 0.04306
C 27.02088 28.39969 0.00996
C 28.32663 27.74378 0.00195
C 28.25026 26.30739 -0.00802
C 27.06434 25.56045 -0.00218
C 27.05245 24.17619 -0.01654
C 28.31789 23.45381 -0.00037
C 28.33062 22.01253 -0.0032
C 24.54739 4.23404 -0.00229
C 27.05457 21.32281 0.00622
C 25.82535 4.96805 -0.01199
C 24.63122 7.15187 -0.00285
C 25.77947 31.88333 -0.01971
C 25.77604 30.49226 -0.02118
C 24.52967 29.85253 0.00733
C 25.90102 27.65389 -0.00178
C 25.75175 19.13986 0.00768
C 25.7474 17.79338 -0.0276
C 24.58419 16.99305 0.03005
C 24.53778 15.61213 -0.04078
C 25.80441 14.87949 0.02117
C 25.83492 13.56069 0.02737
C 24.64087 12.8143 -0.00498
C 24.60859 11.4248 0.00135
C 25.81929 10.62363 0.03102
C 25.76222 9.18131 0.02555
C 24.53788 8.53409 0.01423
C 25.83784 6.40889 -0.009
C 27.07131 19.82685 -0.02815
C 28.2999 19.14819 -0.00942
C 28.23785 17.77299 0.00487
C 29.52176 29.83977 0.0014
C 29.51143 28.44338 0.00924
C 30.73546 27.6846 0.02326
C 30.69444 26.25707 0.00261
C 29.50218 25.57105 0.03265
C 29.53073 24.11059 -0.02049
C 30.76762 23.44074 -0.01854
C 30.73223 22.00528 -0.01415
C 29.52399 21.3 -0.03039
C 29.50376 19.88115 0.01836
C 30.72706 19.22483 0.03531
C 30.75195 17.68762 -0.00669
C 29.50043 17.00767 0.0101
C 29.46763 15.59956 0.01705
C 30.77287 14.93882 -0.0405
C 30.77835 30.52328 0.01324
C 30.69154 31.88641 0.04266
C 29.46991 32.65652 0.01177
C 27.07273 34.0651 -0.00416
C 27.03016 16.99544 0.00826
C 27.00993 15.64615 -0.00294
C 28.30698 14.86884 0.00152
C 28.29956 13.48508 0.01257
C 27.07839 12.779 0.02316
C 27.04007 11.33635 0.04185
C 28.31266 10.60245 0.00194
C 29.49976 12.77207 -0.01461
C 28.25862 9.22656 -0.00621
C 27.06909 7.09921 0.02198
C 28.34132 6.35962 0.01094
C 28.27225 5.00107 0.00235
C 26.9798 4.25114 0.01495
C 26.99845 2.82878 0.01259
C 28.2854 2.06979 0.01799
C 28.24593 0.71055 0.01699
C 27.09467 8.50846 0.02611
C 2.4965 32.6617 0.00373
