292
Graphene
C 34.37079 0.02839 0.01295
C 14.75828 29.76725 -0.0054
C 14.63485 28.50298 0.00667
C 15.2538 8.6784 0.00143
C 14.86986 7.26071 -0.017
C 15.97238 6.32537 0.00364
C 15.97545 4.93642 -0.00831
C 16.00066 30.50272 0.00755
C 14.76322 4.25096 -0.02957
C 16.01477 2.00072 0.00654
C 16.06165 0.64407 -0.00703
C 14.86826 34.03162 -0.04076
C 17.31888 32.59903 -0.00652
C 18.58287 31.86504 0.0058
C 18.54393 30.41703 -0.00865
C 14.73368 2.81482 -0.04422
C 17.42547 29.80764 0.00675
C 16.07919 31.89646 0.01739
C 12.24909 0.00234 -0.03557
C 9.78039 0.04626 0.03698
C 12.23989 32.67758 -0.00109
C 13.5048 31.96828 -0.00491
C 13.52881 30.50491 0.03338
C 12.24679 29.78713 -0.0258
C 12.22494 28.37468 -0.0331
C 14.79483 32.59946 0.03754
C 13.53684 27.60978 -0.00316
C 13.62753 6.51731 -0.01979
C 13.64408 5.08426 0.02691
C 12.3621 4.38516 -0.01581
C 12.33462 2.84861 0.01452
C 13.53503 2.15723 0.04892
C 13.58609 0.69411 -0.00111
C 12.36914 7.11371 0.02188
C 18.19855 9.24093 -0.00311
C 17.05839 8.61317 0.00742
C 17.20295 7.09007 -0.01594
C 20.87607 0.6538 -0.02845
C 19.68451 33.90141 -0.03213
C 22.15627 32.63086 0.02239
C 23.31724 31.94919 0.01153
C 23.1858 30.44477 0.02734
C 23.09205 13.14276 -0.0055
C 20.93722 2.0531 0.03374
C 22.37272 11.66308 0.01515
C 23.25565 9.27373 0.00071
C 22.02787 8.59132 -0.01107
C 22.04564 7.2153 -0.01586
C 23.29652 6.50821 -0.01971
C 23.30865 5.06985 -0.02118
C 22.09658 4.3151 0.00733
C 23.42088 10.69635 -0.00225
C 19.72837 2.74766 0.0296
C 19.64965 4.27672 0.03046
C 20.81607 5.05358 -0.00381
C 18.47206 6.4491 0.0106
C 18.51387 5.00239 -0.01154
C 17.27764 4.27584 -0.01721
C 17.33005 2.79548 -0.02422
C 18.55391 2.06908 0.01277
C 18.4946 0.59748 0.00096
C 17.2177 34.01433 -0.01527
C 19.75716 32.51446 0.01087
C 21.05118 31.72571 0.00199
C 21.2537 30.38943 0.01511
C 21.18236 11.09784 -0.00478
C 20.90075 9.48842 -0.01662
C 19.62172 8.76086 -0.01185
C 19.59819 7.28051 0.01126
C 20.84731 6.48228 0.01852
C 11.04369 0.70418 -0.02213
C 22.07082 2.89401 -0.00178
C 11.08515 2.15558 0.00028
C 9.76022 4.2438 -0.00066
C 3.63016 4.94843 -0.02971
C 2.40155 4.30221 0.02894
C 2.42839 2.88169 -0.01789
C 3.6416 2.18256 0.00444
C 3.62255 0.76129 -0.00925
C 2.37459 0.06111 0.01877
C 3.76066 6.27619 0.00165
C 4.883 32.67653 0.01363
C 6.10402 30.51245 0.00415
C 4.87222 29.79552 -0.0014
C 4.8883 28.37474 0.02162
C 6.08638 27.65943 0.0076
C 6.00666 26.25548 0.01241
C 4.86159 25.45701 -0.01454
C 6.11602 31.92712 -0.02162
C 5.03299 24.0427 0.01945
C 2.57093 7.10236 0.02819
C 2.29164 15.66483 -0.01046
C 3.62087 30.52408 0.0402
C 2.42869 29.81745 0.00572
C 2.40411 28.39139 0.03592
C 3.65178 27.71069 0.00406
C 3.65805 26.18229 0.00943
C 2.42194 25.48493 0.02841
C 2.29804 8.4426 -0.00891
C 2.46246 24.13619 -0.01111
C 3.54372 22.09837 0.00985
C 2.31117 21.32636 -0.02245
C 2.33538 19.913 -0.00428
C 3.60342 19.17133 0.03101
C 3.65456 17.88896 -0.01536
C 2.50251 17.05918 -0.02689
C 3.75746 23.46824 -0.01275
C 6.26043 23.22291 0.01416
C 6.08643 21.80959 0.03542
C 4.698 21.37416 0.02299
C 7.36277 3.03863 -0.03113
C 8.59327 2.20648 0.02098
C 8.49827 0.7502 0.01848
C 7.26588 0.02554 -0.00619
C 9.75057 32.72757 -0.02162
C 11.05991 31.95871 0.00889
C 7.38371 4.48873 0.0351
C 11.08647 30.55621 -0.00481
C 9.67296 28.39241 0.01443
C 10.9272 27.71397 0.03505
C 11.01422 26.28645 -0.02815
C 9.77835 25.72329 -0.04147
C 11.16454 6.4253 -0.05302
C 11.04861 4.97365 0.00213
C 9.82017 29.83018 0.00979
C 8.68257 5.02109 0.00422
C 7.40277 24.13239 0.00798
C 7.3001 25.49587 0.00228
C 4.86039 19.93229 0.00244
C 6.20623 19.72082 -0.01717
C 6.01156 5.08358 0.05265
C 4.90962 4.34167 -0.01952
C 4.96576 2.8902 -0.02813
C 6.17913 2.20889 0.00374
C 6.15251 0.8277 0.00052
C 4.8968 0.0821 -0.03682
C 7.3302 32.64642 0.01965
C 8.53496 31.9501 0.02058
C 8.57342 30.44466 -0.01957
C 7.30672 29.83001 -0.0108
C 7.26195 28.43521 -0.00368
C 8.47506 27.70062 -0.02696
C 8.53605 26.22821 -0.00114
C 9.85887 2.81514 -0.00289
C 23.30572 2.102 0.00768
C 23.36115 0.60966 -0.0276
C 22.15065 34.07527 0.03005
C 31.91405 19.90739 -0.01429
C 33.14678 19.21937 -0.0136
C 33.245 17.81342 0.00594
C 32.01221 17.09799 -0.02474
C 31.9913 15.68593 0.00369
C 33.19875 14.95963 0.00455
C 31.89538 21.3444 -0.02383
C 33.13629 13.57755 -0.00644
C 31.93506 11.40737 0.00137
C 33.15322 10.65779 0.00199
C 33.23283 9.26351 0.04381
C 31.94993 8.61487 0.02806
C 31.92922 7.16404 0.01504
C 33.17965 6.47551 -0.00069
C 31.97172 12.86135 -0.01839
C 33.206 5.04303 0.04926
C 33.09617 22.06226 0.01574
C 31.93716 24.14829 0.03794
C 30.61141 5.03379 0.07705
C 29.4417 4.29413 0.0103
C 29.4404 2.85201 0.02108
C 30.68809 2.17147 0.00716
C 30.66582 0.73557 0.00307
C 29.47546 0.04386 0.00346
C 33.11793 23.48924 0.01927
C 31.97819 32.73292 0.01713
C 33.03734 30.60506 0.01428
C 31.88673 29.82002 -0.02142
C 31.84982 28.45039 0.0544
C 33.12433 27.74487 0.00026
C 33.16794 26.34797 0.00682
C 31.88469 25.60219 -0.01779
C 33.12509 32.03259 -0.01694
C 31.8964 4.35305 -0.03838
C 31.88999 2.90114 0.00349
C 33.16519 2.22385 -0.00323
C 1.21972 14.83904 -0.02957
C 1.217 13.39284 0.00343
C 34.39742 12.86518 -0.02656
C 34.33542 11.40388 -0.02442
C 1.17404 10.80754 -0.00027
C 1.204 9.3319 -0.00583
C 34.39624 15.58237 0.02114
C 34.37169 8.52586 -0.02302
C 1.27062 6.4172 0.02931
C 1.23179 5.00399 0.00628
C 0.00797 4.32864 -0.0345
C 34.43276 2.90467 -0.00931
C 1.19445 2.14996 -0.00939
C 1.15488 0.75039 -0.00468
C 0.05499 7.14572 -0.02849
C 34.40728 17.01366 0.00648
C 1.19702 17.69578 0.01223
C 1.0972 19.1351 -0.01678
C 33.12303 0.77501 -0.00841
C 31.8986 34.07187 0.0001
C 34.37306 32.6971 -0.02927
C 1.18028 31.98309 -0.01404
C 1.13684 30.5407 0.01027
C 34.32287 29.86022 0.01831
C 34.35712 28.38862 -0.01037
C 1.17055 27.6915 -0.00439
C 1.19493 26.26441 -0.00598
C 0.00896 25.58785 -0.05239
C 34.39648 24.16085 0.03076
C 1.17623 23.4024 0.00723
C 1.13874 22.01544 0.02712
C 34.36286 21.38136 -0.02213
C 34.36536 19.8873 0.01951
C 30.65739 6.42322 0.01908
C 29.42185 7.15707 0.01518
C 29.46409 8.56444 -0.00971
C 30.71475 9.20713 -0.03735
C 24.59293 34.02455 0.04306
C 27.05797 32.70009 0.00996
C 28.2228 31.99858 0.00195
C 28.2663 30.58449 -0.00802
C 27.03333 29.81882 -0.00218
C 26.80568 28.47152 -0.01654
C 25.81616 0.72746 0.00367
C 28.03402 27.62524 -0.00037
C 28.346 23.43301 0.00622
C 28.26415 22.03512 -0.02815
C 28.32426 19.09074 -0.00942
C 28.15516 17.75081 0.00487
C 26.95597 16.9811 0.00826
C 27.04769 15.62847 -0.00294
C 28.15107 26.24978 -0.0032
C 25.826 2.17638 -0.01679
C 24.53567 2.83215 -0.01052
C 24.53487 4.26296 0.00684
C 24.62311 32.65338 -0.04078
C 25.88206 31.909 0.02117
C 25.78271 30.54563 0.02737
C 24.39847 29.86613 -0.00498
C 24.67581 15.55499 0.00135
C 25.76722 14.87467 0.03102
C 25.79123 13.49259 0.02555
C 24.48745 12.73782 0.01423
C 24.67353 11.32225 -0.00285
C 25.83147 10.61505 -0.009
C 25.75196 9.22905 -0.01199
C 24.49747 8.56848 -0.00229
C 24.51855 7.09499 -0.00938
C 25.7654 6.40021 -0.0264
C 25.73259 5.02719 -0.01154
C 28.27904 14.88522 0.00152
C 3.59969 31.99181 -0.02759
C 28.28047 13.37597 0.01257
C 27.01494 11.4392 0.04185
C 29.41712 24.24787 -0.02049
C 30.6947 23.45285 -0.01854
C 30.70288 22.03701 -0.01415
C 29.45382 21.30455 -0.03039
C 29.5387 19.81749 0.01836
C 30.80633 19.07948 0.03531
C 29.39984 25.68611 0.03265
C 30.7023 17.7333 -0.00669
C 29.45533 15.70023 0.01705
C 30.675 14.95535 -0.0405
C 30.72228 13.53876 -0.01303
C 29.51902 12.70805 -0.01461
C 29.48781 11.31714 -0.02155
C 30.72131 10.6538 -0.00944
C 29.43599 17.05965 0.0101
C 30.68564 26.36843 0.00261
C 30.62735 27.78553 0.02326
C 29.35928 28.32505 0.00924
C 28.22434 10.67305 0.00194
C 28.20137 9.25329 -0.00621
C 26.99002 8.4807 0.02611
C 26.9809 7.1496 0.02198
C 28.18706 6.45588 0.01094
C 28.18461 4.94527 0.00235
C 26.99334 4.31668 0.01495
C 27.01774 2.92303 0.01259
C 28.22202 2.19374 0.01799
C 28.29096 0.79169 0.01699
C 27.02329 0.03455 -0.00416
C 29.45893 32.70644 0.01177
C 30.65162 32.03922 0.04266
C 30.686 30.48934 0.01324
C 29.40041 29.80055 0.0014
C 27.03636 12.83719 0.02316
C 2.41083 32.76864 0.03589
