388
Graphene
C 34.36273 0.00329 0.01295
C 9.82526 4.32636 -0.02162
C 9.87227 2.91219 0.00415
C 11.18016 2.15256 -0.0014
C 11.11778 0.74369 0.02162
C 9.84341 0.03741 0.0076
C 12.31869 32.63489 0.01241
C 13.4935 31.82466 -0.01454
C 12.32409 29.73461 0.01945
C 12.05271 21.12838 0.01416
C 11.03663 5.11378 0.01363
C 12.40099 19.87468 0.03542
C 13.52646 17.66923 0.00244
C 12.32525 17.04796 -0.01717
C 12.3126 15.57941 0.05265
C 13.4976 14.86124 -0.01952
C 13.47427 13.45998 -0.02813
C 12.29205 12.72116 0.00374
C 12.26989 11.31386 0.00052
C 13.55703 10.56862 -0.03682
C 13.55667 9.16194 0.01965
C 13.67477 19.123 0.02299
C 12.26523 8.50394 0.02058
C 10.99396 6.4986 0.01877
C 9.74757 8.56098 0.00444
C 9.84897 29.84142 0.00572
C 9.85166 28.48868 0.03592
C 11.06774 27.78594 0.00406
C 10.91664 26.42006 0.00943
C 9.81069 25.67675 0.02841
C 9.83561 24.23496 -0.01111
C 11.09016 23.63135 -0.01275
C 11.16738 22.20218 0.00985
C 9.90601 21.2849 -0.02245
C 9.78389 7.16192 -0.00925
C 9.89736 19.86088 -0.00428
C 11.13274 17.70744 -0.01536
C 9.89136 16.98063 -0.02689
C 9.86582 15.61331 -0.01046
C 11.07449 14.85136 -0.00891
C 11.05493 13.4093 0.02819
C 9.80677 12.73883 0.00165
C 9.82227 11.36987 -0.02971
C 11.06317 10.65117 0.02894
C 11.00915 9.28761 -0.01789
C 11.18702 19.15118 0.03101
C 12.24507 7.12791 -0.01957
C 13.51203 6.40645 -0.0108
C 13.54835 4.94755 -0.00368
C 18.39067 17.54426 -0.00109
C 17.1036 17.09605 -0.00491
C 17.08568 15.60119 0.03338
C 18.38074 14.91989 -0.0258
C 18.42931 13.4368 -0.0331
C 17.17123 12.78979 -0.00316
C 17.23642 11.33888 0.02188
C 18.47148 10.61818 -0.01979
C 18.41966 9.22444 0.02691
C 17.38386 32.61327 0.03698
C 17.17088 8.49032 -0.01581
C 18.39907 6.2979 0.04892
C 18.46358 4.93064 -0.00111
C 17.18213 4.17391 -0.03557
C 17.23705 2.77993 0.03754
C 18.49935 2.08719 0.01739
C 18.47917 0.69225 0.00755
C 17.26946 34.01628 -0.0054
C 19.58711 32.71251 0.00667
C 20.88671 17.9174 0.00143
C 17.17288 7.04038 0.01452
C 14.73933 33.96348 -0.02213
C 15.96902 0.59271 0.00028
C 15.93979 2.05147 -0.00289
C 12.26038 4.32186 -0.02696
C 12.3327 2.89999 -0.00114
C 13.54507 2.15174 0.00228
C 13.56437 0.66536 0.00798
C 12.30497 0.02223 0.00422
C 14.54782 32.65262 0.0351
C 15.85278 17.84878 -0.03113
C 14.72873 17.05078 0.02098
C 14.75508 15.60152 0.01848
C 15.94805 14.86726 -0.00619
C 15.91915 13.44047 -0.02162
C 14.71176 12.6983 0.00889
C 14.74806 11.26551 -0.00481
C 16.02133 10.60604 0.00979
C 16.02243 9.23055 0.01443
C 14.79578 8.48363 0.03505
C 14.78527 7.06251 -0.02815
C 15.99339 6.33963 -0.04147
C 15.97008 4.93808 -0.05302
C 14.73051 4.23346 0.00213
C 14.74768 2.82656 -0.00066
C 11.11346 30.55112 0.0402
C 19.68572 17.16877 -0.017
C 11.09032 31.9753 -0.02759
C 7.38895 0.05497 -0.00033
C 3.63884 5.01961 0.0086
C 2.39122 4.29017 -0.00643
C 2.38756 2.86491 0.017
C 3.65237 2.1635 -0.03113
C 3.63491 0.74789 -0.02566
C 2.34191 0.03277 -0.00094
C 4.85758 32.74953 0.02322
C 6.16975 32.01606 -0.00725
C 6.16472 30.65159 -0.05697
C 3.62457 6.48294 -0.00518
C 4.92396 29.92718 0.01087
C 6.10413 27.74631 0.00988
C 6.09548 26.31942 0.0276
C 4.8722 25.60304 0.01305
C 4.82589 24.17284 -0.00077
C 6.13602 23.50922 0.03368
C 6.19201 22.02293 -0.02929
C 4.91347 21.37399 -0.00966
C 4.96566 19.97696 -0.03337
C 6.19734 19.16446 0.01227
C 4.89783 28.44019 -0.01343
C 6.15626 17.75401 0.00873
C 2.38874 7.17097 -0.00074
C 3.57382 9.23095 -0.03996
C 3.71338 30.5885 0.04505
C 2.48618 29.83913 0.03284
C 2.49707 28.42215 -0.04307
C 3.66286 27.70231 0.03189
C 3.64199 26.30289 0.00031
C 2.43753 25.60365 -0.003
C 2.41908 24.12628 0.01402
C 3.66607 23.41896 0.02379
C 3.67754 22.02211 0.00907
C 2.35343 8.52956 0.01465
C 2.4796 21.28739 0.00643
C 3.75816 19.21551 0.03267
C 3.66986 17.8123 0.02374
C 2.492 17.04276 0.00402
C 2.42997 15.59026 0.0073
C 3.65859 14.96016 0.0174
C 3.59041 13.504 0.03828
C 2.38707 12.75152 0.01226
C 2.37005 11.35228 -0.00279
C 3.66065 10.614 0.01996
C 2.49286 19.95918 -0.01509
C 4.85802 17.02494 -0.00049
C 4.88631 15.59339 0.00848
C 6.13309 14.90347 -0.01303
C 7.40472 21.3305 0.00488
C 7.45527 19.83978 -0.01004
C 8.69353 19.10986 -0.02896
C 8.68615 17.68155 -0.00131
C 7.39375 16.98723 -0.01118
C 7.36282 15.5554 -0.014
C 8.61285 14.89552 0.02147
C 8.59127 13.50053 0.00373
C 7.33411 12.86394 -0.00191
C 8.64085 22.11026 0.01745
C 7.33686 11.43671 0.00438
C 8.55331 9.28548 0.00093
C 7.30217 8.55051 0.00057
C 7.32296 7.16582 -0.01634
C 8.60093 6.45904 -0.00334
C 8.52744 5.04499 0.02339
C 7.335 4.35925 0.01641
C 7.37801 2.93165 -0.00719
C 8.62247 2.21448 0.01364
C 8.60384 0.82707 -0.01062
C 8.53417 10.73057 0.01291
C 8.59169 23.5459 0.03693
C 7.32287 24.16146 -0.01384
C 7.41498 25.62356 -0.00482
C 6.05633 13.5296 -0.01378
C 4.85281 12.76193 0.02635
C 4.88324 11.39419 0.0127
C 6.09572 10.69072 0.01396
C 6.06819 9.33754 0.01849
C 4.86745 8.58712 -0.01142
C 4.81301 7.16658 -0.00562
C 6.06729 6.47725 -0.00494
C 6.12219 5.09431 0.00054
C 4.87103 4.36681 0.03007
C 4.86088 2.91455 -0.00095
C 6.07996 2.22682 0.01572
C 6.13789 0.79627 -0.04848
C 4.94446 0.06787 -0.00892
C 7.39144 32.73418 -0.01362
C 8.6473 32.05614 -0.0008
C 8.65956 30.57136 0.0288
C 7.38938 29.91471 0.00393
C 7.43295 28.44084 0.00895
C 8.68828 27.79199 0.00685
C 8.64441 26.35024 0.02888
C 9.86482 32.76148 0.03589
C 19.60125 15.70497 0.00364
C 20.86192 14.90538 -0.00831
C 20.85569 13.47739 -0.02957
C 30.70144 5.01119 0.07705
C 29.44943 4.25009 0.0103
C 29.50222 2.87371 0.02108
C 30.70012 2.12877 0.00716
C 30.72996 0.69387 0.00307
C 29.50779 34.02236 0.00346
C 31.90781 32.62554 0.01713
C 33.19462 31.89126 -0.01694
C 33.19356 30.42423 0.01428
C 30.6697 6.42399 0.01908
C 31.94742 29.70911 -0.02142
C 33.19748 27.6305 0.00026
C 33.17805 26.17971 0.00682
C 31.96995 25.44668 -0.01779
C 31.89313 24.12386 0.03794
C 33.10516 23.42899 0.01927
C 33.19025 22.0343 0.01574
C 32.01431 21.28633 -0.02383
C 32.01875 19.85781 -0.01429
C 33.27412 19.18656 -0.0136
C 31.94291 28.3054 0.0544
C 33.23896 17.76671 0.00594
C 29.44317 7.14733 0.01518
C 30.63543 9.3671 -0.03735
C 30.72974 30.44849 0.01324
C 29.49829 29.72649 0.0014
C 29.36465 28.28121 0.00924
C 30.65684 27.62941 0.02326
C 30.74869 26.24493 0.00261
C 29.46144 25.55827 0.03265
C 29.52618 24.09878 -0.02049
C 30.71873 23.40851 -0.01854
C 30.68033 22.00091 -0.01415
C 29.374 8.58389 -0.00971
C 29.53563 21.26958 -0.03039
C 30.77216 19.19272 0.03531
C 30.79776 17.77962 -0.00669
C 29.55379 17.06399 0.0101
C 29.55082 15.61891 0.01705
C 30.78063 14.95786 -0.0405
C 30.67612 13.52501 -0.01303
C 29.41013 12.81778 -0.01461
C 29.42995 11.3967 -0.02155
C 30.67698 10.7128 -0.00944
C 29.5838 19.84566 0.01836
C 32.02161 17.09542 -0.02474
C 32.00139 15.60636 0.00369
C 33.22358 14.98713 0.00455
C 34.42944 21.31753 -0.02213
C 0.04544 19.92126 0.01951
C 1.33279 19.26505 -0.01678
C 1.2943 17.82325 0.01223
C 0.1041 17.09584 0.00648
C 34.42984 15.65401 0.02114
C 1.20723 14.90258 -0.02957
C 1.19112 13.54993 0.00343
C 34.37659 12.81607 -0.02656
C 1.24428 21.9966 0.02712
C 34.42424 11.39143 -0.02442
C 1.12949 9.16871 -0.00583
C 34.31329 8.52134 -0.02302
C 34.31896 7.09857 -0.02849
C 1.18325 6.46852 0.02931
C 1.18327 5.01422 0.00628
C 34.39716 4.29697 -0.0345
C 34.38981 2.88836 -0.00931
C 1.1725 2.19959 -0.00939
C 1.15814 0.76007 -0.00468
C 1.1869 10.60974 -0.00027
C 1.22711 23.4248 0.00723
C 34.37479 24.07803 0.03076
C 34.41923 25.51649 -0.05239
C 33.20877 13.59212 -0.00644
C 31.90976 12.89076 -0.01839
C 31.93483 11.39502 0.00137
C 33.14401 10.68603 0.00199
C 33.11988 9.28014 0.04381
C 31.90828 8.60235 0.02806
C 31.8637 7.1829 0.01504
C 33.08333 6.42361 -0.00069
C 33.12463 4.99688 0.04926
C 31.89668 4.31381 -0.03838
C 31.94803 2.94023 0.00349
C 33.15182 2.17134 -0.00323
C 33.16174 0.7231 -0.00841
C 31.97171 0.02813 0.0001
C 34.37297 32.67883 -0.02927
C 1.1789 31.96454 -0.01404
C 1.22562 30.50499 0.01027
C 34.42252 29.75956 0.01831
C 0.01887 28.37395 -0.01037
C 1.3194 27.66878 -0.00439
C 1.20248 26.28513 -0.00598
C 30.73746 31.87444 0.04266
C 29.46011 32.61565 0.01177
C 27.0094 0.03817 -0.00416
C 28.26648 0.69652 0.01699
C 23.32558 9.21042 0.01852
C 22.14312 8.48926 -0.00381
C 22.13185 7.06807 0.03046
C 23.34495 6.3543 0.0296
C 23.3793 4.92359 0.03374
C 22.15909 4.28747 -0.02845
C 22.18063 2.85044 -0.03213
C 23.37248 2.14512 0.02239
C 23.44527 0.67364 0.01153
C 23.39213 10.59167 0.01126
C 22.12559 34.07097 0.02734
C 25.77531 31.91591 0.01515
C 25.8887 30.48402 -0.00225
C 24.62551 29.82896 0.00071
C 25.72302 27.63623 -0.01107
C 25.77903 26.24863 -0.01586
C 25.85683 23.39782 -0.01971
C 25.85773 22.04919 -0.02118
C 24.88277 21.17991 0.00733
C 24.53746 19.87056 -0.00178
C 24.46259 32.55831 -0.0055
C 22.15203 11.34877 -0.01185
C 22.05381 12.789 -0.01662
C 23.2892 13.52921 -0.00478
C 19.66881 12.74176 -0.04422
C 19.65593 11.34548 0.00654
C 20.91096 10.5753 -0.00703
C 20.90804 9.13939 -0.04076
C 19.71233 8.45107 -0.00652
C 19.64162 6.99969 0.0058
C 20.87721 6.31655 -0.00865
C 20.89672 4.92788 0.00675
C 19.64844 4.20627 -0.00311
C 19.71052 2.82133 0.00742
C 20.96326 2.14642 -0.01594
C 20.96384 0.75072 0.0106
C 19.73932 0.03529 -0.01154
C 21.998 32.61722 -0.01721
C 23.19805 31.82066 -0.02422
C 23.50174 30.44241 0.01277
C 23.33584 19.08816 0.00096
C 23.34919 17.75387 -0.01527
C 22.07954 17.13956 0.01087
C 22.07074 15.66655 0.00199
C 23.35668 14.96096 0.01511
C 25.825 19.11337 0.00768
C 3.66855 32.00684 -0.04999
C 25.84637 17.73417 -0.0276
C 24.60468 15.64591 -0.04078
C 28.3013 22.00735 -0.0032
C 27.02566 21.32069 0.00622
C 27.10399 19.88513 -0.02815
C 28.35922 19.19591 -0.00942
C 28.37087 17.77506 0.00487
C 27.08054 17.0136 0.00826
C 27.07406 15.62838 -0.00294
C 28.25802 14.90472 0.00152
C 28.27964 13.52535 0.01257
C 28.29739 23.41395 -0.00037
C 26.98179 12.81695 0.02316
C 28.20957 10.66359 0.00194
C 28.18568 9.26406 -0.00621
C 27.00924 8.52752 0.02611
C 26.98606 7.10986 0.02198
C 28.23497 6.39691 0.01094
C 28.28478 4.96765 0.00235
C 26.99605 4.25303 0.01495
C 27.01674 2.82173 0.01259
C 28.26967 2.13664 0.01799
C 27.01939 11.37085 0.04185
C 26.99973 24.08868 -0.01654
C 26.8519 25.50665 -0.00218
C 28.10447 26.22035 -0.00802
C 25.81448 14.97118 0.02117
C 25.79172 13.51956 0.02737
C 24.53463 12.79303 -0.00498
C 24.55776 11.35063 0.00135
C 25.77027 10.65186 0.03102
C 25.78457 9.22741 0.02555
C 24.54014 8.54251 0.01423
C 24.54147 7.0759 -0.00285
C 25.73613 6.40319 -0.009
C 25.82052 4.94256 -0.01199
C 24.59478 4.21828 -0.00229
C 24.60995 2.74518 -0.00938
C 25.79033 2.08284 -0.0264
C 25.80693 0.67847 -0.01154
C 24.57024 33.96251 0.00684
C 26.99604 32.63451 -0.01052
C 28.28878 31.88442 -0.01679
C 28.24245 30.44265 0.00367
C 27.03255 29.69539 0.04306
C 26.8936 28.25707 0.00996
C 28.08557 27.6086 0.00195
C 24.55182 17.02443 0.03005
C 2.42689 32.6466 -0.03291
