420
Graphene
C 34.38488 33.95676 0.01295
C 12.21567 0.11372 0.00406
C 14.7824 32.68357 0.00943
C 15.95584 31.98909 0.02841
C 15.94127 30.55719 -0.01111
C 14.73895 29.90606 -0.01275
C 14.75758 28.36774 0.00985
C 15.95542 27.61731 -0.02245
C 15.96394 26.26254 -0.00428
C 14.72043 25.56486 0.03101
C 14.72102 24.16388 -0.01536
C 13.45714 0.8266 0.03592
C 15.97977 23.36173 -0.02689
C 14.75694 21.30774 -0.00891
C 14.75153 19.88287 0.02819
C 15.9617 19.12038 0.00165
C 16.04553 17.65173 -0.02971
C 14.77292 16.96351 0.02894
C 14.71846 15.56977 -0.01789
C 15.97692 14.80952 0.00444
C 15.98881 13.44905 -0.00925
C 14.77295 12.7432 0.01877
C 14.71229 11.29326 0.01363
C 15.99115 21.99581 -0.01046
C 15.96856 10.67638 -0.02162
C 13.46872 2.25311 0.00572
C 12.29439 4.39024 -0.02759
C 13.46435 27.71385 0.00488
C 13.47918 26.31991 -0.01004
C 12.31529 25.61019 -0.02896
C 12.24829 24.20488 -0.00131
C 13.52086 23.45096 -0.01118
C 13.4769 22.07928 -0.014
C 12.30238 21.31077 0.02147
C 12.32707 19.92147 0.00373
C 13.53031 19.1678 -0.00191
C 13.56461 17.67432 0.00438
C 12.24911 2.96834 0.0402
C 12.25065 17.01447 0.01291
C 13.48248 14.82474 0.00057
C 13.48712 13.44631 -0.01634
C 12.27863 12.70316 -0.00334
C 12.2264 11.33245 0.02339
C 13.45359 10.64195 0.01641
C 13.51635 9.20908 -0.00719
C 12.17446 8.60709 0.01364
C 12.26082 7.19693 -0.01062
C 13.48886 6.51934 -0.00033
C 13.5475 5.06528 0.03589
C 12.23933 15.58845 0.00093
C 15.98719 9.22836 0.00415
C 14.78106 8.59319 -0.0014
C 14.81598 7.13725 0.02162
C 17.20565 11.39866 0.02098
C 18.45332 10.69251 0.01848
C 18.45112 9.2595 -0.00619
C 17.22591 8.5582 -0.02162
C 17.21676 7.07712 0.00889
C 18.41593 6.36408 -0.00481
C 18.34197 4.90798 0.00979
C 17.15767 4.25659 0.01443
C 17.15057 2.82267 0.03505
C 18.38269 2.08941 -0.02815
C 17.23846 12.7479 -0.03113
C 18.37088 0.69008 -0.04147
C 19.60936 32.6225 0.00213
C 20.89062 31.92621 -0.00066
C 20.86246 30.51447 -0.00289
C 19.65259 29.80318 0.00028
C 19.61572 28.35859 -0.02213
C 20.85097 27.78708 0.03698
C 20.9188 26.2866 -0.00109
C 19.67914 25.56975 -0.00491
C 19.71925 24.14733 0.03338
C 20.94373 23.4488 -0.0258
C 17.14054 0.00445 -0.05302
C 18.44551 13.43788 0.0351
C 18.47457 14.88182 0.00422
C 17.22748 15.51546 0.00798
C 16.00201 6.41221 0.0076
C 15.99224 5.05148 0.01241
C 14.78165 4.3437 -0.01454
C 14.73858 2.957 0.01945
C 15.94275 2.20122 0.01416
C 15.96542 0.73492 0.03542
C 14.77845 0.02267 0.02299
C 17.12611 32.68848 0.00244
C 18.35706 31.96259 -0.01717
C 18.39967 30.53143 0.05265
C 17.1419 29.80153 -0.01952
C 17.12838 28.36084 -0.02813
C 18.38808 27.64618 0.00374
C 18.3831 26.2612 0.00052
C 17.23181 25.54763 -0.03682
C 17.2449 24.13224 0.01965
C 18.48716 23.45272 0.02058
C 18.50948 22.04221 -0.01957
C 17.24849 21.30247 -0.0108
C 17.22933 19.83381 -0.00368
C 18.44181 19.14021 -0.02696
C 18.42355 17.74622 -0.00114
C 17.27664 16.98287 0.00228
C 12.3105 28.48568 0.01745
C 20.9579 21.99945 -0.0331
C 12.32438 29.9506 0.03693
C 13.52514 32.04552 -0.00482
C 4.97105 29.83916 -0.00561
C 5.00912 28.44861 0.00208
C 6.21479 27.68829 0.01707
C 6.13127 26.29684 0.02769
C 4.88749 25.5692 -0.03291
C 4.84054 24.22129 -0.04999
C 6.08279 23.52875 0.04505
C 6.13937 22.05609 0.03284
C 4.93602 21.33024 -0.04307
C 4.90996 19.87451 0.03189
C 6.18278 30.61525 -0.01977
C 6.02699 19.07074 0.00031
C 4.81715 6.92758 0.01402
C 6.10035 6.50146 0.02379
C 6.10659 5.02257 0.00907
C 4.83649 4.23694 0.00643
C 4.87421 2.80072 -0.01509
C 6.15098 2.11041 0.03267
C 6.1194 0.77278 0.02374
C 4.91735 0.01834 0.00402
C 7.38472 32.72188 0.0073
C 8.58317 32.00447 0.0174
C 5.92409 17.64536 -0.003
C 8.59788 30.6234 0.03828
C 6.16529 32.00064 0.02784
C 2.41795 34.06978 -0.00449
C 3.77551 30.55581 0.00748
C 2.54495 29.77798 0.00662
C 2.49498 28.42054 -0.0154
C 3.71948 27.67151 -0.01299
C 3.68475 26.24908 -0.00407
C 2.44765 25.56353 0.01138
C 2.46822 24.18219 0.03278
C 3.61404 23.48934 -0.00177
C 3.72256 22.07821 0.04421
C 2.43912 21.30486 0.00088
C 4.95169 32.65245 -0.01979
C 2.45382 19.91242 0.00828
C 3.48569 17.79955 0.00558
C 2.49229 17.13142 -0.0059
C 2.54984 8.4446 -0.01386
C 2.37638 7.10468 -0.02805
C 3.55861 6.34216 0.00081
C 3.59984 4.87454 0.00245
C 2.33575 4.2471 0.02728
C 2.37895 2.75917 -0.00039
C 3.65943 2.14101 0.0064
C 3.63128 0.75082 0.00211
C 3.66877 19.28168 -0.02375
C 7.44318 29.82894 0.01226
C 7.39544 28.48547 -0.00279
C 8.65512 27.73493 0.01996
C 11.04957 23.48294 -0.01303
C 11.05676 22.07844 -0.01378
C 9.74494 21.32267 0.02635
C 9.75301 19.90014 0.0127
C 11.0816 19.18142 0.01396
C 11.08821 17.82436 0.01849
C 9.83956 17.12112 -0.01142
C 9.81523 15.74661 -0.00562
C 10.93903 14.81886 -0.00494
C 11.16488 13.53219 0.00054
C 9.77825 24.20123 0.00848
C 10.96672 10.7781 0.03007
C 9.87346 8.50245 0.01572
C 9.7902 7.0885 -0.04848
C 11.06679 6.46866 -0.00892
C 11.04034 5.10096 -0.01362
C 9.83433 4.38053 -0.0008
C 9.86548 2.89861 0.0288
C 11.07312 2.19383 0.00393
C 11.06536 0.80435 0.00895
C 9.86813 0.08871 0.00685
C 12.28323 32.764 0.02888
C 10.89945 9.39418 -0.00095
C 9.79456 25.57982 -0.00049
C 11.105 26.35478 0.00873
C 11.10383 27.77855 0.01227
C 8.52848 26.31137 -0.03996
C 7.30878 25.57121 0.01465
C 7.34763 24.20563 -0.00074
C 8.59088 23.45578 -0.00518
C 8.53526 22.02983 0.0086
C 7.28558 21.23205 -0.00643
C 7.27973 19.80033 0.017
C 8.56487 19.16439 -0.03113
C 8.57517 17.82863 -0.02566
C 7.26423 17.33774 -0.00094
C 7.34512 7.17193 0.02322
C 8.64058 6.37902 -0.00725
C 8.55981 5.02901 -0.05697
C 7.35496 4.32544 0.01087
C 7.323 2.8736 -0.01343
C 8.57239 2.14433 0.00988
C 8.61019 0.76142 0.0276
C 7.38854 0.06381 0.01305
C 9.78166 32.77835 -0.00077
C 11.06231 32.04647 0.03368
C 11.09729 30.60247 -0.02929
C 9.88168 29.91418 -0.00966
C 9.83732 28.47401 -0.03337
C 13.50312 30.60633 -0.01384
C 19.71244 21.35213 -0.00316
C 19.66772 19.8618 0.02188
C 20.91242 19.0871 -0.01979
C 30.72952 13.44866 -0.02155
C 29.4854 12.71196 -0.00944
C 29.47043 11.36615 -0.03735
C 30.69823 10.63319 -0.00971
C 30.75318 9.19986 0.01518
C 29.5319 8.51864 0.01908
C 29.53132 7.05634 0.07705
C 30.69833 6.32041 0.0103
C 30.68402 4.93576 0.02108
C 29.47354 4.28044 0.00716
C 30.74907 14.89449 -0.01461
C 29.4287 2.87302 0.00307
C 30.70776 0.70557 0.01713
C 29.50036 0.00468 -0.01694
C 32.00511 32.61156 0.01428
C 33.24562 31.90273 -0.02142
C 33.20062 30.51906 0.0544
C 31.99096 29.76514 0.00026
C 32.00281 28.36583 0.00682
C 33.20159 27.58078 -0.01779
C 33.14474 26.20677 0.03794
C 31.86603 25.54157 0.01927
C 30.62136 2.12271 0.00346
C 31.86899 24.08763 0.01574
C 29.51737 15.57731 -0.01303
C 30.70485 17.73151 0.01705
C 27.0421 7.13463 0.00235
C 28.2516 6.38914 0.01495
C 28.26244 4.96116 0.01259
C 27.03741 4.30568 0.01799
C 27.02251 2.85856 0.01699
C 28.26345 2.15781 -0.00416
C 28.2004 0.73783 0.01177
C 27.01681 0.09698 0.04266
C 29.4821 32.69046 0.01324
C 30.72392 31.93885 0.0014
C 29.5647 16.99961 -0.0405
C 30.78188 30.51263 0.00924
C 29.50203 28.43881 0.00261
C 30.7558 27.75118 0.03265
C 30.66845 26.2979 -0.02049
C 29.46904 25.53074 -0.01854
C 29.39896 24.08183 -0.01415
C 30.6609 23.37918 -0.03039
C 30.70279 21.91767 0.01836
C 29.4508 21.24282 0.03531
C 29.48465 19.85492 -0.00669
C 30.71854 19.16102 0.0101
C 29.59093 29.79761 0.02326
C 33.15285 23.40303 -0.02383
C 33.09665 21.99232 -0.01429
C 31.91811 21.23926 -0.0136
C 34.39455 25.50805 0.00723
C 34.36019 24.06625 0.02712
C 1.21759 23.43115 -0.02213
C 1.16766 22.00452 0.01951
C 34.38178 21.32462 -0.01678
C 34.40578 19.90073 0.01223
C 1.23511 19.11901 0.00648
C 1.23345 17.7102 0.02114
C 0.03946 17.00229 -0.02957
C 34.40747 15.61928 0.00343
C 1.19421 26.21862 0.03076
C 34.36441 12.722 -0.02656
C 1.10257 10.51281 -0.00027
C 1.39205 9.20545 -0.00583
C 0.03595 8.48642 -0.02302
C 34.40551 7.10715 -0.02849
C 1.17465 6.34911 0.02931
C 1.11786 4.98814 0.00628
C 34.36685 4.23971 -0.0345
C 34.37921 2.80019 -0.00931
C 1.17241 2.07515 -0.00939
C 1.14906 0.62434 -0.00468
C 0.14869 11.4181 -0.02442
C 1.26289 27.64203 -0.05239
C 0.04047 28.33156 -0.00598
C 0.0103 29.74151 -0.00439
C 31.92387 19.89759 0.00594
C 33.19494 19.18224 -0.02474
C 33.22432 17.71389 0.00369
C 31.98531 16.98761 0.00455
C 32.01075 15.56871 -0.00644
C 33.17573 14.88397 -0.01839
C 33.18528 13.43214 0.00137
C 31.94523 12.73289 0.00199
C 31.91394 11.32516 0.04381
C 33.20586 10.58183 0.02806
C 33.20869 9.19303 0.01504
C 31.93763 8.47537 -0.00069
C 31.92575 7.03948 0.04926
C 33.19005 6.35333 -0.03838
C 33.10152 4.9698 0.00349
C 31.87575 4.21504 -0.00323
C 31.8553 2.75836 -0.00841
C 33.13847 2.08579 0.0001
C 33.15995 0.59443 -0.02927
C 31.98119 34.02682 -0.01404
C 0.01449 32.56007 0.01027
C 1.20054 31.8987 0.01831
C 1.29721 30.52745 -0.01037
C 27.06061 8.48439 0.01094
C 28.21816 9.22748 0.02198
C 28.32335 10.60976 0.02611
C 27.07575 11.37878 -0.00621
C 23.36828 23.41398 0.0106
C 23.36704 21.98697 -0.01154
C 22.1344 21.29936 -0.01721
C 22.06134 19.84881 -0.02422
C 23.37147 19.11837 0.01277
C 23.39678 17.70668 0.00096
C 22.1323 17.05869 -0.01527
C 22.13186 15.63541 0.01087
C 23.34802 14.90872 0.00199
C 23.40814 13.46248 0.01511
C 22.15184 24.12387 -0.01594
C 22.20946 12.7756 -0.00478
C 23.39835 10.68261 -0.01185
C 23.39226 9.23658 0.01126
C 22.07298 8.53201 0.01852
C 22.06523 7.14961 -0.00381
C 23.32964 6.41665 0.03046
C 23.34902 5.04958 0.0296
C 22.07861 4.30653 0.03374
C 22.03851 2.88993 -0.02845
C 23.24098 2.08994 -0.03213
C 23.28064 0.77359 0.02239
C 22.12684 11.31071 -0.01662
C 22.14862 25.63338 0.00742
C 23.40907 26.27109 -0.00311
C 23.43721 27.72258 0.00675
C 20.88005 17.71635 0.02691
C 19.64444 17.00217 -0.01581
C 19.65757 15.58527 0.01452
C 20.94221 14.89623 0.04892
C 20.96863 13.49944 -0.00111
C 19.70566 12.74592 -0.03557
C 19.72987 11.35244 0.03754
C 20.92708 10.64624 0.01739
C 20.89014 9.28452 0.00755
C 19.69842 8.56824 -0.0054
C 19.62814 7.10337 0.00667
C 20.86962 6.36572 0.00143
C 20.81993 4.97263 -0.017
C 19.64657 4.22778 0.00364
C 19.60743 2.78143 -0.00831
C 20.85076 2.13774 -0.02957
C 20.83985 0.73333 -0.04422
C 19.62625 34.07813 0.00654
C 22.09587 32.67301 -0.00703
C 23.35909 31.95387 -0.04076
C 23.33347 30.55142 -0.00652
C 22.08383 29.83618 0.0058
C 22.11031 28.41409 -0.00865
C 22.1023 0.00159 0.01153
C 3.71003 31.94596 0.03345
C 24.5447 32.68704 0.02734
C 25.84634 30.59722 0.01515
C 25.74266 0.77375 -0.01052
C 24.5872 0.0586 -0.01679
C 27.0461 32.76916 0.00367
C 28.27139 32.01984 0.04306
C 28.36917 30.57055 0.00996
C 27.13593 29.84714 0.00195
C 27.13668 28.4463 -0.00802
C 28.31356 27.68916 -0.00218
C 28.27312 26.27081 -0.01654
C 27.0319 25.567 -0.00037
C 25.78076 2.20877 0.00684
C 27.07314 24.16454 -0.0032
C 28.24436 21.94718 -0.02815
C 27.03949 21.24683 -0.00942
C 26.98439 19.82227 0.00487
C 28.22257 19.10077 0.00826
C 28.26915 17.70645 -0.00294
C 27.03944 16.9951 0.00152
C 27.01266 15.62359 0.01257
C 28.23581 14.9285 0.02316
C 28.24598 13.53437 0.04185
C 27.08878 12.78889 0.00194
C 28.15935 23.34842 0.00622
C 24.55836 2.87028 -0.01154
C 24.54223 4.27403 -0.0264
C 25.78986 5.04812 -0.00938
C 24.54208 29.84747 -0.00225
C 24.64416 28.45337 0.00071
C 25.89172 27.68032 -0.01107
C 25.82499 26.28016 -0.01586
C 24.63064 25.5658 -0.01971
C 24.62633 24.09625 -0.02118
C 25.8137 23.40104 0.00733
C 25.84248 21.91101 -0.00178
C 24.53433 21.20619 0.00768
C 24.58211 19.83583 -0.0276
C 25.80352 19.08829 0.03005
C 25.78717 17.68699 -0.04078
C 24.63871 17.03122 0.02117
C 24.61781 15.62558 0.02737
C 25.86075 14.87318 -0.00498
C 25.84344 13.45548 0.00135
C 24.64912 12.79765 0.03102
C 24.61793 11.37358 0.02555
C 25.87886 10.68973 0.01423
C 25.79922 9.25584 -0.00285
C 24.58662 8.51507 -0.009
C 24.58795 7.13022 -0.01199
C 25.79824 6.48737 -0.00229
C 25.83622 31.98721 -0.0055
C 2.45157 32.6616 -0.00112
