355
Graphene
C 34.41403 0.00846 0.01295
C 12.40655 7.37223 -0.00368
C 13.57179 6.52746 -0.02696
C 13.40345 5.09078 -0.00114
C 12.16005 4.39373 0.00228
C 12.20445 2.92376 0.00798
C 13.49613 2.23478 0.00422
C 13.6054 0.77855 0.0351
C 12.33495 0.10578 -0.03113
C 12.59251 8.80263 -0.0108
C 14.73652 32.80322 0.02098
C 15.95283 30.53557 -0.00619
C 14.73055 29.80119 -0.02162
C 14.7612 28.37656 0.00889
C 15.96936 27.60027 -0.00481
C 15.78411 26.15685 0.00979
C 14.65596 25.37237 0.01443
C 14.69173 23.90884 0.03505
C 15.93256 23.24587 -0.02815
C 15.92664 31.95295 0.01848
C 15.96384 21.79494 -0.04147
C 13.05894 9.89541 -0.01957
C 13.54419 18.77897 0.01965
C 9.73764 4.43381 0.00415
C 9.7902 2.96886 -0.0014
C 11.00547 2.20069 0.02162
C 11.06746 0.7795 0.0076
C 9.92186 0.03839 0.01241
C 12.30977 32.69035 -0.01454
C 13.59279 31.99774 0.01945
C 13.54143 30.53622 0.01416
C 13.81704 17.44777 0.02058
C 12.26929 29.92605 0.03542
C 13.47683 27.66915 0.00244
C 13.47111 26.23495 -0.01717
C 12.28389 25.45195 0.05265
C 12.22209 24.06411 -0.01952
C 13.40056 23.35714 -0.02813
C 13.54794 21.92724 0.00374
C 12.23394 21.17644 0.00052
C 12.14846 19.47094 -0.03682
C 12.26503 28.38348 0.02299
C 14.7245 21.16716 -0.05302
C 14.71544 19.71568 0.00213
C 16.00491 19.11596 -0.00066
C 17.11825 4.27836 0.00143
C 17.1374 2.87095 -0.017
C 18.3831 2.30477 0.00364
C 18.46921 0.88243 -0.00831
C 17.2464 0.1214 -0.02957
C 19.66909 32.75447 -0.04422
C 20.87317 32.01164 0.00654
C 20.91465 30.44846 -0.00703
C 18.23894 5.04154 0.00667
C 19.67612 29.84787 -0.04076
C 20.85405 27.67824 0.0058
C 20.92779 26.2864 -0.00865
C 19.6589 25.55696 0.00675
C 19.62827 24.16935 -0.00311
C 20.89118 23.503 0.00742
C 20.82849 22.04451 -0.01594
C 19.65312 21.27629 0.0106
C 20.09377 19.89332 -0.01154
C 19.65826 28.39204 -0.00652
C 17.53222 6.73236 -0.0054
C 17.07304 19.71127 0.00755
C 17.2317 21.1261 0.01739
C 14.88806 6.81369 -0.00289
C 16.23282 6.37453 0.00028
C 15.86548 4.92362 -0.02213
C 14.62675 4.32859 0.03698
C 14.6671 2.93166 -0.00109
C 15.84122 2.18731 -0.00491
C 15.95291 0.80415 0.03338
C 14.80141 0.09376 -0.0258
C 17.22195 32.74412 -0.0331
C 18.38519 31.97554 -0.00316
C 18.43312 30.50942 0.02188
C 17.19599 29.80168 -0.01979
C 17.19578 28.38149 0.02691
C 18.41847 27.66525 -0.01581
C 18.36471 26.21587 0.01452
C 17.12557 25.45268 0.04892
C 17.20633 24.04118 -0.00111
C 18.42996 23.2855 -0.03557
C 18.41889 21.88213 0.03754
C 10.97045 5.24326 -0.02162
C 20.94166 5.18174 -0.01721
C 11.07109 6.69119 0.01363
C 10.79974 19.11469 -0.00925
C 3.65799 5.02372 -0.00494
C 2.46777 4.377 0.00054
C 2.40625 2.91474 0.03007
C 3.69331 2.19917 -0.00095
C 3.67211 0.85546 0.01572
C 2.47285 0.06026 -0.04848
C 5.00007 32.81175 -0.00892
C 6.19282 32.06897 -0.01362
C 3.66018 6.44657 -0.00562
C 6.2008 30.64839 -0.0008
C 4.96834 28.4375 0.00393
C 6.16207 27.69281 0.00895
C 6.14028 26.26236 0.00685
C 4.88416 25.60343 0.02888
C 4.86174 24.18579 -0.00482
C 6.07744 23.4923 -0.01384
C 6.04546 22.0624 0.03693
C 4.89217 21.32027 0.01745
C 4.99763 29.91071 0.0288
C 4.83124 19.9297 0.00488
C 2.41173 7.11368 -0.01142
C 3.77859 9.32373 0.01396
C 3.71911 30.60139 0.01087
C 2.49394 29.91264 -0.01343
C 2.45619 28.48503 0.00988
C 3.6809 27.7633 0.0276
C 3.65266 26.30714 0.01305
C 2.4262 25.5786 -0.00077
C 2.50352 24.17945 0.03368
C 3.66062 23.44753 -0.02929
C 2.45473 8.50298 0.01849
C 3.66675 22.00275 -0.00966
C 2.52767 19.85024 0.01227
C 3.75774 19.12068 0.00873
C 3.71183 17.65579 -0.00049
C 2.49451 16.91615 0.00848
C 2.37507 15.59121 -0.01303
C 2.26604 12.94226 -0.01378
C 2.58138 11.56902 0.02635
C 3.64985 10.66606 0.0127
C 2.36044 21.29606 -0.03337
C 6.20778 19.25595 -0.01004
C 5.05714 8.59661 -0.02896
C 4.93148 7.13736 -0.00131
C 7.31813 4.39788 0.00943
C 7.28381 2.99969 0.02841
C 8.56483 2.2543 -0.01111
C 8.57038 0.86677 -0.01275
C 7.32544 0.13622 0.00985
C 9.84203 32.73163 -0.02245
C 11.06719 32.06107 -0.00428
C 11.06621 30.57647 0.03101
C 8.50564 5.16974 0.00406
C 9.8767 29.91338 -0.01536
C 11.05147 27.69716 -0.01046
C 11.12221 26.23574 -0.00891
C 9.85135 25.48659 0.02819
C 9.83223 24.15387 0.00165
C 11.02574 23.31496 -0.02971
C 11.0933 21.84273 0.02894
C 9.74437 21.26637 -0.01789
C 9.86004 19.88112 0.00444
C 9.87304 28.41705 -0.02689
C 8.54944 6.61587 0.03592
C 7.29003 7.29853 0.00572
C 7.15631 19.95823 0.0402
C 6.14918 6.45908 -0.01118
C 6.07191 5.03452 -0.014
C 4.90522 4.36093 0.02147
C 4.889 2.94116 0.00373
C 6.11619 2.25582 -0.00191
C 6.14296 0.8778 0.00438
C 4.87715 0.1876 0.01291
C 7.45199 32.83443 0.00093
C 8.66685 32.01765 0.00057
C 8.62405 30.62061 -0.01634
C 7.3969 29.88381 -0.00334
C 7.42936 28.41669 0.02339
C 8.636 27.72017 0.01641
C 8.59972 26.23296 -0.00719
C 7.35525 25.54871 0.01364
C 7.25981 24.16963 -0.01062
C 8.56837 23.504 -0.00033
C 8.60659 22.05993 0.03589
C 7.38099 21.43399 -0.02759
C 9.8228 7.16133 0.01877
C 3.72292 32.0792 -0.05697
C 19.54444 4.44403 -0.02422
C 20.81253 2.36252 0.00096
C 31.97897 32.64989 0.01713
C 33.26951 31.95737 -0.01694
C 33.21139 30.60725 0.01428
C 31.95877 29.90148 -0.02142
C 31.91723 28.41779 0.0544
C 33.15364 27.82012 0.00026
C 33.18467 26.32473 0.00682
C 31.93692 25.62757 -0.01779
C 29.48151 34.0723 0.00346
C 31.90396 24.1997 0.03794
C 33.12847 21.97734 0.01574
C 31.90751 21.31304 -0.02383
C 31.93034 19.91703 -0.01429
C 33.10227 19.14422 -0.0136
C 33.08051 17.74131 0.00594
C 31.84912 17.02634 -0.02474
C 31.9312 15.62972 0.00369
C 33.07032 14.86707 0.00455
C 33.14239 23.40549 0.01927
C 33.06876 13.47052 -0.00644
C 30.77557 0.77022 0.00307
C 29.47327 2.831 0.02108
C 30.67352 22.03977 -0.01415
C 29.36809 21.36397 -0.03039
C 29.38891 19.85354 0.01836
C 30.63428 19.16395 0.03531
C 30.72376 17.76254 -0.00669
C 29.49094 17.03483 0.0101
C 29.3816 15.57356 0.01705
C 30.68082 14.94909 -0.0405
C 30.67485 2.23331 0.00716
C 30.60563 13.52734 -0.01303
C 29.43852 11.3082 -0.02155
C 30.74299 10.58827 -0.00944
C 30.69779 9.19268 -0.03735
C 29.39728 8.55602 -0.00971
C 29.36381 7.0698 0.01518
C 30.65333 6.42634 0.01908
C 30.71799 5.01319 0.07705
C 29.48368 4.26252 0.0103
C 29.42685 12.73274 -0.01461
C 31.74982 12.80622 -0.01839
C 31.98348 11.33296 0.00137
C 33.12901 10.62799 0.00199
C 1.2753 19.15215 -0.01678
C 1.17015 17.71604 0.01223
C 34.36458 17.02652 0.00648
C 34.28749 15.63794 0.02114
C 1.12909 14.99767 -0.02957
C 1.07468 13.57028 0.00343
C 34.2665 12.75429 -0.02656
C 0.03989 11.36311 -0.02442
C 34.40139 19.85023 0.01951
C 1.31346 10.81887 -0.00027
C 34.42926 8.62525 -0.02302
C 0.0228 7.23269 -0.02849
C 1.21855 6.43365 0.02931
C 1.17595 5.06326 0.00628
C 34.42302 4.26257 -0.0345
C 0.06308 2.92746 -0.00931
C 1.25084 2.18122 -0.00939
C 1.30466 0.75041 -0.00468
C 1.22204 9.32964 -0.00583
C 34.35372 21.2999 -0.02213
C 1.20265 22.01812 0.02712
C 1.29695 23.47601 0.00723
C 33.19603 9.23285 0.04381
C 31.95317 8.4294 0.02806
C 31.9187 7.07911 0.01504
C 33.20888 6.40499 -0.00069
C 33.23131 5.00618 0.04926
C 31.92808 4.29551 -0.03838
C 31.9701 2.89368 0.00349
C 33.20411 2.19589 -0.00323
C 33.19796 0.71593 -0.00841
C 31.88499 0.01469 0.0001
C 34.41736 32.72443 -0.02927
C 1.26053 32.01424 -0.01404
C 1.20391 30.61202 0.01027
C 34.3855 29.86877 0.01831
C 34.35786 28.49012 -0.01037
C 1.26555 27.69453 -0.00439
C 1.24984 26.2839 -0.00598
C 34.43277 25.63838 -0.05239
C 34.40079 24.11658 0.03076
C 30.5786 23.46727 -0.01854
C 19.58446 3.01905 0.01277
C 29.47949 24.13349 -0.02049
C 30.69866 26.29088 0.00261
C 22.07468 0.09517 -0.01107
C 24.56035 32.67546 -0.01586
C 25.79335 31.97014 -0.01971
C 25.79614 30.54533 -0.02118
C 24.53775 29.78851 0.00733
C 24.4918 28.33198 -0.00178
C 25.72325 27.70421 0.00768
C 25.79054 26.32654 -0.0276
C 23.33242 0.73772 0.00071
C 24.55787 25.54789 0.03005
C 25.70909 23.39615 0.02117
C 25.68289 21.98876 0.02737
C 24.33956 21.20869 -0.00498
C 24.18859 19.72132 0.00135
C 25.50534 19.10686 0.03102
C 25.60394 17.64784 0.02555
C 24.21503 16.99104 0.01423
C 25.84528 14.62575 -0.00285
C 24.45199 24.10031 -0.04078
C 25.66412 6.29201 -0.009
C 23.22211 2.1839 -0.00225
C 22.18776 4.59415 -0.0055
C 20.8492 0.90464 -0.01527
C 19.64607 0.13148 0.01087
C 22.11657 32.67242 0.00199
C 23.31729 31.94958 0.01511
C 23.35591 30.53055 -0.00478
C 22.11932 29.75342 -0.01662
C 22.10216 28.34067 -0.01185
C 23.35801 27.59661 0.01126
C 22.12279 3.02108 0.01515
C 23.38995 26.25716 0.01852
C 22.16186 24.19952 0.03046
C 23.2579 23.39764 0.0296
C 23.12437 21.98158 0.03374
C 21.89302 21.28466 -0.02845
C 21.60602 19.87288 -0.03213
C 22.74905 19.02355 0.02239
C 23.39809 17.82403 0.01153
C 23.42301 5.15486 0.02734
C 22.17445 25.57051 -0.00381
C 25.78436 4.83144 -0.01199
C 24.54052 4.23868 -0.00229
C 24.55154 2.7717 -0.00938
C 27.0345 11.52404 0.04185
C 28.19224 10.61468 0.00194
C 28.11678 9.18917 -0.00621
C 27.01112 8.43589 0.02611
C 26.87426 7.06546 0.02198
C 28.16018 6.35551 0.01094
C 28.26973 4.90147 0.00235
C 26.95401 4.13123 0.01495
C 26.94716 12.73477 0.02316
C 27.05765 2.74871 0.01259
C 28.29037 0.64783 0.01699
C 27.01444 34.02688 -0.00416
C 29.53018 32.66679 0.01177
C 30.74393 31.96739 0.04266
C 30.75293 30.54591 0.01324
C 29.50232 29.84194 0.0014
C 29.4966 28.43797 0.00924
C 30.6983 27.71972 0.02326
C 28.30862 2.04289 0.01799
C 28.26715 13.42339 0.01257
C 28.20874 14.8299 0.00152
C 26.94137 15.53985 -0.00294
C 25.75182 2.08635 -0.0264
C 25.75146 0.70038 -0.01154
C 24.56844 0.00723 0.00684
C 27.07061 32.55808 -0.01052
C 28.37825 31.8935 -0.01679
C 28.31329 30.5419 0.00367
C 27.06359 29.80618 0.04306
C 27.02855 28.4446 0.00996
C 28.23137 27.67129 0.00195
C 28.23938 26.26049 -0.00802
C 26.95367 25.60518 -0.00218
C 27.02859 24.20547 -0.01654
C 28.21572 23.367 -0.00037
C 28.14072 21.9918 -0.0032
C 26.79852 21.20685 0.00622
C 26.78985 19.81276 -0.02815
C 28.07991 19.16819 -0.00942
C 28.17451 17.73601 0.00487
C 26.86515 16.99965 0.00826
C 29.39999 25.6036 0.03265
C 2.48317 32.68878 -0.00725
