365
Graphene
C 0.01563 0.02763 0.01295
C 16.01334 31.9193 0.00052
C 15.97612 10.72054 -0.03682
C 15.968 9.28258 0.01965
C 14.79827 8.4659 0.02058
C 14.79031 7.14169 -0.01957
C 16.01617 6.41402 -0.0108
C 15.94542 4.94132 -0.00368
C 14.73282 4.22066 -0.02696
C 14.73871 32.54761 0.00374
C 14.75885 2.80274 -0.00114
C 16.02836 0.72879 0.00798
C 14.76296 34.06127 0.00422
C 17.25516 32.60026 0.0351
C 18.48905 31.90616 -0.03113
C 17.20123 21.3633 0.02098
C 18.45681 19.0902 0.01848
C 18.4628 17.7269 -0.00619
C 18.39182 14.90407 -0.02162
C 16.04697 2.08309 0.00228
C 12.23597 34.04911 -0.02813
C 13.48531 0.72105 -0.01952
C 13.54278 2.07192 0.05265
C 11.03851 5.00559 0.02894
C 9.76179 4.32597 -0.01789
C 9.85094 2.87596 0.00444
C 11.08724 2.1513 -0.00925
C 11.08251 0.72593 0.01877
C 9.85889 0.00986 0.01363
C 12.27687 32.65993 -0.02162
C 13.52017 31.93503 0.00415
C 13.56006 30.56916 -0.0014
C 12.3356 29.88638 0.02162
C 12.26436 28.38795 0.0076
C 12.26833 25.58829 0.01241
C 12.33424 24.07843 -0.01454
C 13.50474 22.02386 0.01945
C 12.32585 7.14779 0.01416
C 13.58589 6.38268 0.03542
C 13.53297 4.91461 0.02299
C 12.29722 4.28392 0.00244
C 12.32532 2.80278 -0.01717
C 18.36326 13.49905 0.00889
C 17.22216 12.77196 -0.00481
C 17.26483 11.37166 0.00979
C 18.46208 10.67713 0.01443
C 19.69097 11.36806 -0.03557
C 20.8748 10.72546 0.03754
C 20.89389 9.24128 0.01739
C 19.64693 8.45784 0.00755
C 19.68813 7.06357 -0.0054
C 20.92091 6.43112 0.00667
C 20.91681 4.93742 0.00143
C 19.64691 4.27851 -0.017
C 19.6784 2.88745 0.00364
C 20.93732 2.1227 -0.00831
C 20.95759 0.77726 -0.02957
C 19.68146 34.04951 -0.04422
C 22.15362 32.67064 0.00654
C 23.36787 31.92626 -0.00703
C 23.4138 30.48788 -0.04076
C 22.09747 29.82165 -0.00652
C 22.1307 28.38722 0.0058
C 23.35701 27.63052 -0.00865
C 23.41158 26.23064 0.00675
C 19.67669 12.81855 -0.00111
C 11.03094 6.42119 -0.02971
C 20.88175 13.4859 0.04892
C 19.61443 15.6645 -0.01581
C 18.42071 9.25174 0.03505
C 17.19655 8.53179 -0.02815
C 17.25613 7.08675 -0.04147
C 18.46212 6.39826 -0.05302
C 18.44542 4.98819 0.00213
C 17.21186 4.28641 -0.00066
C 17.26377 2.85554 -0.00289
C 18.48389 2.14288 0.00028
C 18.46807 0.6678 -0.02213
C 17.19381 34.06055 0.03698
C 19.65985 32.61191 -0.00109
C 20.94165 31.94684 -0.00491
C 20.86631 30.53081 0.03338
C 20.87021 22.00399 -0.0258
C 19.64068 21.32622 -0.0331
C 19.63878 19.88909 -0.00316
C 20.85478 19.1747 0.02188
C 20.92161 17.77253 -0.01979
C 19.71898 17.0436 0.02691
C 20.87092 14.89078 0.01452
C 9.8295 7.04493 0.00165
C 9.76261 19.83317 0.02819
C 9.90958 21.26807 -0.00891
C 3.64209 6.3667 0.00848
C 3.72621 4.96363 -0.01303
C 2.51476 4.29759 -0.01378
C 2.44769 2.8929 0.02635
C 3.71059 2.10086 0.0127
C 3.67089 0.70962 0.01396
C 2.45536 0.01905 0.01849
C 4.95059 32.70218 -0.01142
C 6.15397 31.87985 -0.00562
C 6.13455 30.51694 -0.00494
C 4.90371 29.82648 0.00054
C 4.89497 28.38902 0.03007
C 6.15114 27.68898 -0.00095
C 6.12173 26.32213 0.01572
C 4.91583 25.50962 -0.04848
C 4.92352 24.15367 -0.00892
C 6.14877 23.45269 -0.01362
C 6.14618 22.04129 -0.0008
C 4.88233 21.35742 0.0288
C 2.47624 7.11773 -0.00049
C 4.91596 19.87071 0.00393
C 2.45721 8.52905 0.00873
C 3.62598 10.6754 -0.03337
C 3.74648 30.48717 -0.00518
C 2.53232 29.84186 0.0086
C 2.43714 28.38738 -0.00643
C 3.74852 27.67907 0.017
C 3.70473 26.25584 -0.03113
C 2.41367 25.54976 -0.02566
C 2.42577 24.22111 -0.00094
C 3.67787 23.41814 0.02322
C 3.7217 21.97458 -0.00725
C 2.43288 21.33033 -0.05697
C 2.5078 19.88772 0.01087
C 3.67314 19.13347 -0.01343
C 3.72466 17.72561 0.00988
C 2.35855 17.0183 0.0276
C 2.43907 15.70205 0.01305
C 3.63588 14.94086 -0.00077
C 3.67133 13.56348 0.03368
C 2.52028 12.80455 -0.02929
C 2.46727 11.2993 -0.00966
C 3.7515 9.26059 0.01227
C 22.16288 24.17935 -0.00311
C 6.15603 19.20988 0.00895
C 4.93603 17.04309 0.02888
C 7.34489 7.07851 -0.01062
C 8.58716 6.39728 -0.00033
C 8.61985 4.97375 0.03589
C 7.38406 4.22485 -0.02759
C 7.38313 2.87306 0.0402
C 8.60691 2.18687 0.00572
C 8.55809 0.73308 0.03592
C 7.40946 0.00631 0.00406
C 9.87715 32.65348 0.00943
C 11.08077 31.99432 0.02841
C 11.02776 30.43939 -0.01111
C 9.82208 29.82597 -0.01275
C 9.79497 28.42855 0.00985
C 11.01632 27.65374 -0.02245
C 11.06105 26.27539 -0.00428
C 9.82123 25.5809 0.03101
C 9.80986 24.1625 -0.01536
C 11.09177 23.37234 -0.02689
C 11.08315 22.0608 -0.01046
C 8.63818 19.24698 0.01364
C 6.13505 17.77252 0.00685
C 7.38747 19.87446 -0.00719
C 8.62574 22.02553 0.02339
C 4.94832 8.53821 -0.00482
C 4.89861 7.09057 -0.01384
C 6.12819 6.42816 0.03693
C 6.18453 4.9429 0.01745
C 4.92073 4.30831 0.00488
C 4.88772 2.88132 -0.01004
C 6.16624 2.20641 -0.02896
C 6.11506 0.81022 -0.00131
C 4.91627 0.02712 -0.01118
C 7.37438 32.67305 -0.014
C 8.5415 31.95688 0.02147
C 8.61515 30.58003 0.00373
C 7.4024 29.82384 -0.00191
C 7.40835 28.39069 0.00438
C 8.58071 27.73331 0.01291
C 8.59216 26.31898 0.00093
C 7.39515 25.5741 0.00057
C 7.32451 24.15332 -0.01634
C 8.57951 23.47748 -0.00334
C 7.3909 21.29932 0.01641
C 3.71634 31.93409 -0.00074
C 23.3151 23.47501 0.00742
C 22.11757 21.31146 0.0106
C 29.55009 0.03421 0.00346
C 31.97527 32.60982 0.01713
C 33.19484 31.96002 -0.01694
C 33.16462 30.519 0.01428
C 31.98997 29.81191 -0.02142
C 31.9695 28.43018 0.0544
C 33.13394 27.70174 0.00026
C 33.14808 26.28424 0.00682
C 30.72899 0.64841 0.00307
C 31.97072 25.59643 -0.01779
C 33.16508 23.42024 0.01927
C 33.22105 22.036 0.01574
C 31.9946 21.28005 -0.02383
C 31.96833 19.88163 -0.01429
C 33.1988 19.2013 -0.0136
C 33.22799 17.75799 0.00594
C 31.99823 17.08704 -0.02474
C 31.98168 15.59045 0.00369
C 31.97348 24.15731 0.03794
C 30.72853 2.12021 0.00716
C 29.46896 2.89156 0.02108
C 29.54257 4.25619 0.0103
C 29.52349 24.0609 -0.02049
C 30.80084 23.41499 -0.01854
C 30.74627 22.04847 -0.01415
C 29.53267 21.33656 -0.03039
C 29.53691 19.87245 0.01836
C 30.72727 19.14982 0.03531
C 30.74275 17.72112 -0.00669
C 29.48557 17.05958 0.0101
C 29.56139 15.65115 0.01705
C 30.77732 14.84839 -0.0405
C 30.77771 13.4579 -0.01303
C 29.52507 12.80307 -0.01461
C 29.52078 11.39636 -0.02155
C 30.75562 10.60173 -0.00944
C 30.69733 9.25238 -0.03735
C 29.54876 8.4782 -0.00971
C 29.48625 7.05981 0.01518
C 30.71595 6.42155 0.01908
C 30.72267 4.95674 0.07705
C 33.18181 14.91664 0.00455
C 33.20729 13.4824 -0.00644
C 31.97626 12.72663 -0.01839
C 31.99342 11.32765 0.00137
C 0.0031 19.9165 0.01951
C 1.29447 19.17078 -0.01678
C 1.21194 17.68341 0.01223
C 0.0041 17.02227 0.00648
C 0.02658 15.58917 0.02114
C 1.19871 14.89517 -0.02957
C 1.2514 13.4773 0.00343
C 0.00118 12.77306 -0.02656
C 34.4007 11.37353 -0.02442
C 1.23257 10.73243 -0.00027
C 1.225 9.23757 -0.00583
C 0.02833 8.57105 -0.02302
C 34.39035 7.12444 -0.02849
C 1.21705 6.3801 0.02931
C 1.22163 4.94873 0.00628
C 0.03927 4.27371 -0.0345
C 0.03847 2.8237 -0.00931
C 1.22967 2.10284 -0.00939
C 1.2446 0.73804 -0.00468
C 34.4273 21.3095 -0.02213
C 29.52765 25.5864 0.03265
C 1.17685 21.95757 0.02712
C 34.39021 24.13541 0.03076
C 33.17757 10.64087 0.00199
C 33.24198 9.23387 0.04381
C 31.92252 8.49104 0.02806
C 31.91198 7.12409 0.01504
C 33.18002 6.36081 -0.00069
C 33.1789 4.96814 0.04926
C 31.96365 4.22568 -0.03838
C 31.97545 2.90347 0.00349
C 33.20671 2.16144 -0.00323
C 33.20429 0.69438 -0.00841
C 31.97723 34.05985 0.0001
C 34.3879 32.63669 -0.02927
C 1.17781 31.97173 -0.01404
C 1.24311 30.54633 0.01027
C 0.02958 29.77865 0.01831
C 0.00598 28.3998 -0.01037
C 1.19791 27.71109 -0.00439
C 1.24095 26.29427 -0.00598
C 34.41718 25.63652 -0.05239
C 1.19569 23.46051 0.00723
C 30.70144 26.25942 0.00261
C 30.76198 27.70748 0.02326
C 29.53537 28.39159 0.00924
C 24.60203 29.80487 -0.0055
C 24.56972 28.37837 0.01515
C 25.79069 27.6951 -0.00225
C 25.79517 26.30951 0.00071
C 24.57441 25.61622 -0.01107
C 24.60816 24.08717 -0.01586
C 25.82036 23.41409 -0.01971
C 25.76502 21.99604 -0.02118
C 24.58725 21.31104 0.00733
C 24.61707 19.86088 -0.00178
C 25.74748 19.11688 0.00768
C 25.78909 17.75815 -0.0276
C 24.5959 17.05342 0.03005
C 24.554 15.56967 -0.04078
C 25.78156 14.93724 0.02117
C 25.87129 13.47206 0.02737
C 24.64086 12.79605 -0.00498
C 24.62789 11.39053 0.00135
C 25.80262 10.62286 0.03102
C 25.8169 30.46235 0.02734
C 25.79984 9.19172 0.02555
C 25.80637 31.92838 0.01153
C 22.143 34.07937 -0.03213
C 22.15947 19.86708 -0.01154
C 23.34477 19.20266 -0.01721
C 23.27264 17.74765 -0.02422
C 22.07406 16.99951 0.01277
C 22.10944 15.54206 0.00096
C 23.31235 14.91353 -0.01527
C 23.41351 13.45847 0.01087
C 22.17086 12.75914 0.00199
C 22.04762 11.36804 0.01511
C 23.30805 10.60331 -0.00478
C 23.36341 9.22109 -0.01662
C 22.13144 8.49134 -0.01185
C 22.18964 7.04117 0.01126
C 23.40375 6.32576 0.01852
C 23.39206 4.94598 -0.00381
C 22.12919 4.25067 0.03046
C 22.16704 2.77981 0.0296
C 23.33423 2.09027 0.03374
C 23.34484 0.72337 -0.02845
C 24.63985 32.64404 0.02239
C 23.44077 21.95134 -0.01594
C 24.56594 8.486 0.01423
C 25.82431 6.37718 -0.009
C 28.29858 14.91087 0.00152
C 28.28942 13.47517 0.01257
C 27.08785 12.77572 0.02316
C 27.0312 11.33611 0.04185
C 28.29878 10.67169 0.00194
C 28.33046 9.231 -0.00621
C 27.11258 8.54303 0.02611
C 27.08561 7.13373 0.02198
C 28.30013 6.40946 0.01094
C 28.31639 4.90269 0.00235
C 27.03611 4.26118 0.01495
C 27.087 2.86697 0.01259
C 28.26602 2.18017 0.01799
C 28.25664 0.70344 0.01699
C 27.05822 0.00655 -0.00416
C 29.46828 32.68231 0.01177
C 30.74606 31.92212 0.04266
C 30.77313 30.54185 0.01324
C 29.49388 29.87339 0.0014
C 27.03833 15.59365 -0.00294
C 24.62336 7.13187 -0.00285
C 27.0728 17.04154 0.00826
C 28.33004 19.13851 -0.00942
C 25.77188 4.92407 -0.01199
C 24.60721 4.29002 -0.00229
C 24.5939 2.82952 -0.00938
C 25.94432 2.18224 -0.0264
C 25.8207 0.75335 -0.01154
C 24.59634 0.00308 0.00684
C 27.06132 32.61628 -0.01052
C 28.22491 31.95045 -0.01679
C 28.2182 30.55199 0.00367
C 27.02146 29.82157 0.04306
C 27.02249 28.4014 0.00996
C 28.3097 27.66038 0.00195
C 28.21615 26.24055 -0.00802
C 27.04454 25.58652 -0.00218
C 27.01705 24.16855 -0.01654
C 28.2471 23.39578 -0.00037
C 28.26751 22.03472 -0.0032
C 27.03591 21.29779 0.00622
C 27.05172 19.84309 -0.02815
C 28.26241 17.74834 0.00487
C 2.47875 32.58803 0.01465
