295
Graphene
C 0.08054 0.04097 0.01295
C 14.75149 12.86503 0.00755
C 14.64834 11.40035 -0.0054
C 15.9997 10.70064 0.00667
C 16.05763 9.29975 0.00143
C 14.81628 8.61969 -0.017
C 14.75571 7.15269 0.00364
C 15.98909 13.34056 0.01739
C 15.94766 6.44355 -0.00831
C 14.7329 4.21214 -0.04422
C 14.82137 2.75516 0.00654
C 16.05069 2.11945 -0.00703
C 15.99135 0.67673 -0.04076
C 14.73993 33.99974 -0.00652
C 17.19468 32.54714 0.0058
C 15.89922 4.95411 -0.02957
C 15.97067 31.89554 0.03754
C 14.82632 32.5346 -0.03557
C 12.23812 34.05226 -0.00111
C 13.45906 30.27107 0.00028
C 12.21264 30.00846 -0.02213
C 13.34963 13.46062 0.03698
C 12.40652 12.78662 -0.00109
C 12.15661 11.39819 -0.00491
C 13.45577 10.74196 0.03338
C 13.55032 9.32708 -0.0258
C 12.37038 8.59515 -0.0331
C 12.33412 7.13391 -0.00316
C 13.55914 6.44046 0.02188
C 13.51341 5.00008 -0.01979
C 12.29971 4.30632 0.02691
C 12.34075 2.91479 -0.01581
C 13.54468 2.15925 0.01452
C 13.52265 0.73818 0.04892
C 18.43553 32.09309 -0.00865
C 13.54693 31.75562 -0.00289
C 18.46804 13.38325 0.00675
C 17.26278 11.36152 0.00742
C 19.74565 7.0656 0.03374
C 20.88021 6.31176 -0.02845
C 20.86196 4.89825 -0.03213
C 19.62581 4.16282 0.02239
C 19.64051 2.8071 0.01153
C 20.96982 2.18005 0.02734
C 19.71811 8.45733 0.0296
C 20.88996 0.73037 -0.0055
C 22.05238 32.63584 -0.00225
C 23.37194 32.18108 0.00071
C 23.40659 14.89682 -0.01107
C 23.28335 13.47743 -0.01586
C 22.06357 12.78117 -0.01971
C 22.13106 11.36831 -0.02118
C 19.65252 0.01992 0.01515
C 20.91387 9.29386 0.03046
C 20.92109 10.69253 -0.00381
C 19.7377 11.37239 0.01852
C 18.48356 10.67796 -0.01594
C 18.51911 9.20179 0.0106
C 17.2898 8.47551 -0.01154
C 17.26131 7.07298 -0.01721
C 18.50926 6.35579 -0.02422
C 18.37564 4.92478 0.01277
C 17.15834 4.26915 0.00096
C 17.26125 2.77816 -0.01527
C 18.43113 2.10776 0.01087
C 18.4229 0.67441 0.00199
C 17.24257 34.0513 0.01511
C 19.60877 32.63117 -0.00478
C 20.83594 32.10458 -0.01662
C 20.92334 13.52415 -0.01185
C 19.6789 12.86689 0.01126
C 17.26779 12.87677 -0.00311
C 23.34923 10.66219 0.00733
C 12.30039 32.5894 -0.00066
C 11.0833 0.72257 -0.05302
C 3.71879 0.74161 0.02819
C 2.53674 34.05314 0.00165
C 4.97063 32.63611 -0.02971
C 6.18864 31.94521 0.02894
C 6.17573 30.38956 -0.01789
C 4.92129 29.81589 0.00444
C 3.67796 2.15296 -0.00891
C 6.18223 13.38973 -0.00925
C 4.85327 11.32539 0.01363
C 6.095 10.67158 -0.02162
C 6.16396 9.21612 0.00415
C 4.87261 8.51125 -0.0014
C 4.92246 7.10326 0.02162
C 6.15717 6.39048 0.0076
C 4.89223 12.76331 0.01877
C 2.42936 2.80362 -0.01046
C 2.42462 4.24689 -0.02689
C 3.63138 5.01559 -0.01536
C 3.80067 30.53604 -0.00033
C 2.50695 29.89737 0.03589
C 2.52043 28.4578 -0.02759
C 3.70057 27.71107 0.0402
C 2.34012 17.02906 0.00572
C 2.49972 15.6522 0.03592
C 3.69069 14.89734 0.00406
C 3.67699 13.49697 0.00943
C 2.39284 12.78867 0.02841
C 2.33684 11.40841 -0.01111
C 3.58673 10.65623 -0.01275
C 3.64558 9.27401 0.00985
C 2.42236 8.562 -0.02245
C 2.45139 7.08989 -0.00428
C 3.69474 6.40284 0.03101
C 6.0958 4.98318 0.01241
C 9.8923 0.00947 0.00213
C 4.85525 4.33653 -0.01454
C 6.17741 2.16637 0.01416
C 9.8363 32.61103 0.00422
C 11.00728 31.92155 0.0351
C 11.09595 30.50401 -0.03113
C 9.94299 12.68054 0.02098
C 9.82488 11.36423 0.01848
C 11.04559 10.58167 -0.00619
C 7.45208 0.00215 0.00798
C 11.07159 9.17954 -0.02162
C 9.77989 7.13181 -0.00481
C 11.04107 6.50371 0.00979
C 11.06394 5.02259 0.01443
C 9.86864 4.29555 0.03505
C 9.80904 2.82169 -0.02815
C 11.10295 2.16433 -0.04147
C 9.81116 8.47889 0.00889
C 8.64928 0.66651 0.00228
C 8.52116 2.12927 -0.00114
C 7.34873 2.93549 -0.02696
C 6.19172 0.75962 0.03542
C 4.92734 0.01496 0.02299
C 7.40889 32.62981 0.00244
C 8.64054 31.86436 -0.01717
C 8.6346 30.44816 0.05265
C 7.54546 30.02687 -0.01952
C 7.24154 12.85758 -0.02813
C 7.35058 11.38876 0.00374
C 8.5684 10.61748 0.00052
C 8.5532 9.17514 -0.03682
C 7.33382 8.47092 0.01965
C 7.33748 7.11474 0.02058
C 8.56441 6.38479 -0.01957
C 8.61733 4.99976 -0.0108
C 7.36001 4.34027 -0.00368
C 4.92686 2.88676 0.01945
C 3.73285 31.88758 -0.01062
C 23.32721 9.28701 -0.00178
C 22.05349 7.00363 -0.0276
C 31.95246 21.29244 -0.01429
C 31.91527 19.88217 -0.0136
C 33.13555 19.13193 0.00594
C 33.17673 17.69869 -0.02474
C 31.90202 17.09054 0.00369
C 31.90945 15.69166 0.00455
C 33.2031 21.91717 -0.02383
C 33.09638 14.93581 -0.00644
C 31.9318 12.85041 0.00137
C 31.95417 11.40426 0.00199
C 33.17564 10.66501 0.04381
C 33.20325 9.28977 0.02806
C 32.04103 8.52876 0.01504
C 31.94055 7.17542 -0.00069
C 33.15163 13.53005 -0.01839
C 33.20567 23.39828 0.01574
C 31.97288 24.16781 0.01927
C 31.96915 25.5723 0.03794
C 29.48949 7.1696 0.01908
C 30.72704 6.4814 0.07705
C 30.75328 5.05894 0.0103
C 29.45 4.23583 0.02108
C 29.46936 2.83769 0.00716
C 30.68964 2.13126 0.00307
C 30.75754 0.70692 0.00346
C 29.54959 34.04872 0.01713
C 31.97112 32.67336 -0.01694
C 33.21293 32.00543 0.01428
C 33.18075 30.57793 -0.02142
C 31.90463 29.84685 0.0544
C 31.93367 28.385 0.00026
C 33.18773 27.67514 0.00682
C 33.23731 26.28271 -0.01779
C 33.18454 6.48795 0.04926
C 29.50529 8.57782 0.01518
C 33.23269 5.03126 -0.03838
C 31.9329 2.85246 -0.00323
C 1.17642 14.89955 -0.02957
C 1.15992 13.51272 0.00343
C 34.33739 12.86637 -0.02656
C 34.33705 11.39041 -0.02442
C 1.1013 10.6716 -0.00027
C 1.17975 9.31727 -0.00583
C 34.40448 15.58854 0.02114
C 34.42957 8.57943 -0.02302
C 1.18806 6.42943 0.02931
C 1.21687 4.97225 0.00628
C 0.0102 4.28948 -0.0345
C 34.39194 2.82788 -0.00931
C 1.19716 2.1246 -0.00939
C 1.28032 0.75309 -0.00468
C 34.40023 7.19619 -0.02849
C 34.38187 17.0023 0.00648
C 1.24436 17.82499 0.01223
C 1.09924 19.16263 -0.01678
C 33.20687 2.13999 -0.00841
C 33.239 0.71661 0.0001
C 32.02303 0.01843 -0.02927
C 0.02434 32.68598 -0.01404
C 1.27121 31.97274 0.01027
C 1.28095 30.56729 0.01831
C 0.00681 29.78869 -0.01037
C 34.39223 28.40993 -0.00439
C 1.22525 27.70541 -0.00598
C 1.17815 26.34029 -0.05239
C 0.10879 25.55962 0.03076
C 0.09796 24.01385 0.00723
C 1.25518 23.28184 0.02712
C 0.07723 21.37778 -0.02213
C 0.03298 19.94068 0.01951
C 31.97933 4.24475 0.00349
C 22.11368 8.50105 0.00768
C 30.7821 9.24653 -0.00971
C 29.44661 11.36029 -0.00944
C 25.81551 6.40024 0.00367
C 25.71884 4.97925 0.04306
C 24.5424 4.29777 0.00996
C 24.62657 2.86095 0.00195
C 25.85344 2.10318 -0.00802
C 25.87926 0.64173 -0.00218
C 24.51509 7.2023 -0.01679
C 24.64842 0.00394 -0.01654
C 28.27217 31.8631 -0.0032
C 28.29532 30.43697 0.00622
C 27.01162 29.82061 -0.02815
C 28.24923 27.71781 -0.00942
C 28.3814 19.11174 0.00487
C 28.15168 17.77261 0.00826
C 27.08654 32.61541 -0.00037
C 24.59105 8.64622 -0.01052
C 25.83665 9.3255 0.00684
C 25.79483 10.73572 -0.01154
C 23.32962 6.41219 0.03005
C 23.341 5.03989 -0.04078
C 22.13576 4.27838 0.02117
C 22.17312 2.8401 0.02737
C 23.38165 2.10219 -0.00498
C 23.39661 0.67397 0.00135
C 22.113 0.07615 0.03102
C 24.61524 32.69299 0.02555
C 25.81456 31.9109 0.01423
C 25.91778 30.32903 -0.00285
C 24.49551 15.4527 -0.009
C 25.74834 14.95056 -0.01199
C 25.82542 13.47829 -0.00229
C 24.5128 12.76142 -0.00938
C 24.57368 11.36029 -0.0264
C 27.04716 16.89156 -0.00294
C 30.72271 10.60013 -0.03735
C 27.02497 15.59579 0.00152
C 28.31311 13.56898 0.02316
C 30.71774 26.27227 0.03265
C 29.58364 25.47854 -0.02049
C 29.53195 24.24014 -0.01854
C 30.6902 23.41657 -0.01415
C 30.64901 21.99985 -0.03039
C 29.53953 21.30473 0.01836
C 30.79462 27.67616 0.00261
C 29.44135 19.92463 0.03531
C 30.7364 17.79927 0.0101
C 29.49045 17.11903 0.01705
C 29.45537 15.68861 -0.0405
C 30.6975 14.96005 -0.01303
C 30.70074 13.51167 -0.01461
C 29.44087 12.78806 -0.02155
C 30.70257 19.20209 -0.00669
C 29.42751 28.32856 0.02326
C 29.50599 29.79666 0.00924
C 30.68575 30.53392 0.0014
C 27.08319 12.87906 0.04185
C 27.0737 11.43563 0.00194
C 28.24079 10.59626 -0.00621
C 28.20815 9.17741 0.02611
C 26.99723 8.5249 0.02198
C 27.04078 7.11412 0.01094
C 28.30757 6.3901 0.00235
C 28.24476 4.95945 0.01495
C 26.95056 4.21723 0.01259
C 27.03752 2.81764 0.01799
C 28.25017 2.09605 0.01699
C 28.26833 0.65825 -0.00416
C 27.11469 34.03595 0.01177
C 29.51031 32.62639 0.04266
C 30.76789 31.93654 0.01324
C 28.28879 14.94164 0.01257
C 2.53628 32.62696 0.01364
