364
Graphene
C 34.39015 0.04153 0.01295
C 9.76863 0.04871 0.00052
C 12.28574 32.65539 -0.03682
C 13.49139 31.90269 0.01965
C 13.42128 30.52394 0.02058
C 12.14886 29.82882 -0.01957
C 12.15794 28.4051 -0.0108
C 13.46379 27.75488 -0.00368
C 11.67048 17.1224 -0.02696
C 11.02662 0.7356 0.00374
C 12.15279 15.70002 -0.00114
C 13.50626 13.39017 0.00798
C 12.35988 12.70569 0.00422
C 12.32686 11.30584 0.0351
C 13.51263 10.60726 -0.03113
C 13.38893 9.16365 0.02098
C 12.12443 8.55551 0.01848
C 12.19169 7.10488 -0.00619
C 13.45275 6.29143 -0.02162
C 13.43089 14.92159 0.00228
C 11.0048 2.12869 -0.02813
C 9.73324 2.8348 -0.01952
C 9.76867 4.32675 0.05265
C 7.27671 0.01218 0.02894
C 9.84239 32.72946 -0.01789
C 11.00807 31.96395 0.00444
C 10.97797 30.55774 -0.00925
C 9.7265 29.94607 0.01877
C 9.71723 28.56707 0.01363
C 10.85972 27.81102 -0.02162
C 10.35017 16.9361 0.00415
C 9.88003 15.58203 -0.0014
C 10.98251 14.81163 0.02162
C 11.07807 13.48246 0.0076
C 9.81659 12.77937 0.01241
C 9.83394 11.39361 -0.01454
C 11.07958 10.63158 0.01945
C 10.95364 9.22145 0.01416
C 9.70893 8.50472 0.03542
C 9.76903 7.11914 0.02299
C 10.9654 6.28868 0.00244
C 10.98399 4.96202 -0.01717
C 13.43683 4.93707 0.00889
C 12.21505 4.28555 -0.00481
C 12.26462 2.88167 0.00979
C 13.54428 2.12341 0.01443
C 16.0391 2.18372 -0.03557
C 16.01302 0.71934 0.03754
C 14.72853 0.10259 0.01739
C 17.18511 32.70478 0.00755
C 18.36069 31.997 -0.0054
C 18.43177 30.57032 0.00667
C 17.18191 29.89643 0.00143
C 17.20618 28.37501 -0.017
C 18.43093 27.59659 0.00364
C 18.2461 26.19153 -0.00831
C 18.73524 22.74806 -0.02957
C 18.47532 19.0766 -0.04422
C 18.45565 17.61139 0.00654
C 17.20403 16.91484 -0.00703
C 17.18564 15.53521 -0.04076
C 18.42437 14.74659 -0.00652
C 18.45694 13.42154 0.0058
C 17.24102 12.68502 -0.00865
C 17.22417 11.24385 0.00675
C 14.77427 2.79505 -0.00111
C 8.57336 0.73768 -0.02971
C 14.65192 4.27348 0.04892
C 15.98363 6.6005 -0.01581
C 13.46702 0.74586 0.03505
C 12.2454 0.0068 -0.02815
C 14.70147 32.6888 -0.04147
C 15.94517 31.93648 -0.05302
C 15.93361 30.56948 0.00213
C 14.73336 29.8253 -0.00066
C 14.76995 28.31885 -0.00289
C 15.9991 27.60615 0.00028
C 15.9945 17.61635 -0.02213
C 14.83091 16.89456 0.03698
C 14.66997 15.61398 -0.00109
C 15.93085 14.85804 -0.00491
C 15.92821 13.38018 0.03338
C 14.70272 12.67535 -0.0258
C 14.73807 11.23427 -0.0331
C 16.11142 10.40946 -0.00316
C 15.92155 8.99 0.02188
C 14.55838 8.46019 -0.01979
C 14.58254 7.05186 0.02691
C 15.97785 5.1371 0.01452
C 17.05059 4.30578 -0.00311
C 8.50395 2.1572 0.00165
C 7.27629 4.29461 -0.00891
C 3.5986 6.41867 -0.01303
C 3.56823 5.08045 -0.01378
C 2.37536 4.36654 0.02635
C 2.36114 2.92075 0.0127
C 3.57237 2.2536 0.01396
C 3.63359 0.76331 0.01849
C 2.37818 0.11644 -0.01142
C 4.8174 32.68437 -0.00562
C 2.43795 7.24348 0.00848
C 6.05216 31.99009 -0.00494
C 4.89837 29.84867 0.03007
C 4.87984 28.47369 -0.00095
C 6.1742 27.64397 0.01572
C 6.16716 26.23035 -0.04848
C 4.90254 25.65156 -0.00892
C 4.89321 24.20207 -0.01362
C 6.144 23.53813 -0.0008
C 6.13251 22.11451 0.0288
C 6.10413 30.56119 0.00054
C 2.44025 8.63836 -0.00049
C 3.69502 9.33897 0.00873
C 3.66991 10.75054 0.01227
C 3.64589 30.48695 0.0086
C 2.4088 29.8797 -0.00643
C 2.33573 28.46477 0.017
C 3.61036 27.81721 -0.03113
C 3.70166 26.35215 -0.02566
C 2.56264 25.56367 -0.00094
C 2.50777 24.19132 0.02322
C 3.68769 23.47158 -0.00725
C 3.65198 21.98261 -0.05697
C 2.41458 21.33984 0.01087
C 2.49375 19.93456 -0.01343
C 3.76507 19.25024 0.00988
C 3.84284 17.81008 0.0276
C 2.51197 17.08996 0.01305
C 2.50378 15.70707 -0.00077
C 3.65867 14.92614 0.03368
C 3.68485 13.52165 -0.02929
C 2.38729 12.84842 -0.00966
C 2.3713 11.37742 -0.03337
C 4.883 21.34419 0.00393
C 5.00862 19.88867 0.00895
C 6.3275 19.29888 0.00685
C 6.35802 17.93568 0.02888
C 8.67662 26.43203 -0.01062
C 7.54492 25.54681 -0.00033
C 7.41474 24.10161 0.03589
C 7.38313 21.52983 -0.02759
C 7.61621 20.03797 0.0402
C 8.74029 19.20753 0.00572
C 9.09359 17.85421 0.03592
C 7.66078 17.11606 0.00406
C 7.47246 15.69074 0.00943
C 8.69246 14.98721 0.02841
C 8.61579 13.53101 -0.01111
C 7.39601 12.86036 -0.01275
C 7.3452 11.43324 0.00985
C 8.58322 10.6965 -0.02245
C 8.56895 9.29143 -0.00428
C 7.29704 8.53814 0.03101
C 7.37981 7.15673 -0.01536
C 8.55342 6.38577 -0.02689
C 8.51441 4.97822 -0.01046
C 8.55857 27.84542 0.01364
C 7.32186 2.83866 0.02819
C 7.27686 28.50811 -0.00719
C 8.52833 30.67589 0.02339
C 5.05351 17.13401 -0.00482
C 4.95257 15.70796 -0.01384
C 6.19136 15.03038 0.03693
C 6.22198 13.53591 0.01745
C 4.99429 12.8674 0.00488
C 4.97585 11.3653 -0.01004
C 6.17094 10.66935 -0.02896
C 6.11881 9.27288 -0.00131
C 4.96666 8.54552 -0.01118
C 4.87303 7.10457 -0.014
C 6.13034 6.40964 0.02147
C 6.10546 5.00349 0.00373
C 4.74957 4.34681 -0.00191
C 4.814 2.95424 0.00438
C 6.08681 2.19094 0.01291
C 6.03138 0.74485 0.00093
C 4.80466 0.01655 0.00057
C 7.24084 32.69544 -0.01634
C 8.53231 32.07687 -0.00334
C 7.3179 29.90956 0.01641
C 17.28088 2.85377 0.00742
C 18.52513 2.24556 -0.01594
C 18.46734 0.78106 0.0106
C 29.42526 0.14453 0.00346
C 31.89534 32.71334 0.01713
C 33.10768 32.09926 -0.01694
C 33.13948 30.6445 0.01428
C 31.97117 29.88501 -0.02142
C 31.91395 28.48671 0.0544
C 33.15526 27.70622 0.00026
C 33.18234 26.31742 0.00682
C 30.617 0.88864 0.00307
C 31.96286 25.62352 -0.01779
C 33.19496 23.47665 0.01927
C 33.26135 22.10428 0.01574
C 31.9985 21.28884 -0.02383
C 31.99723 19.86692 -0.01429
C 33.25838 19.18251 -0.0136
C 33.16619 17.75289 0.00594
C 31.93132 17.04439 -0.02474
C 31.94248 15.59323 0.00369
C 31.97653 24.1782 0.03794
C 30.59052 2.29724 0.00716
C 29.26967 2.92322 0.02108
C 29.43774 4.38663 0.0103
C 30.71278 26.35654 -0.02049
C 29.55025 25.57608 -0.01854
C 29.46755 24.12694 -0.01415
C 30.77328 23.46991 -0.03039
C 30.78086 22.06506 0.01836
C 29.49765 21.20757 0.03531
C 29.47664 19.77708 -0.00669
C 30.73309 19.16882 0.0101
C 30.78346 17.77871 0.01705
C 29.46815 17.08896 -0.0405
C 29.50922 15.70189 -0.01303
C 30.69036 14.93434 -0.01461
C 30.71126 13.46738 -0.02155
C 29.47221 12.72941 -0.00944
C 29.38935 11.26619 -0.03735
C 30.65189 10.47806 -0.00971
C 30.69445 9.02865 0.01518
C 30.73922 6.57693 0.01908
C 30.5831 5.20494 0.07705
C 33.18028 14.90101 0.00455
C 33.15919 13.41749 -0.00644
C 31.94659 12.71393 -0.01839
C 31.89202 11.32198 0.00137
C 0.02812 19.88791 0.01951
C 1.29684 19.18533 -0.01678
C 1.26615 17.8201 0.01223
C 34.4038 17.15425 0.00648
C 34.42972 15.61463 0.02114
C 1.24475 15.02681 -0.02957
C 1.21716 13.60538 0.00343
C 34.4057 12.82469 -0.02656
C 34.33292 11.33227 -0.02442
C 1.13077 10.64789 -0.00027
C 1.12497 9.23649 -0.00583
C 34.35157 8.5172 -0.02302
C 0.00019 7.07967 -0.02849
C 1.30441 6.41085 0.02931
C 1.16004 4.99979 0.00628
C 34.35421 4.28173 -0.0345
C 34.24933 2.8672 -0.00931
C 1.05339 2.20619 -0.00939
C 1.15651 0.83699 -0.00468
C 0.06405 21.32822 -0.02213
C 30.72152 27.79353 0.03265
C 1.23657 22.03517 0.02712
C 0.07277 24.16081 0.03076
C 33.14489 10.59115 0.00199
C 33.17476 9.21289 0.04381
C 31.94905 8.50571 0.02806
C 31.9808 7.13543 0.01504
C 33.19493 6.38328 -0.00069
C 33.10301 5.02056 0.04926
C 31.85901 4.41252 -0.03838
C 31.78679 2.99694 0.00349
C 33.00749 2.20443 -0.00323
C 33.10849 0.78498 -0.00841
C 31.83928 0.08481 0.0001
C 34.34259 32.71153 -0.02927
C 1.11485 31.99964 -0.01404
C 1.20241 30.55894 0.01027
C 34.36015 29.87526 0.01831
C 34.35409 28.46562 -0.01037
C 1.1618 27.77666 -0.00439
C 1.23815 26.27788 -0.00598
C 34.37364 25.5266 -0.05239
C 1.25599 23.39652 0.00723
C 29.48987 28.4983 0.00261
C 29.48067 29.91343 0.02326
C 30.71538 30.57314 0.00924
C 22.0444 32.57404 -0.0055
C 23.25072 31.79293 0.01515
C 23.36264 30.3609 -0.00225
C 22.10486 29.63665 0.00071
C 22.04752 28.24682 -0.01107
C 23.35475 27.62942 -0.01586
C 23.2512 26.19824 -0.01971
C 21.94994 25.54383 -0.02118
C 22.11939 24.10337 0.00733
C 23.38475 23.41045 -0.00178
C 23.39797 21.87229 0.00768
C 22.14666 21.13156 -0.0276
C 22.08641 19.74824 0.03005
C 23.3572 19.14502 -0.04078
C 23.36121 17.74161 0.02117
C 22.11674 16.99653 0.02737
C 22.12133 15.49054 -0.00498
C 23.4185 14.78541 0.00135
C 22.08943 33.94188 0.03102
C 19.72265 34.04683 0.02734
C 24.4934 32.59977 0.02555
C 20.96427 0.48444 0.01153
C 20.74464 13.34183 -0.03213
C 17.19133 0.00505 -0.01154
C 19.60765 32.618 -0.01721
C 20.85401 31.87238 -0.02422
C 20.93439 30.49827 0.01277
C 19.72555 29.89095 0.00096
C 19.67153 28.39687 -0.01527
C 20.74501 27.48292 0.01087
C 20.58533 26.07302 0.00199
C 19.36736 25.19223 0.01511
C 19.76106 23.88254 -0.00478
C 21.03484 23.3355 -0.01662
C 20.98232 21.93638 -0.01185
C 19.61489 21.56577 0.01126
C 19.48605 20.00068 0.01852
C 20.8494 19.14957 -0.00381
C 20.84651 17.74186 0.03046
C 19.72703 16.88723 0.0296
C 19.60403 15.50107 0.03374
C 20.93246 14.73339 -0.02845
C 19.6313 12.67575 0.02239
C 3.52322 32.01315 -0.00518
C 25.73296 31.87547 0.01423
C 24.6099 29.7829 -0.009
C 28.30049 26.32967 0.00152
C 26.99964 25.56515 0.01257
C 26.97265 24.1556 0.02316
C 28.19951 23.43614 0.04185
C 28.28901 22.00467 0.00194
C 27.02054 21.29467 -0.00621
C 27.08002 19.86377 0.02611
C 28.25821 19.10744 0.02198
C 28.26673 17.74957 0.01094
C 27.06735 16.99402 0.00235
C 27.05726 15.60333 0.01495
C 28.30378 14.89758 0.01259
C 28.24426 13.50219 0.01799
C 27.06589 12.91403 0.01699
C 28.07103 2.12607 -0.00416
C 28.17712 0.69172 0.01177
C 26.92284 0.00755 0.04266
C 29.40263 32.76314 0.01324
C 30.66661 32.01904 0.0014
C 28.27779 27.76136 -0.00294
C 25.77809 30.48199 -0.00285
C 26.98711 28.40162 0.00826
C 28.21529 30.59423 -0.00942
C 24.55121 28.39494 -0.01199
C 25.85424 27.67151 -0.00229
C 25.70692 26.22165 -0.00938
C 24.56358 25.5186 -0.0264
C 24.50116 24.09649 -0.01154
C 25.77118 23.379 0.00684
C 25.76976 22.05665 -0.01052
C 24.62076 21.23778 -0.01679
C 24.59932 19.80826 0.00367
C 25.8177 19.14429 0.04306
C 25.78194 17.73051 0.00996
C 24.56581 16.94939 0.00195
C 24.56302 15.57299 -0.00802
C 25.81481 14.84708 -0.00218
C 25.88952 13.56179 -0.01654
C 25.66566 0.55432 -0.00037
C 24.55734 33.93683 -0.0032
C 26.97061 32.65775 0.00622
C 28.18631 32.03599 -0.02815
C 27.05271 29.86724 0.00487
C 2.34049 32.74948 -0.00074
