351
Graphene
C 0.01373 0.01688 0.01295
C 16.02523 22.01034 0.00228
C 15.96474 19.18479 0.00798
C 15.94319 17.81741 0.00422
C 14.77147 4.22474 0.0351
C 14.77441 2.83937 -0.03113
C 15.9944 2.1276 0.02098
C 15.96269 0.66994 0.01848
C 14.74407 34.07999 -0.00619
C 15.96607 23.36028 -0.00114
C 17.20567 32.66552 -0.02162
C 18.45517 30.56001 -0.00481
C 17.21758 29.7924 0.00979
C 17.25076 28.41117 0.01443
C 18.45963 27.65786 0.03505
C 18.42608 26.30885 -0.02815
C 17.23932 25.56462 -0.04147
C 17.21297 24.12842 -0.05302
C 18.40085 23.39835 0.00213
C 18.46995 31.92579 0.00889
C 18.4067 21.98791 -0.00066
C 14.74998 24.13539 -0.02696
C 15.99205 26.25114 -0.0108
C 13.51318 30.53295 0.0076
C 12.24761 29.84887 0.01241
C 12.32196 28.39574 -0.01454
C 13.53153 27.70969 0.01945
C 13.52719 26.30776 0.01416
C 12.283 25.57665 0.03542
C 13.57838 4.96714 0.02299
C 12.31825 4.24848 0.00244
C 14.78416 25.57193 -0.00368
C 12.31632 2.88576 -0.01717
C 13.49822 0.68998 -0.01952
C 12.27382 0.02447 -0.02813
C 14.77542 32.61261 0.00374
C 15.9752 31.93334 0.00052
C 16.02912 30.56127 -0.03682
C 14.81149 29.81721 0.01965
C 14.7503 28.33977 0.02058
C 15.96996 27.71198 -0.01957
C 13.5547 2.08898 0.05265
C 13.50158 31.94885 0.02162
C 17.22363 21.29552 -0.00289
C 18.51276 19.16482 -0.02213
C 20.91162 5.02119 0.00364
C 19.72064 4.28035 -0.00831
C 19.65478 2.90711 -0.02957
C 20.89276 2.16088 -0.04422
C 20.8941 0.70275 0.00654
C 19.6609 34.03345 -0.00703
C 22.16091 32.68118 -0.04076
C 23.40383 31.94993 -0.00652
C 19.64693 17.05137 -0.017
C 23.36256 30.53876 0.0058
C 22.16346 28.38933 0.00675
C 23.38773 27.72839 -0.00311
C 23.37633 26.24355 0.00742
C 22.17194 25.51874 -0.01594
C 22.15601 24.11576 0.0106
C 23.38089 23.41934 -0.01154
C 23.32127 22.01419 -0.01721
C 22.09553 21.28712 -0.02422
C 22.14194 29.78674 -0.00865
C 17.26903 19.86322 0.00028
C 20.90989 17.7532 0.00143
C 19.67205 19.86745 -0.0054
C 18.43709 17.76229 0.03698
C 17.1729 4.23173 -0.00109
C 17.20107 2.83534 -0.00491
C 18.41596 2.13023 0.03338
C 18.47699 0.69169 -0.0258
C 17.21738 34.06011 -0.0331
C 19.65285 32.69398 -0.00316
C 20.90614 31.97151 0.02188
C 20.92205 19.18715 0.00667
C 20.93235 30.5289 -0.01979
C 19.68788 28.3806 -0.01581
C 20.89402 27.67537 0.01452
C 20.90982 26.24685 0.04892
C 19.72455 25.58389 -0.00111
C 19.64752 24.11832 -0.03557
C 20.90949 23.44063 0.03754
C 20.89085 22.00535 0.01739
C 19.65584 21.28472 0.00755
C 19.65252 29.8536 0.02691
C 22.13652 19.87703 0.01277
C 12.33405 32.65773 -0.0014
C 11.05472 0.68222 -0.02162
C 2.4287 2.82013 0.01572
C 3.63496 2.11109 -0.04848
C 3.7082 0.68575 -0.00892
C 2.41294 34.0697 -0.01362
C 4.92231 32.68049 -0.0008
C 6.18826 31.96022 0.0288
C 6.14229 30.585 0.00393
C 4.94047 29.81012 0.00895
C 2.45005 4.24828 -0.00095
C 4.90783 28.42318 0.00685
C 6.13402 26.29444 -0.00482
C 4.92064 25.50641 -0.01384
C 6.14426 13.49496 0.03693
C 4.89309 12.77412 0.01745
C 4.88082 11.37135 0.00488
C 6.10661 10.66597 -0.01004
C 6.13612 9.29521 -0.02896
C 4.93894 8.51782 -0.00131
C 6.16451 27.68599 0.02888
C 4.94708 7.08558 -0.01118
C 3.69291 4.95446 0.03007
C 2.42681 7.09855 -0.00494
C 3.69665 30.56217 0.01305
C 2.44651 29.82433 -0.00077
C 2.44805 28.41155 0.03368
C 3.69475 27.69043 -0.02929
C 3.71796 26.24546 -0.00966
C 2.47419 25.56436 -0.03337
C 2.44319 24.13848 0.01227
C 2.53897 21.30372 0.00873
C 3.71077 6.37845 0.00054
C 2.43206 19.87462 -0.00049
C 2.47946 15.6805 -0.01303
C 3.69386 14.94564 -0.01378
C 3.72641 13.47277 0.02635
C 2.45482 12.80897 0.0127
C 2.48888 11.34554 0.01396
C 3.68037 10.65136 0.01849
C 3.74658 9.23135 -0.01142
C 2.39931 8.4735 -0.00562
C 2.43496 17.07905 0.00848
C 9.7872 0.0323 0.00415
C 6.12137 6.39573 -0.014
C 4.94293 4.29299 0.00373
C 8.60912 0.7069 -0.01275
C 7.40571 0.01075 0.00985
C 9.84968 32.69966 -0.02245
C 11.04936 31.98749 -0.00428
C 11.05633 30.5339 0.03101
C 9.79941 29.77322 -0.01536
C 9.82266 28.38163 -0.02689
C 11.11321 27.71767 -0.01046
C 8.60218 2.10436 -0.01111
C 11.1289 26.2757 -0.00891
C 9.84469 11.42204 0.00165
C 9.81471 8.54104 -0.02971
C 9.86867 7.09242 0.02894
C 11.08989 6.40548 -0.01789
C 11.07448 4.99331 0.00444
C 9.80423 4.20359 -0.00925
C 9.82924 2.82692 0.01877
C 11.06178 2.13825 0.01363
C 9.81361 12.73174 0.02819
C 6.14225 4.97059 0.02147
C 7.3613 2.87324 0.02841
C 8.58505 4.99784 0.00406
C 4.94014 2.83288 -0.00191
C 6.17282 2.14424 0.00438
C 6.12332 0.73759 0.01291
C 4.95619 0.01703 0.00093
C 7.37861 32.64876 0.00057
C 8.61777 31.97261 -0.01634
C 8.65149 30.56213 -0.00334
C 7.386 29.84281 0.02339
C 7.3465 4.27251 0.00943
C 7.41709 28.41097 0.01641
C 8.62103 13.52899 0.01364
C 7.39367 12.84939 -0.01062
C 7.38751 11.39125 -0.00033
C 8.57143 10.6941 0.03589
C 8.59357 9.23776 -0.02759
C 7.39069 8.53979 0.0402
C 7.32827 7.09548 0.00572
C 8.58468 6.43719 0.03592
C 8.64852 27.69672 -0.00719
C 3.67226 31.96718 0.0276
C 23.31865 19.16335 0.00096
C 22.13172 17.03206 0.01087
C 33.21969 31.95343 -0.01694
C 33.17594 30.52338 0.01428
C 31.95977 29.82716 -0.02142
C 31.99744 28.37892 0.0544
C 33.22165 27.69463 0.00026
C 33.16091 26.29973 0.00682
C 31.95092 25.55895 -0.01779
C 32.00941 24.18654 0.03794
C 31.9594 32.62408 0.01713
C 33.2197 23.42799 0.01927
C 31.97631 21.30544 -0.02383
C 31.98266 19.88578 -0.01429
C 33.19437 19.1982 -0.0136
C 33.1335 17.75877 0.00594
C 31.95117 17.05346 -0.02474
C 31.98409 15.5608 0.00369
C 33.22371 14.91315 0.00455
C 33.19976 13.47185 -0.00644
C 33.21994 22.0179 0.01574
C 31.95628 12.76702 -0.01839
C 29.51298 34.05607 0.00346
C 30.74223 2.12642 0.00716
C 29.57284 21.31705 -0.03039
C 29.53376 19.88711 0.01836
C 30.72738 19.14869 0.03531
C 30.74909 17.73239 -0.00669
C 29.49079 17.03587 0.0101
C 29.48531 15.6401 0.01705
C 30.80555 14.91909 -0.0405
C 30.75293 13.46842 -0.01303
C 30.78068 0.67739 0.00307
C 29.4974 12.80598 -0.01461
C 30.75148 10.63929 -0.00944
C 30.75304 9.26733 -0.03735
C 29.4929 8.51329 -0.00971
C 29.5208 7.0868 0.01518
C 30.74203 6.42656 0.01908
C 30.77747 5.0062 0.07705
C 29.49463 4.20497 0.0103
C 29.5431 2.83421 0.02108
C 29.54099 11.37117 -0.02155
C 30.7356 22.05534 -0.01415
C 31.9683 11.30701 0.00137
C 33.15114 9.24903 0.04381
C 1.27687 19.15865 -0.01678
C 1.2008 17.71152 0.01223
C 34.4156 17.02388 0.00648
C 34.40481 15.59683 0.02114
C 1.20403 14.92359 -0.02957
C 1.22546 13.50815 0.00343
C 0.00971 12.71733 -0.02656
C 34.43291 11.36475 -0.02442
C 34.4282 19.90817 0.01951
C 1.25308 10.67368 -0.00027
C 34.41889 8.48285 -0.02302
C 0.00129 7.10559 -0.02849
C 1.23592 6.34984 0.02931
C 1.2 4.94387 0.00628
C 0.00964 4.21523 -0.0345
C 0.0077 2.83534 -0.00931
C 1.24596 2.14803 -0.00939
C 1.26666 0.74688 -0.00468
C 1.2247 9.22147 -0.00583
C 33.20692 10.67008 0.00199
C 34.40304 21.31016 -0.02213
C 1.23216 23.45317 0.00723
C 31.98135 8.50302 0.02806
C 31.98033 7.14459 0.01504
C 33.21765 6.3929 -0.00069
C 33.18758 4.94674 0.04926
C 31.97488 4.28028 -0.03838
C 31.98252 2.87836 0.00349
C 33.21501 2.15064 -0.00323
C 33.17604 0.642 -0.00841
C 1.19143 22.01298 0.02712
C 31.97047 34.0794 0.0001
C 1.26648 31.96551 -0.01404
C 1.19845 30.50298 0.01027
C 34.39007 29.82037 0.01831
C 34.43237 28.40099 -0.01037
C 1.21526 27.65902 -0.00439
C 1.23651 26.23886 -0.00598
C 34.42913 25.62303 -0.05239
C 34.42558 24.17542 0.03076
C 34.43008 32.65399 -0.02927
C 23.35435 17.75072 -0.01527
C 30.72678 23.42856 -0.01854
C 29.47514 25.54485 0.03265
C 25.82645 23.45812 -0.01971
C 25.82928 21.97596 -0.02118
C 24.57374 21.30392 0.00733
C 24.56734 19.869 -0.00178
C 25.79798 19.18466 0.00768
C 25.81831 17.81059 -0.0276
C 24.57498 17.06189 0.03005
C 24.54742 15.59927 -0.04078
C 24.60381 24.15233 -0.01586
C 25.81541 14.92599 0.02117
C 24.63836 12.8163 -0.00498
C 24.58286 11.36565 0.00135
C 25.81854 10.62967 0.03102
C 25.79793 9.21343 0.02555
C 24.58274 8.56777 0.01423
C 24.60949 7.05129 -0.00285
C 25.82591 6.37313 -0.009
C 25.81267 4.93783 -0.01199
C 25.84308 13.51739 0.02737
C 24.5908 4.28398 -0.00229
C 24.55574 25.51084 -0.01107
C 25.79284 27.69574 -0.00225
C 22.1555 15.6098 0.00199
C 23.33476 14.86765 0.01511
C 23.35797 13.50018 -0.00478
C 23.3687 10.61598 -0.01662
C 23.36173 9.2299 -0.01185
C 22.19233 7.0828 0.01126
C 23.33557 6.35693 0.01852
C 23.38259 4.91836 -0.00381
C 25.79411 26.29106 0.00071
C 22.11641 4.24107 0.03046
C 23.36172 2.11152 0.03374
C 23.39198 0.68187 -0.02845
C 22.12678 0.00673 -0.03213
C 24.56068 32.71268 0.02239
C 25.81297 31.9339 0.01153
C 25.7871 30.46904 0.02734
C 24.56089 29.81649 -0.0055
C 24.61141 28.40272 0.01515
C 22.1655 2.83542 0.0296
C 29.46063 24.09281 -0.02049
C 24.58767 2.82925 -0.00938
C 25.86473 0.72249 -0.01154
C 28.2945 10.63928 0.00194
C 28.30553 9.21777 -0.00621
C 27.09013 8.508 0.02611
C 27.07305 7.09106 0.02198
C 28.29858 6.38349 0.01094
C 28.30585 4.93223 0.00235
C 27.01943 4.23511 0.01495
C 27.04923 2.86931 0.01259
C 27.08978 11.31569 0.04185
C 28.33429 2.09955 0.01799
C 27.04432 34.04615 -0.00416
C 29.4808 32.65054 0.01177
C 30.7756 31.93265 0.04266
C 30.73792 30.51737 0.01324
C 29.53979 29.81726 0.0014
C 29.49822 28.37704 0.00924
C 30.77064 27.67559 0.02326
C 30.74132 26.25402 0.00261
C 28.30807 0.70636 0.01699
C 25.82872 2.16187 -0.0264
C 27.04111 12.78039 0.02316
C 28.30226 14.85581 0.00152
C 24.57678 0.01171 0.00684
C 27.06075 32.63085 -0.01052
C 28.30466 31.96998 -0.01679
C 28.25817 30.54398 0.00367
C 27.07786 29.84934 0.04306
C 27.02374 28.41862 0.00996
C 28.28274 27.68297 0.00195
C 28.31096 26.2932 -0.00802
C 28.28481 13.53462 0.01257
C 27.05965 25.56519 -0.00218
C 28.29607 23.443 -0.00037
C 28.33198 22.02472 -0.0032
C 27.07193 21.28026 0.00622
C 27.01775 19.83523 -0.02815
C 28.30424 19.17494 -0.00942
C 28.26332 17.72021 0.00487
C 27.11573 17.06078 0.00826
C 27.02421 15.65476 -0.00294
C 27.05163 24.1418 -0.01654
C 2.45287 32.65884 0.00988
