401
Graphene
C 34.40232 34.03922 0.01295
C 12.20013 32.69788 0.00165
C 13.44646 31.9476 -0.02971
C 13.44456 30.59249 0.02894
C 12.22029 29.84003 -0.01789
C 12.10627 28.37096 0.00444
C 13.41657 27.74457 -0.00925
C 13.53636 26.32741 0.01877
C 12.2966 25.56079 0.01363
C 12.31922 24.21457 -0.02162
C 13.54468 23.48692 0.00415
C 13.53493 22.0535 -0.0014
C 12.32488 21.28986 0.02162
C 12.32337 19.79869 0.0076
C 13.56211 19.1798 0.01241
C 13.58625 17.75809 -0.01454
C 12.3375 17.07859 0.01945
C 12.24095 15.68021 0.01416
C 13.48639 15.00451 0.03542
C 13.39141 13.57116 0.02299
C 12.27634 12.77956 0.00244
C 12.34266 11.34812 -0.01717
C 9.75984 0.15861 0.02819
C 13.58974 10.57593 0.05265
C 10.98446 0.76378 -0.00891
C 9.7495 2.86105 -0.02689
C 9.79135 25.5418 0.02339
C 9.81071 24.15866 0.01641
C 11.02057 23.51384 -0.00719
C 11.09304 22.05147 0.01364
C 9.86421 21.26372 -0.01062
C 9.85664 19.8261 -0.00033
C 11.12491 19.07098 0.03589
C 11.09601 17.72749 -0.02759
C 9.8523 16.94623 0.0402
C 9.86769 15.60866 0.00572
C 11.09928 14.87428 0.03592
C 11.05872 13.49019 0.00406
C 9.79487 12.758 0.00943
C 9.83242 11.34871 0.02841
C 11.10638 10.65609 -0.01111
C 11.09802 9.26481 -0.01275
C 9.89092 8.53491 0.00985
C 9.82188 7.15999 -0.02245
C 11.08083 6.43547 -0.00428
C 11.10798 5.03876 0.03101
C 9.83901 4.33071 -0.01536
C 11.04263 2.13937 -0.01046
C 11.0102 26.2955 -0.00334
C 13.60868 9.21977 -0.01952
C 12.35093 7.15576 0.00374
C 15.99996 13.4321 -0.05302
C 14.78404 12.8452 0.00213
C 14.83261 11.388 -0.00066
C 16.00528 10.63129 -0.00289
C 15.99599 9.27374 0.00028
C 14.77787 8.50209 -0.02213
C 14.82703 7.17512 0.03698
C 15.99365 6.41181 -0.00109
C 15.98982 4.97989 -0.00491
C 14.76872 4.27046 0.03338
C 14.78604 2.88461 -0.0258
C 15.9609 2.20981 -0.0331
C 15.92836 0.76474 -0.00316
C 14.62039 0.04639 0.02188
C 17.11692 32.63616 -0.01979
C 18.41636 31.93817 0.02691
C 18.36014 30.51906 -0.01581
C 17.15306 29.79517 0.01452
C 17.12999 28.448 0.04892
C 18.36963 27.64465 -0.00111
C 18.33579 26.30216 -0.03557
C 16.06455 14.87212 -0.04147
C 12.3162 8.46331 -0.02813
C 14.7934 15.63953 -0.02815
C 16.06184 17.63696 0.01443
C 13.58561 6.41579 0.00052
C 13.55551 4.98117 -0.03682
C 12.31708 4.32785 0.01965
C 12.32539 2.92661 0.02058
C 13.51506 2.19105 -0.01957
C 13.42437 0.7804 -0.0108
C 12.20423 0.01818 -0.00368
C 14.63278 32.66766 -0.02696
C 15.87221 31.90316 -0.00114
C 15.9272 30.45259 0.00228
C 14.65783 29.88453 0.00798
C 14.63954 28.45099 0.00422
C 15.9032 27.72134 0.0351
C 15.95178 26.30705 -0.03113
C 14.78568 25.58305 0.02098
C 14.72876 24.18434 0.01848
C 16.01784 23.41907 -0.00619
C 16.02626 21.95471 -0.02162
C 14.73017 21.3259 0.00889
C 14.83136 19.82143 -0.00481
C 16.09228 19.15508 0.00979
C 14.82591 17.10901 0.03505
C 10.89511 27.71032 -0.01634
C 9.73068 28.39741 0.00057
C 9.79563 29.8748 0.00093
C 2.42362 4.35861 0.02374
C 2.40225 2.92052 0.00402
C 3.62048 2.17673 0.0073
C 3.66243 0.75544 0.0174
C 2.43683 0.01183 0.03828
C 4.83226 32.87923 0.01226
C 6.04474 31.95901 -0.00279
C 6.0582 30.57987 0.01996
C 4.78957 29.87079 -0.03996
C 4.83075 28.41559 0.01465
C 6.1114 27.76068 -0.00074
C 6.1554 26.36392 -0.00518
C 4.87598 25.57922 0.0086
C 4.86795 24.08524 -0.00643
C 6.14394 23.4524 0.017
C 6.13773 22.0604 -0.03113
C 4.90838 21.36921 -0.02566
C 4.88647 19.90515 -0.00094
C 6.11601 19.12829 0.02322
C 6.19419 17.78962 -0.00725
C 4.90502 17.05274 -0.05697
C 3.65254 5.11082 0.03267
C 4.76708 15.59191 0.01087
C 3.68242 6.49374 -0.01509
C 2.3608 8.58231 0.00907
C 3.64244 30.57794 -0.00039
C 2.33674 29.81698 0.0064
C 2.44054 28.41498 0.00211
C 3.57104 27.61297 -0.00449
C 3.61924 26.20906 -0.01979
C 2.3789 25.48233 0.02784
C 2.4327 24.0242 -0.01977
C 3.65357 23.44584 -0.00561
C 3.60129 21.97563 0.00208
C 2.47241 21.24292 0.01707
C 2.47054 19.84008 0.02769
C 3.66278 19.1019 -0.03291
C 3.64171 17.74869 -0.04999
C 2.40404 17.04253 0.04505
C 2.31168 15.64869 0.03284
C 3.55939 14.90704 -0.04307
C 3.67153 13.50211 0.03189
C 2.39637 12.78963 0.00031
C 2.31575 11.39592 -0.003
C 3.55918 10.69456 0.01402
C 3.61049 9.27602 0.02379
C 2.35751 7.14999 0.00643
C 6.10113 14.97225 -0.01343
C 6.08964 13.48825 0.00988
C 4.8875 12.81315 0.0276
C 8.65719 17.72958 -0.0008
C 7.40415 17.05248 0.0288
C 7.36089 15.65808 0.00393
C 8.5964 14.88522 0.00895
C 8.54929 13.47453 0.00685
C 7.30715 12.77067 0.02888
C 7.37143 11.37338 -0.00482
C 8.55292 10.5979 -0.01384
C 8.63585 9.23888 0.03693
C 7.39895 8.55594 0.01745
C 7.34607 7.16017 0.00488
C 8.58633 6.50609 -0.01004
C 8.64392 5.03238 -0.02896
C 7.30471 4.42588 -0.00131
C 7.2271 2.97145 -0.01118
C 8.48101 2.25748 -0.014
C 8.54689 0.79481 0.02147
C 7.31127 0.07899 0.00373
C 9.73795 32.78652 -0.00191
C 10.91964 32.11009 0.00438
C 11.03111 30.61726 0.01291
C 8.57246 19.12924 -0.01362
C 7.29984 19.86065 -0.00892
C 7.39864 21.30971 -0.04848
C 8.6568 21.94766 0.01572
C 4.82172 11.40783 0.01305
C 6.08141 10.65743 -0.00077
C 6.14839 9.26209 0.03368
C 4.83976 8.62131 -0.02929
C 4.82692 7.23981 -0.00966
C 6.09144 6.4976 -0.03337
C 6.12956 5.04901 0.01227
C 4.8652 4.3595 0.00873
C 4.80488 2.88891 -0.00049
C 6.03531 2.29652 0.00848
C 17.17458 25.56293 0.03754
C 6.09478 0.8403 -0.01303
C 7.20818 32.7542 0.02635
C 8.51539 32.03347 0.0127
C 8.65122 30.61472 0.01396
C 7.34702 29.90051 0.01849
C 7.35343 28.4982 -0.01142
C 8.52315 27.73384 -0.00562
C 8.5545 26.34942 -0.00494
C 7.28608 25.56044 0.00054
C 7.36192 24.17563 0.03007
C 8.59097 23.48756 -0.00095
C 4.88136 0.09584 -0.01378
C 3.60723 32.01941 0.02728
C 17.25333 24.13546 0.01739
C 18.51677 21.94917 -0.0054
C 30.63631 27.61709 0.01518
C 30.64786 26.12831 0.01908
C 29.40943 25.48025 0.07705
C 29.44976 24.07383 0.0103
C 30.67217 23.31174 0.02108
C 30.76857 21.96811 0.00716
C 30.97917 9.35207 0.00307
C 29.64382 8.76818 0.00346
C 29.52521 7.21715 0.01713
C 30.67633 6.43119 -0.01694
C 30.66307 5.00674 0.01428
C 29.45415 4.22618 -0.02142
C 29.38783 2.8073 0.0544
C 30.66556 2.16065 0.00026
C 30.67604 0.76338 0.00682
C 29.47176 34.07792 -0.01779
C 31.9897 32.60871 0.03794
C 33.18068 31.91984 0.01927
C 33.14672 30.42307 0.01574
C 31.86628 29.74866 -0.02383
C 31.8928 28.3648 -0.01429
C 29.39921 28.31663 -0.00971
C 33.11289 27.65557 -0.0136
C 29.4334 29.72207 -0.03735
C 30.7152 31.93495 -0.02155
C 28.21455 31.96009 -0.00416
C 28.19929 30.54763 0.01177
C 26.95701 29.85577 0.04266
C 26.97614 28.37301 0.01324
C 28.20819 27.6302 0.0014
C 28.19666 26.25437 0.00924
C 27.03476 25.56258 0.02326
C 27.0417 24.13935 0.00261
C 28.14425 23.21931 0.03265
C 28.11272 21.89897 -0.02049
C 28.39261 9.28036 -0.01854
C 27.07047 8.7475 -0.01415
C 27.07844 7.2007 -0.03039
C 28.28732 6.49795 0.01836
C 28.34419 5.06855 0.03531
C 27.03353 4.36242 -0.00669
C 26.98347 2.88954 0.0101
C 28.17905 2.10205 0.01705
C 28.18604 0.64388 -0.0405
C 26.99301 0.01593 -0.01303
C 29.42736 32.5951 -0.01461
C 30.70047 30.47925 -0.00944
C 26.99526 32.62855 0.01699
C 33.16042 26.27814 0.00594
C 31.97339 24.04095 0.00369
C 1.20172 21.8604 0.02712
C 34.34335 21.17614 -0.02213
C 34.31645 19.75403 0.01951
C 1.22335 19.18353 -0.01678
C 1.18804 17.81477 0.01223
C 34.21289 17.18714 0.00648
C 34.39579 15.91291 0.02114
C 1.0711 14.95956 -0.02957
C 1.10462 13.50183 0.00343
C 34.2618 12.92427 -0.02656
C 34.19931 11.39685 -0.02442
C 1.01746 10.76517 -0.00027
C 1.16411 9.39355 -0.00583
C 34.4209 8.59646 -0.02302
C 34.39534 7.14491 -0.02849
C 1.18705 6.40661 0.02931
C 1.16921 4.95073 0.00628
C 34.37199 4.29111 -0.0345
C 0.00686 2.81223 -0.00931
C 1.22088 2.11495 -0.00939
C 1.19799 0.73791 -0.00468
C 1.19843 23.32425 0.00723
C 31.8885 25.42349 -0.02474
C 0.01939 24.07481 0.03076
C 1.13886 26.25388 -0.00598
C 33.17904 23.35153 0.00455
C 33.12527 21.82752 -0.00644
C 31.90063 21.2783 -0.01839
C 33.39548 18.77135 0.00137
C 33.09813 10.6094 0.00199
C 33.24491 9.27442 0.04381
C 32.04336 8.54698 0.02806
C 31.88943 7.10095 0.01504
C 33.17822 6.41605 -0.00069
C 33.20657 5.02096 0.04926
C 31.95807 4.38214 -0.03838
C 31.89099 2.90144 0.00349
C 33.18255 2.10026 -0.00323
C 33.13784 0.6961 -0.00841
C 31.90616 0.00658 0.0001
C 34.38368 32.66376 -0.02927
C 1.1658 31.96142 -0.01404
C 1.09819 30.55637 0.01027
C 34.36606 29.78796 0.01831
C 34.40693 28.33743 -0.01037
C 1.17244 27.6636 -0.00439
C 34.33702 25.54442 -0.05239
C 24.61411 0.04326 0.01799
C 25.81967 0.75515 0.01259
C 25.76144 2.20957 0.01495
C 19.62428 28.38135 0.00199
C 20.87773 27.68729 0.01511
C 20.75363 26.29503 -0.00478
C 19.53707 25.57327 -0.01662
C 19.72876 24.13667 -0.01185
C 20.9609 23.43428 0.01126
C 20.97015 21.99656 0.01852
C 19.77879 21.25982 -0.00381
C 19.87729 19.86085 0.03046
C 21.07991 19.10086 0.0296
C 21.03774 17.66041 0.03374
C 19.77213 16.99215 -0.02845
C 19.73853 15.63692 -0.03213
C 20.8271 14.81604 0.02239
C 20.93848 13.39047 0.01153
C 19.76492 12.80255 0.02734
C 19.61309 11.34466 -0.0055
C 20.93395 10.66645 0.01515
C 20.85368 9.24051 -0.00225
C 19.67164 8.50136 0.00071
C 19.72387 7.19811 -0.01107
C 19.55313 29.74623 0.01087
C 20.89589 6.4455 -0.01586
C 20.82885 30.4697 -0.01527
C 19.61946 32.69615 0.01277
C 17.23368 21.24885 0.00667
C 17.34555 19.88767 0.00143
C 18.63011 19.16632 -0.017
C 18.47374 17.72507 0.00364
C 17.30566 16.96063 -0.00831
C 17.2502 15.63354 -0.02957
C 18.44875 14.92661 -0.04422
C 18.3704 13.52986 0.00654
C 17.15683 12.76776 -0.00703
C 17.19128 11.31853 -0.04076
C 18.37178 10.59629 -0.00652
C 18.43372 9.1727 0.0058
C 17.26085 8.49037 -0.00865
C 17.29546 7.1171 0.00675
C 18.53612 6.38896 -0.00311
C 18.43849 5.03602 0.00742
C 17.16772 4.32149 -0.01594
C 17.30307 2.88926 0.0106
C 18.44338 2.08443 -0.01154
C 18.37076 0.73408 -0.01721
C 17.02809 34.07155 -0.02422
C 20.87162 31.90486 0.00096
C 20.84987 5.04476 -0.01971
C 19.64915 4.33947 -0.02118
C 19.74026 2.9223 0.00733
C 23.41242 0.73663 -0.00802
C 22.10849 34.03033 -0.00218
C 24.52084 32.64788 -0.01654
C 25.7282 31.98055 -0.00037
C 25.7521 30.54568 -0.0032
C 24.53159 29.80008 0.00622
C 24.53464 28.37235 -0.02815
C 25.74595 27.64539 -0.00942
C 25.77627 26.13649 0.00487
C 24.54988 25.44696 0.00826
C 24.66452 24.08575 -0.00294
C 25.83709 23.41235 0.00152
C 25.90767 21.92276 0.01257
C 24.69188 21.35816 0.02316
C 25.78267 9.40175 0.04185
C 24.69686 8.57599 0.00194
C 24.6124 7.11383 -0.00621
C 25.86153 6.49913 0.02611
C 25.83954 5.08194 0.02198
C 24.63393 4.28462 0.01094
C 24.57245 2.91665 0.00235
C 23.43391 2.15701 0.00195
C 22.13799 2.88037 0.00996
C 22.06231 4.2663 0.04306
C 23.37511 4.89439 0.00367
C 20.88875 2.17048 -0.00178
C 20.83859 0.73155 0.00768
C 19.52594 34.03869 -0.0276
C 21.97353 32.61907 0.03005
C 23.23218 31.95004 -0.04078
C 23.3393 30.49391 0.02117
C 22.04882 29.79314 0.02737
C 22.07209 28.37116 -0.00498
C 23.29847 27.57491 0.00135
C 23.29001 26.19017 0.03102
C 18.52014 23.3836 0.00755
C 22.0219 25.55498 0.02555
C 23.48144 23.36097 -0.00285
C 23.42498 21.94028 -0.009
C 22.20574 21.26931 -0.01199
C 22.2921 19.80531 -0.00229
C 22.12904 11.25876 -0.00938
C 23.29639 10.652 -0.0264
C 23.41107 9.27333 -0.01154
C 22.21875 8.55815 0.00684
C 22.15917 7.1145 -0.01052
C 23.45203 6.33052 -0.01679
C 22.20165 24.11796 0.01423
C 2.39268 32.71413 0.00245
