336
Graphene
C 34.41989 0.03632 0.01295
C 17.32072 8.60889 -0.00481
C 17.21328 7.14344 0.00979
C 18.50593 6.48911 0.01443
C 18.46017 5.01299 0.03505
C 17.245 4.32952 -0.02815
C 17.2578 2.86095 -0.04147
C 18.40345 2.07187 -0.05302
C 18.38828 0.64146 0.00213
C 17.13389 34.03527 -0.00066
C 19.66427 32.61426 -0.00289
C 20.92587 31.94855 0.00028
C 20.97127 30.53268 -0.02213
C 19.74114 29.84929 0.03698
C 19.73119 28.37919 -0.00109
C 20.85362 27.65938 -0.00491
C 20.83779 26.28857 0.03338
C 19.8198 25.31988 -0.0258
C 18.50368 9.30484 0.00889
C 19.79841 24.13425 -0.0331
C 18.48077 10.70018 -0.02162
C 18.34227 19.26297 0.01848
C 14.63047 32.64831 -0.02813
C 15.88274 31.91335 0.00374
C 15.96825 30.5342 0.00052
C 16.00735 9.24541 -0.03682
C 14.9857 8.58138 0.01965
C 14.73873 7.1384 0.02058
C 15.99497 6.48507 -0.01957
C 16.01155 5.08745 -0.0108
C 14.81887 4.33443 -0.00368
C 14.79204 2.88213 -0.02696
C 15.97696 2.09342 -0.00114
C 15.93677 0.69964 0.00228
C 14.68669 0.01045 0.00798
C 17.1094 32.63194 0.00422
C 18.48335 31.83715 0.0351
C 18.46932 30.41852 -0.03113
C 17.28776 29.9885 0.02098
C 18.33626 13.26935 -0.00619
C 12.25898 34.05467 -0.01952
C 20.92124 23.17798 -0.00316
C 19.3843 21.18818 -0.01979
C 23.36534 31.96392 0.0058
C 23.44207 30.52116 -0.00865
C 22.17895 29.87355 0.00675
C 22.13051 28.38715 -0.00311
C 23.34574 27.69592 0.00742
C 23.30647 26.21852 -0.01594
C 22.08675 25.52591 0.0106
C 22.14092 24.08185 -0.01154
C 23.38511 23.43287 -0.01721
C 23.28907 21.98514 -0.02422
C 22.09085 21.24121 0.01277
C 22.09834 19.84817 0.00096
C 23.39016 19.21402 -0.01527
C 23.2715 17.74672 0.01087
C 22.02142 17.04219 0.00199
C 22.01046 15.66909 0.01511
C 23.28992 14.9538 -0.00478
C 22.13773 32.63557 -0.00652
C 20.78003 21.77595 0.02188
C 19.6515 34.02819 -0.04076
C 20.85778 2.08909 0.00654
C 19.65191 19.82966 0.02691
C 20.8924 19.13917 -0.01581
C 20.83575 17.765 0.01452
C 19.5491 17.0916 0.04892
C 19.60171 15.797 -0.00111
C 20.74846 14.99429 -0.03557
C 20.82097 13.62112 0.03754
C 19.657 12.73609 0.01739
C 19.6467 11.36659 0.00755
C 20.87618 10.67136 -0.0054
C 20.91722 9.28315 0.00667
C 19.74444 8.56852 0.00143
C 19.66978 7.1851 -0.017
C 20.86225 6.47101 0.00364
C 20.93308 4.91597 -0.00831
C 19.64943 4.21882 -0.02957
C 19.63396 2.74548 -0.04422
C 20.86537 0.61237 -0.00703
C 23.34282 13.53346 -0.01662
C 13.51284 0.76592 0.05265
C 12.30896 2.9536 0.00244
C 2.46939 4.21369 0.00488
C 2.3816 2.80477 -0.01004
C 3.65599 2.09696 -0.02896
C 3.66703 0.68347 -0.00131
C 2.39727 34.05932 -0.01118
C 4.89347 32.58772 -0.014
C 6.1716 31.979 0.02147
C 6.11603 30.56239 0.00373
C 4.89492 29.82433 -0.00191
C 4.98825 28.35441 0.00438
C 6.15055 27.70473 0.01291
C 6.16255 26.28458 0.00093
C 4.92227 25.60986 0.00057
C 4.88607 24.20087 -0.01634
C 6.2368 23.83424 -0.00334
C 4.84126 8.46289 0.02339
C 4.83119 7.07857 0.01641
C 3.67545 4.90582 0.01745
C 6.10556 6.29657 -0.00719
C 3.62574 6.33667 0.03693
C 2.49386 8.59945 -0.00482
C 3.64558 30.53185 0.01849
C 2.44198 29.89216 -0.01142
C 2.40331 28.44247 -0.00562
C 3.67035 27.70797 -0.00494
C 3.69725 26.30523 0.00054
C 2.38891 25.63881 0.03007
C 2.46296 24.20856 -0.00095
C 3.66395 23.51244 0.01572
C 3.60298 22.11332 -0.04848
C 2.61594 21.13953 -0.00892
C 2.54304 19.71638 -0.01362
C 2.25665 16.83962 -0.0008
C 2.52612 15.60568 0.0288
C 2.43372 12.75587 0.00393
C 2.38752 11.30175 0.00895
C 3.5815 10.6913 0.00685
C 3.88038 9.38103 0.02888
C 2.45315 7.16692 -0.01384
C 13.54074 2.27035 -0.01717
C 6.09409 4.87723 0.01364
C 4.87136 2.79923 -0.00033
C 10.9822 30.41577 0.02894
C 9.7718 29.75002 -0.01789
C 9.78508 7.24374 0.00444
C 11.0537 6.73241 -0.00925
C 11.06077 5.19587 0.01877
C 9.90411 4.42459 0.01363
C 9.84822 2.93346 -0.02162
C 11.06201 2.23706 0.00415
C 11.06486 0.73836 -0.0014
C 9.77923 34.07245 0.02162
C 12.2212 32.55252 0.0076
C 13.44547 31.9201 0.01241
C 13.35784 30.40218 -0.01454
C 12.36307 7.03867 0.01945
C 13.52959 6.4696 0.01416
C 13.53921 5.03706 0.03542
C 12.32144 4.42679 0.02299
C 11.00205 31.8416 -0.02971
C 4.88828 4.22268 -0.01062
C 9.82763 32.62573 0.00165
C 8.57367 0.68973 -0.00891
C 6.16298 2.12896 0.03589
C 6.08788 0.68835 -0.02759
C 4.89786 34.03456 0.0402
C 7.36903 32.63359 0.00572
C 8.56912 31.94322 0.03592
C 8.62602 30.48829 0.00406
C 7.38161 29.8161 0.00943
C 7.43147 28.43274 0.02841
C 8.6825 27.73986 -0.01111
C 7.49694 25.86607 -0.01275
C 7.3657 24.38305 0.00985
C 7.26664 7.08958 -0.02245
C 8.55116 6.56756 -0.00428
C 8.60964 5.05355 0.03101
C 7.38807 4.25724 -0.01536
C 7.40983 2.85971 -0.02689
C 8.64035 2.14657 -0.01046
C 7.32677 34.03594 0.02819
C 22.06423 12.91207 -0.01185
C 22.08666 11.43555 0.01126
C 23.30484 10.70673 0.01852
C 31.95426 28.37506 0.0544
C 33.16313 27.72172 0.00026
C 33.1712 26.26385 0.00682
C 31.96221 25.54554 -0.01779
C 31.92843 24.15846 0.03794
C 33.21506 23.43726 0.01927
C 33.26206 21.96196 0.01574
C 31.98368 21.26001 -0.02383
C 32.01615 19.8389 -0.01429
C 33.21094 19.14349 -0.0136
C 33.16457 17.77174 0.00594
C 31.89354 17.06657 -0.02474
C 31.9258 15.63183 0.00369
C 33.26089 14.96809 0.00455
C 33.23242 13.52152 -0.00644
C 31.93316 12.8357 -0.01839
C 31.94451 11.37974 0.00137
C 31.97261 29.78683 -0.02142
C 33.15089 10.6665 0.00199
C 33.19524 30.55996 0.01428
C 31.94094 32.69115 0.01713
C 29.4581 17.04693 0.0101
C 29.46223 15.61177 0.01705
C 30.70991 14.90149 -0.0405
C 30.70509 13.48986 -0.01303
C 29.46395 12.737 -0.01461
C 29.40594 11.33388 -0.02155
C 30.68199 10.65985 -0.00944
C 30.65841 9.30203 -0.03735
C 29.37146 8.5141 -0.00971
C 29.48856 7.05318 0.01518
C 30.75926 6.4153 0.01908
C 30.7551 4.99072 0.07705
C 29.5152 4.2691 0.0103
C 29.49217 2.85089 0.02108
C 30.69174 2.1173 0.00716
C 30.69519 0.67916 0.00307
C 29.46541 34.06385 0.00346
C 33.20097 31.99084 -0.01694
C 30.71251 17.7917 -0.00669
C 33.18188 9.22763 0.04381
C 31.9613 7.08609 0.01504
C 1.19673 17.82805 0.01223
C 0.02877 17.04947 0.00648
C 0.08908 15.65684 0.02114
C 1.31 14.90629 -0.02957
C 1.29057 13.53656 0.00343
C 0.02837 12.82378 -0.02656
C 34.41748 11.41688 -0.02442
C 1.14324 10.65093 -0.00027
C 1.25553 9.163 -0.00583
C 34.40665 8.51457 -0.02302
C 0.00713 7.08966 -0.02849
C 1.19918 6.44842 0.02931
C 1.26143 5.00602 0.00628
C 34.3696 4.249 -0.0345
C 34.41266 2.86143 -0.00931
C 1.21456 2.1565 -0.00939
C 1.17697 0.74126 -0.00468
C 1.25588 19.19842 -0.01678
C 31.94028 8.49486 0.02806
C 34.40382 19.86119 0.01951
C 1.33621 21.96236 0.02712
C 33.17199 6.39158 -0.00069
C 33.12524 4.96738 0.04926
C 31.89293 4.26994 -0.03838
C 31.93352 2.88425 0.00349
C 33.15359 2.17679 -0.00323
C 33.14003 0.69759 -0.00841
C 31.94506 0.01435 0.0001
C 34.37882 32.67952 -0.02927
C 1.20384 31.96225 -0.01404
C 1.20282 30.52871 0.01027
C 0.00201 29.84857 0.01831
C 34.42123 28.46106 -0.01037
C 1.21548 27.71583 -0.00439
C 1.17826 26.34613 -0.00598
C 0.00166 25.61408 -0.05239
C 0.02103 24.13561 0.03076
C 1.29041 23.40647 0.00723
C 0.06586 21.27739 -0.02213
C 30.71028 19.1694 0.03531
C 29.48476 19.85961 0.01836
C 29.50936 21.31805 -0.03039
C 24.55501 21.30567 0.03005
C 24.61403 19.86025 -0.04078
C 25.83669 19.15947 0.02117
C 25.77463 17.73658 0.02737
C 24.523 17.08562 -0.00498
C 24.54617 15.62771 0.00135
C 25.79429 14.94232 0.03102
C 25.81338 13.4781 0.02555
C 24.60438 12.85196 0.01423
C 24.60022 11.41413 -0.00285
C 25.78197 10.70096 -0.009
C 25.80698 9.20018 -0.01199
C 24.47542 8.41182 -0.00229
C 25.8875 4.91772 -0.00938
C 24.55896 4.28702 -0.0264
C 24.57185 2.87475 -0.01154
C 25.76938 2.1452 0.00684
C 25.78791 22.02745 -0.0276
C 25.78705 0.69567 -0.01052
C 25.79542 23.42335 0.00768
C 24.51592 25.65505 0.00733
C 23.37254 9.2624 -0.00381
C 22.12808 8.56839 0.03046
C 22.08624 7.18743 0.0296
C 23.37337 6.56288 0.03374
C 23.4014 5.08286 -0.02845
C 22.17719 4.22278 -0.03213
C 22.09477 2.8957 0.02239
C 23.36655 2.14977 0.01153
C 23.28616 0.72296 0.02734
C 22.13146 34.03749 -0.0055
C 24.64005 32.65057 0.01515
C 25.84153 31.85241 -0.00225
C 25.89133 30.46358 0.00071
C 24.65767 29.76357 -0.01107
C 24.62477 28.30653 -0.01586
C 25.81913 27.65925 -0.01971
C 25.7974 26.22115 -0.02118
C 24.60861 24.15988 -0.00178
C 24.62119 0.00749 -0.01679
C 27.03285 32.67379 0.00367
C 28.2887 31.91215 0.04306
C 28.31814 4.94548 0.00235
C 27.07878 4.22646 0.01495
C 27.02556 2.83999 0.01259
C 28.24162 2.06856 0.01799
C 28.22491 0.64885 0.01699
C 27.02018 34.05573 -0.00416
C 29.43073 32.69239 0.01177
C 30.7858 31.95702 0.04266
C 30.72144 30.58442 0.01324
C 29.5115 29.78169 0.0014
C 29.49348 28.33591 0.00924
C 30.72884 27.68868 0.02326
C 30.72551 26.2796 0.00261
C 29.5671 25.51577 0.03265
C 29.52516 24.0524 -0.02049
C 30.73149 23.40518 -0.01854
C 30.72152 21.99563 -0.01415
C 28.33069 6.34085 0.01094
C 28.11927 9.25394 0.02198
C 28.16362 10.66257 0.02611
C 26.99537 11.40923 -0.00621
C 28.23662 30.49328 0.00996
C 27.10793 29.66073 0.00195
C 27.05838 28.29887 -0.00802
C 28.2336 27.61815 -0.00218
C 28.27962 26.16809 -0.01654
C 27.0302 25.5042 -0.00037
C 27.10327 24.11759 -0.0032
C 28.30222 23.39826 0.00622
C 3.67609 31.90973 0.01396
C 28.27111 21.9849 -0.02815
C 26.99461 19.89878 0.00487
C 28.1969 19.18091 0.00826
C 28.22832 17.76827 -0.00294
C 26.96858 17.08645 0.00152
C 27.01947 15.67466 0.01257
C 28.18165 14.92056 0.02316
C 28.2468 13.45161 0.04185
C 27.00091 12.75121 0.00194
C 27.03597 21.30599 -0.00942
C 2.42803 32.6587 0.0127
