368
Graphene
C 34.37433 34.05462 0.01295
C 17.20627 28.43972 -0.01952
C 18.39367 27.78443 -0.02813
C 18.36954 26.30391 0.00374
C 17.14354 25.59582 0.00052
C 17.21049 24.22594 -0.03682
C 18.41264 23.46185 0.01965
C 18.39948 22.00112 0.02058
C 17.15422 21.34948 -0.01957
C 17.1526 19.87367 -0.0108
C 18.34135 19.09469 -0.00368
C 18.45245 17.73711 -0.02696
C 17.18033 17.02013 -0.00114
C 17.13733 15.58672 0.00228
C 18.29921 14.76822 0.00798
C 18.40925 13.24147 0.00422
C 17.36571 12.22581 0.0351
C 18.24678 10.97528 -0.03113
C 18.29016 9.39173 0.02098
C 17.25594 8.31107 0.01848
C 17.20833 29.88986 0.05265
C 17.2077 7.05519 -0.00619
C 18.44287 30.58976 -0.01717
C 17.20563 32.69186 0.02299
C 14.61148 29.80574 0.02819
C 14.68664 28.35541 0.00165
C 15.96375 27.68248 -0.02971
C 15.90731 26.29449 0.02894
C 14.76632 25.50595 -0.01789
C 14.84394 24.12668 0.00444
C 16.0009 23.40595 -0.00925
C 15.92696 22.02858 0.01877
C 14.69363 21.41196 0.01363
C 14.83866 19.93881 -0.02162
C 16.00038 19.25081 0.00415
C 16.01582 17.79578 -0.0014
C 14.76967 17.03548 0.02162
C 16.13768 4.97691 0.0076
C 15.06852 4.33624 0.01241
C 14.83908 2.8054 -0.01454
C 16.04151 2.19384 0.01945
C 16.06361 0.72008 0.01416
C 14.77828 0.04226 0.03542
C 18.47294 31.96786 0.00244
C 16.00865 30.58587 -0.00891
C 18.4502 6.28548 -0.02162
C 17.36971 4.2294 -0.00481
C 19.76605 12.70261 0.04892
C 19.72151 11.26362 -0.00111
C 20.91614 10.58644 -0.03557
C 20.8558 9.20452 0.03754
C 19.62104 8.61582 0.01739
C 19.65126 7.0691 0.00755
C 20.87713 6.4143 -0.0054
C 20.89991 4.99893 0.00667
C 19.76897 4.17216 0.00143
C 19.71606 2.84653 -0.017
C 20.84382 2.07759 0.00364
C 20.87355 0.71407 -0.00831
C 19.64397 34.00975 -0.02957
C 22.07099 32.59626 -0.04422
C 23.26492 31.90448 0.00654
C 23.34281 30.4631 -0.00703
C 22.11555 29.75863 -0.04076
C 22.10348 28.39571 -0.00652
C 23.28699 27.73162 0.0058
C 20.88785 13.39568 0.01452
C 18.5498 4.8665 0.00889
C 20.90764 14.86808 -0.01581
C 19.62748 17.0198 -0.01979
C 17.2419 2.85893 0.00979
C 18.4454 2.09575 0.01443
C 18.4523 0.70961 0.03505
C 17.23658 0.02005 -0.02815
C 19.64811 32.63652 -0.04147
C 20.86963 31.90518 -0.05302
C 20.89691 30.53353 0.00213
C 19.64055 29.87424 -0.00066
C 19.62808 28.44335 -0.00289
C 20.87408 27.6808 0.00028
C 20.90576 26.264 -0.02213
C 19.60699 25.47605 0.03698
C 19.56666 24.10438 -0.00109
C 20.79017 23.43368 -0.00491
C 20.87502 22.02947 0.03338
C 19.61497 21.26133 -0.0258
C 19.60074 19.87637 -0.0331
C 20.89079 19.16413 -0.00316
C 20.88533 17.74083 0.02188
C 19.68125 15.44858 0.02691
C 23.31 26.25088 -0.00865
C 15.9783 31.99444 -0.01046
C 12.25417 0.06025 -0.01536
C 6.11707 30.55486 0.01227
C 4.88201 29.81871 0.00873
C 4.85418 28.4523 -0.00049
C 6.19481 27.68575 0.00848
C 6.1091 26.28415 -0.01303
C 4.8767 25.61459 -0.01378
C 4.85872 24.20043 0.02635
C 6.13778 23.4596 0.0127
C 6.11361 22.12227 0.01396
C 4.90885 21.37809 0.01849
C 4.90129 19.92231 -0.01142
C 6.17077 19.31318 -0.00562
C 5.88895 17.96303 -0.00494
C 5.02603 17.09679 0.00054
C 4.66236 3.21866 0.03007
C 5.97954 2.456 -0.00095
C 6.0807 0.95542 0.01572
C 4.94181 0.11099 -0.04848
C 7.38148 32.82993 -0.00892
C 6.22711 31.96665 -0.03337
C 8.56263 32.00465 -0.01362
C 4.97587 32.69193 -0.00966
C 3.7563 0.67854 0.03368
C 3.72784 30.61661 -0.03996
C 2.36104 29.90764 0.01465
C 2.38569 28.46529 -0.00074
C 3.58864 27.74423 -0.00518
C 3.61273 26.30229 0.0086
C 2.46105 25.6483 -0.00643
C 2.36711 24.1366 0.017
C 3.61516 23.412 -0.03113
C 3.66534 22.01463 -0.02566
C 2.49316 21.27119 -0.00094
C 2.44739 19.85827 0.02322
C 3.73501 19.16995 -0.00725
C 3.60925 17.76713 -0.05697
C 2.4305 17.06927 0.01087
C 2.38753 15.69579 -0.01343
C 3.99898 4.62825 0.00988
C 2.60522 4.37992 0.0276
C 2.36123 2.84287 0.01305
C 3.66771 2.24382 -0.00077
C 2.48267 0.05872 -0.02929
C 14.67912 32.71964 -0.02689
C 8.60041 30.57931 -0.0008
C 7.38346 28.42178 0.00393
C 9.88155 20.00449 0.01641
C 11.0847 19.56894 -0.00719
C 11.10446 2.13714 0.01364
C 10.94295 0.67608 -0.01062
C 9.78937 34.00573 -0.00033
C 12.21443 32.72806 0.03589
C 13.4874 31.98996 -0.02759
C 13.48583 30.5287 0.0402
C 12.22678 29.95018 0.00572
C 12.2667 28.40768 0.03592
C 13.44211 27.65706 0.00406
C 13.47034 26.22761 0.00943
C 12.21331 25.57996 0.02841
C 12.32484 19.46027 -0.01111
C 13.61009 19.27753 -0.01275
C 13.80143 17.82439 0.00985
C 12.12182 2.73121 -0.02245
C 13.53174 2.17149 -0.00428
C 13.55925 0.72769 0.03101
C 9.41853 21.24055 0.02339
C 7.34766 29.92 0.0288
C 9.89871 24.19343 -0.00334
C 11.10348 26.3591 0.00057
C 8.58804 27.70875 0.00895
C 8.47323 26.30867 0.00685
C 7.35758 25.58525 0.02888
C 7.40133 24.19691 -0.00482
C 8.67456 23.49671 -0.01384
C 8.47478 22.09209 0.03693
C 7.25646 21.47928 0.01745
C 7.3023 20.08517 0.00488
C 8.56266 19.50843 -0.01004
C 7.44691 2.74873 -0.02896
C 8.54596 2.32865 -0.00131
C 8.56668 0.73725 -0.01118
C 7.31601 0.16846 -0.014
C 9.80035 32.62081 0.02147
C 11.0415 32.01597 0.00373
C 11.06062 30.57461 -0.00191
C 9.75872 29.82707 0.00438
C 9.85186 28.39973 0.01291
C 11.1267 27.71056 0.00093
C 9.79374 25.61766 -0.01634
C 22.08437 25.56623 0.00675
C 22.02357 24.13359 -0.00311
C 23.26143 23.38276 0.00742
C 30.66198 0.66836 0.00307
C 29.35212 0.00982 0.00346
C 31.88166 32.7229 0.01713
C 33.1499 31.97792 -0.01694
C 33.19786 30.5904 0.01428
C 31.88082 29.90493 -0.02142
C 31.87515 28.47345 0.0544
C 33.13628 27.71957 0.00026
C 33.1764 26.36177 0.00682
C 31.87038 25.55764 -0.01779
C 31.926 24.14397 0.03794
C 33.18452 23.41866 0.01927
C 33.22097 22.03359 0.01574
C 31.97614 21.28983 -0.02383
C 31.96735 19.83856 -0.01429
C 33.19451 19.19103 -0.0136
C 33.21684 17.70065 0.00594
C 31.94866 17.00749 -0.02474
C 31.9411 15.62636 0.00369
C 30.63301 2.17236 0.00716
C 33.21281 14.89252 0.00455
C 29.4716 2.84479 0.02108
C 30.72072 4.91976 0.07705
C 29.43515 25.53492 0.03265
C 29.4761 24.14706 -0.02049
C 30.68891 23.41813 -0.01854
C 30.72531 22.01666 -0.01415
C 29.45888 21.31185 -0.03039
C 29.522 19.93911 0.01836
C 30.7478 19.16541 0.03531
C 30.73943 17.71309 -0.00669
C 29.54709 17.05123 0.0101
C 29.55662 15.65583 0.01705
C 30.75506 14.92337 -0.0405
C 30.75469 13.45761 -0.01303
C 29.54271 12.77332 -0.01461
C 29.51457 11.31429 -0.02155
C 30.73144 10.66491 -0.00944
C 30.77545 9.23332 -0.03735
C 29.56868 8.48366 -0.00971
C 29.51379 7.03235 0.01518
C 30.78925 6.36124 0.01908
C 29.48283 4.25278 0.0103
C 30.67755 26.26666 0.00261
C 33.16958 13.53509 -0.00644
C 32.0572 11.36126 0.00137
C 34.38528 19.9481 0.01951
C 1.16175 19.23748 -0.01678
C 1.29232 17.80139 0.01223
C 34.42929 16.9796 0.00648
C 34.42177 15.55529 0.02114
C 1.25765 14.80522 -0.02957
C 1.08725 13.39899 0.00343
C 34.36972 12.84575 -0.02656
C 34.39272 11.4198 -0.02442
C 1.18487 10.66873 -0.00027
C 0.95389 9.5 -0.00583
C 34.37547 8.51281 -0.02302
C 0.04677 7.04091 -0.02849
C 1.25559 6.39036 0.02931
C 1.38111 5.00372 0.00628
C 0.05496 4.29204 -0.0345
C 0.04121 2.93801 -0.00931
C 1.21351 2.1173 -0.00939
C 1.21881 0.70709 -0.00468
C 34.42449 21.32536 -0.02213
C 31.98619 12.73629 -0.01839
C 1.26136 22.01553 0.02712
C 0.0258 24.14885 0.03076
C 33.1875 10.66533 0.00199
C 33.17437 9.2638 0.04381
C 32.0141 8.53591 0.02806
C 32.00147 7.07915 0.01504
C 33.21934 6.3418 -0.00069
C 33.21944 5.02376 0.04926
C 31.91371 4.2881 -0.03838
C 31.91204 2.80314 0.00349
C 33.23561 2.18966 -0.00323
C 33.18289 0.76301 -0.00841
C 31.91809 0.09701 0.0001
C 34.36078 32.65897 -0.02927
C 1.20138 31.99855 -0.01404
C 1.21579 30.63482 0.01027
C 34.4296 29.92794 0.01831
C 34.37577 28.46037 -0.01037
C 1.14216 27.77215 -0.00439
C 1.23268 26.29942 -0.00598
C 0.00067 25.61137 -0.05239
C 1.18558 23.44781 0.00723
C 30.67702 27.76579 0.02326
C 29.38856 28.41102 0.00924
C 29.29697 29.84907 0.0014
C 25.76007 31.91331 0.01153
C 25.76323 30.51062 0.02734
C 24.54091 29.78233 -0.0055
C 24.53115 28.30592 0.01515
C 25.73431 27.65474 -0.00225
C 25.74285 26.21107 0.00071
C 24.52992 25.50559 -0.01107
C 24.49191 24.05439 -0.01586
C 25.68335 23.36855 -0.01971
C 25.67644 22.02918 -0.02118
C 24.54599 21.28474 0.00733
C 24.57237 19.83453 -0.00178
C 25.80416 19.1214 0.00768
C 25.78384 17.65374 -0.0276
C 24.59309 16.94194 0.03005
C 24.64475 15.56123 -0.04078
C 25.7897 14.84933 0.02117
C 25.76588 13.43373 0.02737
C 24.52885 12.70309 -0.00498
C 24.54138 32.63548 0.02239
C 24.60259 11.29092 0.00135
C 22.14862 34.04196 -0.03213
C 23.34109 2.17293 0.03374
C 23.25023 21.95914 -0.01594
C 22.03446 21.32162 0.0106
C 22.0919 19.89032 -0.01154
C 23.31581 19.15843 -0.01721
C 23.39258 17.66466 -0.02422
C 22.14002 16.94327 0.01277
C 22.17216 15.55822 0.00096
C 23.38527 14.76586 -0.01527
C 23.35844 13.429 0.01087
C 22.1031 12.72208 0.00199
C 22.13356 11.2935 0.01511
C 23.36032 10.55882 -0.00478
C 23.3617 9.17588 -0.01662
C 22.07969 8.52069 -0.01185
C 22.14268 7.05168 0.01126
C 23.35364 6.37922 0.01852
C 23.33542 5.00021 -0.00381
C 22.17729 4.28215 0.03046
C 22.1168 2.8411 0.0296
C 23.3065 0.65761 -0.02845
C 25.81524 10.60963 0.03102
C 25.87729 9.24478 0.02555
C 24.61237 8.51682 0.01423
C 27.07439 15.54004 -0.00294
C 28.3015 14.86742 0.00152
C 28.28253 13.43931 0.01257
C 27.04852 12.76201 0.02316
C 27.05467 11.36005 0.04185
C 28.30656 10.68616 0.00194
C 28.33128 9.21033 -0.00621
C 27.05982 8.46589 0.02611
C 26.98286 7.10459 0.02198
C 28.25601 6.36976 0.01094
C 28.22296 4.98362 0.00235
C 27.05189 4.21908 0.01495
C 27.0458 2.85432 0.01259
C 28.22765 2.19569 0.01799
C 28.13792 0.73698 0.01699
C 26.98331 34.06969 -0.00416
C 29.40012 32.72487 0.01177
C 30.64903 31.96595 0.04266
C 30.67397 30.5553 0.01324
C 27.05438 16.98955 0.00826
C 28.28418 17.7231 0.00487
C 28.29117 19.11226 -0.00942
C 27.09884 19.82556 -0.02815
C 24.55463 7.11858 -0.00285
C 25.85692 6.3646 -0.009
C 25.83615 4.94024 -0.01199
C 24.65123 4.24257 -0.00229
C 24.56514 2.82278 -0.00938
C 25.78517 2.11119 -0.0264
C 25.71257 0.72908 -0.01154
C 24.57922 0.00976 0.00684
C 27.00492 32.658 -0.01052
C 3.73545 31.9942 0.01996
C 28.12459 31.98764 -0.01679
C 26.9487 29.82006 0.04306
C 26.97731 28.39361 0.00996
C 28.14 27.60871 0.00195
C 28.20866 26.23511 -0.00802
C 27.00866 25.53171 -0.00218
C 27.02563 24.10881 -0.01654
C 28.25356 23.44529 -0.00037
C 28.22322 21.96764 -0.0032
C 26.99842 21.22763 0.00622
C 28.15707 30.59245 0.00367
C 2.44779 32.70219 -0.00279
