369
Graphene
C 34.3558 34.03291 0.01295
C 13.52097 10.69418 -0.01952
C 13.5694 9.20205 -0.02813
C 12.31447 8.55176 0.00374
C 12.33886 7.17155 0.00052
C 13.56688 6.37671 -0.03682
C 13.5434 4.95785 0.01965
C 12.37657 4.28276 0.02058
C 12.2933 2.79404 -0.01957
C 13.53677 2.13958 -0.0108
C 13.57224 0.65483 -0.00368
C 12.28912 34.04713 -0.02696
C 14.87316 32.58982 -0.00114
C 16.09491 31.95259 0.00228
C 15.95915 30.52088 0.00798
C 14.76704 29.73601 0.00422
C 14.71121 28.37779 0.0351
C 15.91244 27.63957 -0.03113
C 15.99096 26.12771 0.02098
C 14.69734 25.40279 0.01848
C 12.39162 11.32488 0.05265
C 15.83721 13.53285 -0.00619
C 12.26352 12.6617 -0.01717
C 13.52228 26.03533 0.02299
C 9.97812 12.92779 0.02819
C 9.87881 11.4793 0.00165
C 11.05813 10.69547 -0.02971
C 11.05313 9.28089 0.02894
C 9.857 8.55471 -0.01789
C 9.9141 7.14363 0.00444
C 11.13488 6.45361 -0.00925
C 11.11252 5.00294 0.01877
C 9.87392 4.26492 0.01363
C 9.7854 2.89245 -0.02162
C 10.99097 2.06734 0.00415
C 11.04134 0.73646 -0.0014
C 9.79641 0.03099 0.02162
C 12.37961 32.64422 0.0076
C 13.56567 31.93895 0.01241
C 13.52356 30.53952 -0.01454
C 12.22092 29.79622 0.01945
C 12.20876 28.40112 0.01416
C 13.52103 27.65295 0.03542
C 12.20318 25.6819 0.00244
C 11.17756 13.39229 -0.00891
C 14.75316 12.73949 -0.02162
C 15.94496 10.73925 -0.00481
C 17.1623 11.43004 0.04892
C 18.39959 10.63223 -0.00111
C 18.44063 9.26186 -0.03557
C 17.18095 8.57457 0.03754
C 17.25927 7.06686 0.01739
C 18.44353 6.35047 0.00755
C 18.48972 4.89839 -0.0054
C 17.20128 4.22782 0.00667
C 17.23645 2.84999 0.00143
C 18.4885 2.09809 -0.017
C 18.48008 0.75004 0.00364
C 17.21412 0.00206 -0.00831
C 19.68882 32.5911 -0.02957
C 20.90208 31.97253 -0.04422
C 20.85433 30.49008 0.00654
C 19.58164 29.78004 -0.00703
C 19.58059 28.38139 -0.04076
C 20.85381 27.70637 -0.00652
C 20.8703 26.20334 0.0058
C 17.05091 12.96415 0.01452
C 14.74537 11.43371 0.00889
C 18.34969 13.43199 -0.01581
C 18.46671 23.61135 -0.01979
C 15.98277 9.27931 0.00979
C 14.74779 8.59145 0.01443
C 14.80848 7.14062 0.03505
C 16.03915 6.42415 -0.02815
C 16.00769 4.98805 -0.04147
C 14.76309 4.23996 -0.05302
C 14.76107 2.79233 0.00213
C 15.99944 2.11282 -0.00066
C 15.99654 0.66561 -0.00289
C 14.80504 33.95673 0.00028
C 17.27459 32.65029 -0.02213
C 18.48131 31.91961 0.03698
C 18.38865 30.49053 -0.00109
C 17.18439 29.75921 -0.00491
C 17.12028 28.35588 0.03338
C 18.40397 27.66618 -0.0258
C 18.35601 26.24516 -0.0331
C 17.15044 25.4606 -0.00316
C 17.23514 24.13458 0.02188
C 18.45273 14.84957 0.02691
C 9.64954 24.12804 -0.01046
C 9.81194 25.49496 -0.02689
C 11.07172 26.26564 -0.01536
C 2.50545 2.86339 -0.03337
C 3.73125 2.20501 0.01227
C 3.67108 0.79675 0.00873
C 2.41161 0.11356 -0.00049
C 4.88772 32.79375 0.00848
C 6.07602 32.01892 -0.01303
C 6.07219 30.61556 -0.01378
C 4.7907 24.01346 0.02635
C 6.06577 23.44239 0.0127
C 6.15832 22.02103 0.01396
C 4.88853 21.35385 0.01849
C 4.94262 19.91364 -0.01142
C 6.22836 19.17161 -0.00562
C 6.22822 17.83796 -0.00494
C 4.93818 17.05663 0.00054
C 4.88276 15.66372 0.03007
C 6.16058 15.01157 -0.00095
C 6.18783 13.55297 0.01572
C 4.8549 12.85339 -0.04848
C 2.46492 4.2807 -0.00966
C 4.9188 11.46181 -0.00892
C 3.67944 4.99663 -0.02929
C 2.46702 7.11958 -0.00077
C 3.7001 30.44354 0.01996
C 2.53109 29.85709 -0.03996
C 2.54709 25.6053 0.01465
C 2.39602 24.18199 -0.00074
C 3.60422 23.46076 -0.00518
C 3.66623 21.9839 0.0086
C 2.47764 21.27448 -0.00643
C 2.4783 19.87698 0.017
C 3.74643 19.13375 -0.03113
C 3.67239 17.73941 -0.02566
C 2.49457 17.07504 -0.00094
C 2.39719 15.67322 0.02322
C 3.72034 14.97386 -0.00725
C 3.63944 13.49016 -0.05697
C 2.42057 12.81092 0.01087
C 2.42287 11.41399 -0.01343
C 3.6239 10.65011 0.00988
C 3.66292 9.27055 0.0276
C 2.41569 8.47239 0.01305
C 3.67869 6.36982 0.03368
C 6.13563 10.68501 -0.01362
C 6.12398 9.28711 -0.0008
C 4.9529 8.53836 0.0288
C 7.33305 12.8409 0.01641
C 7.37029 11.4004 -0.00719
C 8.66613 10.74604 0.01364
C 8.64562 9.25819 -0.01062
C 7.3503 8.56113 -0.00033
C 7.41806 7.1973 0.03589
C 8.58326 6.48719 -0.02759
C 8.61799 5.0554 0.0402
C 7.46372 4.23133 0.00572
C 7.42922 2.91909 0.03592
C 8.59442 2.10892 0.00406
C 8.56664 0.65257 0.00943
C 7.29175 0.0886 0.02841
C 9.8688 32.70806 -0.01111
C 11.13061 31.99018 -0.01275
C 11.0287 30.56167 0.00985
C 9.74494 29.93783 -0.02245
C 9.82935 28.42692 -0.00428
C 11.00994 27.66166 0.03101
C 8.54486 13.5467 0.02339
C 8.53782 14.88684 -0.00334
C 7.51864 15.77331 -0.01634
C 7.41607 17.10696 0.00057
C 4.91443 7.09302 0.00393
C 6.2068 6.41344 0.00895
C 6.19435 5.04435 0.00685
C 4.91435 4.38736 0.02888
C 4.95277 3.00508 -0.00482
C 6.09147 2.19989 -0.01384
C 6.06133 0.76748 0.03693
C 4.82212 0.09405 0.01745
C 7.31248 32.68239 0.00488
C 19.63969 25.60362 -0.00865
C 8.59815 31.98091 -0.01004
C 7.16979 29.81806 -0.00131
C 7.34725 28.44336 -0.01118
C 8.5913 27.74325 -0.014
C 8.61721 26.28167 0.02147
C 7.42613 25.55641 0.00373
C 7.24559 24.21988 -0.00191
C 8.40789 23.63753 0.00438
C 7.20668 21.26101 0.01291
C 7.35231 19.92812 0.00093
C 8.57919 30.53135 -0.02896
C 3.77151 31.91224 -0.00279
C 19.61272 24.09718 0.00675
C 20.73208 21.93994 0.00742
C 30.69564 0.70386 0.00307
C 29.50295 0.03331 0.00346
C 31.9422 32.70627 0.01713
C 33.18418 31.9568 -0.01694
C 33.13379 30.57838 0.01428
C 31.87995 29.82119 -0.02142
C 31.91314 28.43656 0.0544
C 33.17414 27.73786 0.00026
C 33.25618 26.35562 0.00682
C 31.97163 25.59415 -0.01779
C 31.97521 24.21658 0.03794
C 33.19163 23.45744 0.01927
C 33.22296 22.01428 0.01574
C 31.95213 21.3199 -0.02383
C 31.97112 19.83695 -0.01429
C 33.24249 19.1728 -0.0136
C 33.15992 17.73787 0.00594
C 31.90934 16.97858 -0.02474
C 31.98247 15.58169 0.00369
C 30.75937 2.111 0.00716
C 33.08824 14.92132 0.00455
C 29.52882 2.79877 0.02108
C 30.76514 4.9103 0.07705
C 30.7388 32.00489 0.03265
C 30.65823 30.59377 -0.02049
C 29.51702 29.85112 -0.01854
C 29.51939 28.43244 -0.01415
C 30.71782 27.66539 -0.03039
C 30.71354 26.24555 0.01836
C 29.56326 25.60076 0.03531
C 29.56126 24.15336 -0.00669
C 30.77085 23.40263 0.0101
C 30.74118 21.97558 0.01705
C 29.45075 21.33168 -0.0405
C 29.51063 19.8022 -0.01303
C 30.70015 19.12666 -0.01461
C 30.69776 17.67223 -0.02155
C 29.43855 17.18161 -0.00944
C 30.67066 9.09856 -0.03735
C 29.47302 8.5794 -0.00971
C 29.47828 7.21112 0.01518
C 30.67035 6.42471 0.01908
C 29.54572 4.1876 0.0103
C 29.51191 32.66345 0.00261
C 33.0466 13.4836 -0.00644
C 31.86719 11.34563 0.00137
C 0.03628 19.84233 0.01951
C 1.24599 19.13441 -0.01678
C 1.25938 17.7144 0.01223
C 34.38042 17.05912 0.00648
C 34.36853 15.62575 0.02114
C 1.20291 14.98078 -0.02957
C 1.18201 13.55879 0.00343
C 34.42462 12.83801 -0.02656
C 34.34927 11.34474 -0.02442
C 1.23247 10.67338 -0.00027
C 1.2341 9.26289 -0.00583
C 0.02483 8.56664 -0.02302
C 0.07454 7.11083 -0.02849
C 1.27566 6.35961 0.02931
C 1.24026 4.98058 0.00628
C 34.383 4.29102 -0.0345
C 34.41067 2.85974 -0.00931
C 1.20612 2.07968 -0.00939
C 1.20903 0.77769 -0.00468
C 0.07592 21.31378 -0.02213
C 32.09777 12.58766 -0.01839
C 1.21033 22.01227 0.02712
C 0.0133 24.18923 0.03076
C 33.17044 10.59493 0.00199
C 33.14357 9.2203 0.04381
C 31.89327 8.52374 0.02806
C 31.92971 7.13783 0.01504
C 33.27387 6.45319 -0.00069
C 33.18644 5.05986 0.04926
C 31.99719 4.29856 -0.03838
C 32.0117 2.88357 0.00349
C 33.24476 2.15863 -0.00323
C 33.18358 0.69989 -0.00841
C 31.89884 0.00506 0.0001
C 34.4042 32.68388 -0.02927
C 1.29732 32.02017 -0.01404
C 1.28571 30.55427 0.01027
C 34.35407 29.97317 0.01831
C 34.40491 28.51039 -0.01037
C 1.20954 27.82386 -0.00439
C 1.39576 26.37885 -0.00598
C 0.00508 25.56549 -0.05239
C 1.18509 23.44271 0.00723
C 27.01826 34.03919 0.02326
C 28.24682 0.72585 0.00924
C 28.34491 2.09959 0.0014
C 23.2459 30.57901 0.01153
C 22.05505 29.79678 0.02734
C 22.11025 28.45198 -0.0055
C 23.30004 27.65159 0.01515
C 23.36121 26.20761 -0.00225
C 22.05855 25.48346 0.00071
C 22.01095 24.08379 -0.01107
C 23.31496 23.41272 -0.01586
C 23.29187 21.95382 -0.01971
C 22.00101 21.18313 -0.02118
C 22.03966 19.82259 0.00733
C 23.33119 19.12009 -0.00178
C 23.39896 17.77914 0.00768
C 22.34974 16.89332 -0.0276
C 21.98058 15.56851 0.03005
C 22.12442 8.29126 -0.04078
C 22.08952 6.98079 0.02117
C 23.37041 6.28606 0.02737
C 23.40876 4.87042 -0.00498
C 23.3299 32.0069 0.02239
C 22.12369 4.19794 0.00135
C 22.1789 32.70116 -0.03213
C 20.98137 0.64315 0.03374
C 19.60927 21.19208 -0.01594
C 19.65522 19.86053 0.0106
C 20.82703 19.08041 -0.01154
C 20.87791 17.71247 -0.01721
C 19.8241 16.93119 -0.02422
C 19.16552 15.88459 0.01277
C 21.15612 14.72236 0.00096
C 20.80339 13.44327 -0.01527
C 19.65286 12.7005 0.01087
C 19.68497 11.28708 0.00199
C 20.91942 10.61263 0.01511
C 21.03526 9.17589 -0.00478
C 19.70922 8.44974 -0.01662
C 19.64327 7.08237 -0.01185
C 20.90986 6.31154 0.01126
C 20.95645 4.88313 0.01852
C 19.70171 4.26397 -0.00381
C 19.72629 2.83344 0.03046
C 21.00524 2.07583 0.0296
C 19.68503 34.0154 -0.02845
C 22.16085 2.76645 0.03102
C 23.41261 2.15347 0.02555
C 23.41786 0.75784 0.01423
C 28.3439 31.95036 -0.00294
C 28.29509 30.49944 0.00152
C 27.04953 29.826 0.01257
C 27.02762 28.38401 0.02316
C 28.29663 27.66058 0.04185
C 28.33181 26.21731 0.00194
C 27.05416 25.60533 -0.00621
C 27.0755 24.10411 0.02611
C 28.29451 23.44048 0.02198
C 28.24465 21.99306 0.01094
C 26.97782 21.36605 0.00235
C 26.93319 19.90805 0.01495
C 28.16778 19.15409 0.01259
C 28.25207 17.87744 0.01799
C 27.03543 7.1086 0.01699
C 28.30614 6.40795 -0.00416
C 28.38684 5.01296 0.01177
C 27.11676 4.22049 0.04266
C 27.06097 2.82085 0.01324
C 27.01175 32.65366 0.00826
C 24.69419 0.00619 0.00487
C 25.81948 0.67994 -0.00942
C 25.88337 2.12813 -0.02815
C 22.10412 0.02643 -0.00285
C 24.60373 32.6105 -0.009
C 25.81092 31.92665 -0.01199
C 25.77372 30.48323 -0.00229
C 24.51906 29.82733 -0.00938
C 24.53132 28.38139 -0.0264
C 25.78659 27.70296 -0.01154
C 25.83411 26.25875 0.00684
C 24.53418 25.54478 -0.01052
C 20.88415 23.37258 -0.00311
C 24.51814 24.09162 -0.01679
C 25.74357 21.99855 0.04306
C 24.5215 21.30554 0.00996
C 24.53029 19.8688 0.00195
C 25.71349 19.26449 -0.00802
C 24.52293 6.98548 -0.00218
C 25.84962 6.52212 -0.01654
C 25.81858 5.0143 -0.00037
C 24.58839 4.1958 -0.0032
C 24.65057 2.82378 0.00622
C 25.76656 23.40701 0.00367
C 2.49116 32.63713 0.01226
