346
Graphene
C 0.03367 34.00834 0.01295
C 12.09753 8.34185 -0.03113
C 12.28708 7.02483 0.02098
C 13.53299 6.32415 0.01848
C 13.5117 4.93157 -0.00619
C 12.23032 4.3292 -0.02162
C 12.20875 2.85558 0.00889
C 13.46104 2.14677 -0.00481
C 13.45919 0.81828 0.00979
C 12.2216 0.04054 0.01443
C 14.68196 32.80322 0.03505
C 15.90942 32.04187 -0.02815
C 15.95227 30.60098 -0.04147
C 14.719 29.96281 -0.05302
C 14.81081 28.48652 0.00213
C 15.81818 27.59796 -0.00066
C 14.43841 12.81486 -0.00289
C 14.46985 11.43898 0.00028
C 13.2345 9.12931 0.0351
C 13.15117 10.62697 0.00422
C 12.03177 11.2782 0.00798
C 12.006 12.42505 0.00228
C 11.05379 6.3599 0.01416
C 11.03839 5.08228 0.03542
C 9.82955 4.36022 0.02299
C 9.86752 2.91721 0.00244
C 10.96449 2.08921 -0.01717
C 10.96433 0.70527 0.05265
C 9.74591 34.02801 -0.01952
C 12.17577 32.8007 -0.02813
C 15.7913 10.75994 -0.02213
C 13.47383 32.08476 0.00374
C 12.33659 29.9775 -0.03682
C 12.35092 28.54906 0.01965
C 13.54855 27.86745 0.02058
C 13.72009 26.47569 -0.01957
C 12.54718 25.61459 -0.0108
C 12.35909 24.35001 -0.00368
C 13.75065 14.93061 -0.02696
C 13.18799 13.12644 -0.00114
C 13.4851 30.6948 0.00052
C 9.84728 7.31909 0.01945
C 15.72847 9.27148 0.03698
C 14.65793 6.9414 -0.00491
C 18.46925 2.17365 -0.04422
C 18.4193 0.67849 0.00654
C 17.21595 34.01506 -0.00703
C 19.62571 32.57533 -0.04076
C 20.86249 31.87528 -0.00652
C 20.8415 30.43474 0.0058
C 19.62928 29.67921 -0.00865
C 19.59117 28.14221 0.00675
C 20.86781 27.71302 -0.00311
C 19.5785 11.29122 0.00742
C 20.88472 10.88597 -0.01594
C 20.82594 9.36281 0.0106
C 19.58553 8.6849 -0.01154
C 19.624 7.18031 -0.01721
C 20.87118 6.50242 -0.02422
C 20.90687 5.04609 0.01277
C 19.67033 4.31603 0.00096
C 17.18517 2.86304 -0.02957
C 17.30128 4.29823 -0.00831
C 18.43512 5.06744 0.00364
C 18.43805 6.46501 -0.017
C 15.91787 6.44962 0.03338
C 16.02907 4.98175 -0.0258
C 14.76128 4.2584 -0.0331
C 14.76979 2.84312 -0.00316
C 16.0628 2.13651 0.02188
C 15.96523 0.71549 -0.01979
C 14.68949 0.12914 0.02691
C 17.16036 32.57385 -0.01581
C 14.61204 8.40163 -0.00109
C 18.43508 31.82014 0.01452
C 17.1464 29.79854 -0.00111
C 17.13537 28.26038 -0.03557
C 18.34996 27.7868 0.03754
C 17.04945 11.38306 0.01739
C 18.32117 10.86298 0.00755
C 18.30904 9.28483 -0.0054
C 17.08106 8.6434 0.00667
C 17.14666 7.17056 0.00143
C 18.34453 30.33972 0.04892
C 10.66744 8.49908 -0.01454
C 9.65603 17.21637 0.01241
C 10.82739 17.85496 0.0076
C 3.68809 0.66781 0.0288
C 2.44831 34.04819 0.00393
C 4.93852 32.71022 0.00895
C 6.07558 31.9338 0.00685
C 6.13501 30.51108 0.02888
C 4.91262 29.77919 -0.00482
C 4.86994 28.39411 -0.01384
C 6.1314 27.71423 0.03693
C 6.23656 26.31277 0.01745
C 4.96695 25.57348 0.00488
C 4.88887 24.18568 -0.01004
C 6.17477 23.51638 -0.02896
C 6.15459 22.08576 -0.00131
C 4.86194 21.36353 -0.01118
C 4.91822 20.01182 -0.014
C 6.08968 19.29797 0.02147
C 4.80097 7.09803 0.00373
C 3.62291 2.08705 -0.0008
C 2.4269 2.80316 -0.01362
C 2.44645 4.17344 -0.00892
C 3.71866 4.93153 -0.04848
C 3.73055 30.52275 -0.03337
C 2.44068 29.82591 0.01227
C 2.45468 28.41351 0.00873
C 3.7072 27.73114 -0.00049
C 3.69167 26.30127 0.00848
C 2.45573 25.62101 -0.01303
C 2.40412 24.21717 -0.01378
C 3.69004 23.46749 0.02635
C 6.11897 6.68762 -0.00191
C 3.65167 22.09235 0.0127
C 2.47217 19.98854 0.01849
C 3.70459 19.23913 -0.01142
C 3.68028 17.80759 -0.00562
C 2.6505 16.94637 -0.00494
C 2.32734 15.61219 0.00054
C 2.48493 8.49008 0.03007
C 2.39577 7.11367 -0.00095
C 3.67892 6.34055 0.01572
C 2.41979 21.3413 0.01396
C 6.15916 5.11967 0.00438
C 4.95642 4.25018 0.01291
C 4.80805 2.90857 0.00093
C 7.37833 2.98313 0.03101
C 8.61491 2.16213 -0.01536
C 8.58194 0.74423 -0.02689
C 7.36078 0.03075 -0.01046
C 9.79916 32.68155 -0.00891
C 11.01052 32.03212 0.02819
C 11.05582 30.61231 0.00165
C 9.83201 29.88869 -0.02971
C 7.34865 4.47736 -0.00428
C 9.86895 28.45425 0.02894
C 11.2403 26.36061 0.00444
C 9.97527 25.59558 -0.00925
C 9.98927 24.22587 0.01877
C 11.34913 23.47357 0.01363
C 11.14215 22.07769 -0.02162
C 10.02571 21.4487 0.00415
C 9.85321 19.9198 -0.0014
C 10.9167 19.08631 0.02162
C 11.12157 27.77131 -0.01789
C 19.65621 2.8165 -0.01527
C 8.64946 5.19164 -0.02245
C 7.33949 7.31768 -0.01275
C 6.10009 2.17385 0.00057
C 6.08376 0.79128 -0.01634
C 4.88459 0.04844 -0.00334
C 7.36297 32.63263 0.02339
C 8.58913 31.90699 0.01641
C 8.56658 30.5184 -0.00719
C 7.33981 29.84218 0.01364
C 7.31634 28.42466 -0.01062
C 8.68261 6.76556 0.00985
C 8.67558 27.7029 -0.00033
C 7.48833 25.59322 -0.02759
C 7.41243 24.24532 0.0402
C 8.7037 23.51731 0.00572
C 8.6763 22.13023 0.03592
C 7.37215 21.381 0.00406
C 7.33767 19.95227 0.00943
C 8.459 19.17905 0.02841
C 8.54166 17.70826 -0.01111
C 8.66348 26.27405 0.03589
C 20.84258 2.07981 0.01087
C 20.87396 0.69141 0.00199
C 19.65951 33.97057 0.01511
C 33.17104 30.5159 0.01428
C 31.88591 29.82005 -0.02142
C 31.91145 28.46394 0.0544
C 33.09095 27.7014 0.00026
C 33.13781 26.27005 0.00682
C 31.96911 25.6272 -0.01779
C 31.98177 24.21582 0.03794
C 33.16331 23.47311 0.01927
C 33.16019 22.06545 0.01574
C 31.92741 21.34928 -0.02383
C 31.93918 19.95713 -0.01429
C 33.17005 19.16524 -0.0136
C 33.18239 17.81783 0.00594
C 31.94364 17.00595 -0.02474
C 31.85587 15.60362 0.00369
C 33.05537 14.91584 0.00455
C 33.11872 13.44148 -0.00644
C 33.18365 31.99507 -0.01694
C 31.9454 32.66174 0.01713
C 29.52571 0.02053 0.00346
C 30.74427 0.66069 0.00307
C 29.47543 19.93475 0.01836
C 30.63775 19.19159 0.03531
C 30.8125 17.81808 -0.00669
C 29.43229 17.23129 0.0101
C 29.45238 15.70369 0.01705
C 30.69865 15.00428 -0.0405
C 30.68775 13.59438 -0.01303
C 29.46277 12.86163 -0.01461
C 31.85073 12.81391 -0.01839
C 29.41352 11.4005 -0.02155
C 30.68098 9.26018 -0.03735
C 29.46322 8.46269 -0.00971
C 29.55244 7.09006 0.01518
C 30.68989 6.42021 0.01908
C 30.75032 4.99711 0.07705
C 29.47517 4.23313 0.0103
C 29.4472 2.77187 0.02108
C 30.69243 2.06269 0.00716
C 30.6457 10.61941 -0.00944
C 31.90466 11.35212 0.00137
C 33.11675 10.66262 0.00199
C 33.12943 9.24619 0.04381
C 1.26868 19.15761 -0.01678
C 1.32358 17.75111 0.01223
C 0.02534 17.05475 0.00648
C 34.2842 15.6343 0.02114
C 1.17928 14.92563 -0.02957
C 1.2527 13.44786 0.00343
C 34.43197 12.77514 -0.02656
C 0.00215 11.3477 -0.02442
C 34.40812 19.88716 0.01951
C 1.22211 10.76142 -0.00027
C 34.38758 8.59467 -0.02302
C 0.02002 7.18516 -0.02849
C 1.16485 6.44067 0.02931
C 1.20728 5.00172 0.00628
C 34.36728 4.25903 -0.0345
C 34.43217 2.86174 -0.00931
C 1.25922 2.06818 -0.00939
C 1.22418 0.66758 -0.00468
C 1.39224 9.3674 -0.00583
C 29.52701 21.32186 -0.03039
C 34.3829 21.32405 -0.02213
C 1.19521 23.48879 0.00723
C 31.8685 8.4945 0.02806
C 31.98022 7.08601 0.01504
C 33.20408 6.38773 -0.00069
C 33.19663 4.95499 0.04926
C 31.93262 4.24457 -0.03838
C 31.9045 2.85889 0.00349
C 33.15292 2.16432 -0.00323
C 33.17576 0.63155 -0.00841
C 1.17193 22.02996 0.02712
C 31.95184 0.01946 0.0001
C 1.21928 31.94302 -0.01404
C 1.14558 30.49438 0.01027
C 34.37087 29.79807 0.01831
C 34.31436 28.35323 -0.01037
C 1.26554 27.66758 -0.00439
C 1.14067 26.25668 -0.00598
C 34.34594 25.62632 -0.05239
C 34.38087 24.13753 0.03076
C 0.01032 32.61254 -0.02927
C 3.6689 31.8953 -0.00966
C 30.69744 22.15992 -0.01415
C 29.46824 24.1275 -0.02049
C 24.51466 29.72315 0.00733
C 24.51929 28.29189 -0.00178
C 25.71259 27.5694 0.00768
C 25.75949 26.14242 -0.0276
C 24.42514 25.61439 0.03005
C 26.11121 22.7129 -0.04078
C 25.69972 14.96286 0.02117
C 25.62839 13.58812 0.02737
C 24.52187 12.72676 -0.00498
C 24.57879 11.38692 0.00135
C 25.76421 10.65424 0.03102
C 25.74337 9.25513 0.02555
C 24.54694 8.56352 0.01423
C 24.58494 7.09954 -0.00285
C 25.85128 6.3808 -0.009
C 25.83013 4.97215 -0.01199
C 24.51228 4.37693 -0.00229
C 25.71689 30.45541 -0.02118
C 25.79975 31.92734 -0.01971
C 24.57824 32.58762 -0.01586
C 22.10305 34.02503 -0.01107
C 22.0675 32.59332 -0.00478
C 23.32745 31.90356 -0.01662
C 23.32424 30.49407 -0.01185
C 22.06746 29.76052 0.01126
C 22.04771 28.37488 0.01852
C 23.27408 27.65088 -0.00381
C 23.43753 26.34121 0.03046
C 22.11366 11.27207 0.0296
C 24.58312 2.83582 -0.00938
C 23.34461 10.66299 0.03374
C 22.12077 8.53907 -0.03213
C 22.10846 7.12004 0.02239
C 23.35999 6.4324 0.01153
C 23.23584 5.03459 0.02734
C 22.05277 4.27065 -0.0055
C 22.07068 2.78608 0.01515
C 23.32698 2.10055 -0.00225
C 23.32851 0.68501 0.00071
C 23.30463 9.21515 -0.02845
C 25.77189 2.13749 -0.0264
C 25.80893 0.71413 -0.01154
C 24.62091 0.01066 0.00684
C 28.23948 9.21421 -0.00621
C 27.02996 8.55732 0.02611
C 27.0179 7.11631 0.02198
C 28.30977 6.33709 0.01094
C 28.30139 4.9879 0.00235
C 27.06357 4.28919 0.01495
C 27.02979 2.82903 0.01259
C 28.21417 2.03787 0.01799
C 28.23847 10.66375 0.00194
C 28.21537 0.6165 0.01699
C 29.46042 32.61572 0.01177
C 30.66744 31.93775 0.04266
C 30.65674 30.55099 0.01324
C 29.36489 29.85799 0.0014
C 29.42994 28.44534 0.00924
C 30.64049 27.7745 0.02326
C 30.71877 26.3489 0.00261
C 29.43581 25.55499 0.03265
C 26.95408 34.04679 -0.00416
C 30.77122 23.56122 -0.01854
C 26.94857 11.41558 0.04185
C 28.18855 13.62317 0.01257
C 26.98402 32.61426 -0.01052
C 28.21207 31.9017 -0.01679
C 28.16087 30.51357 0.00367
C 26.93883 29.75602 0.04306
C 26.94536 28.30037 0.00996
C 28.09791 27.67509 0.00195
C 28.17792 26.21485 -0.00802
C 26.97251 25.36611 -0.00218
C 26.94226 12.84676 0.02316
C 26.95346 23.99715 -0.01654
C 28.36691 22.10195 -0.0032
C 26.81836 21.71916 0.00622
C 26.99942 20.32821 -0.02815
C 28.13754 19.45936 -0.00942
C 28.07403 17.96324 0.00487
C 26.9618 17.23067 0.00826
C 26.80664 15.87274 -0.00294
C 28.18705 15.04667 0.00152
C 28.24794 23.43646 -0.00037
C 2.44404 32.64599 -0.02929
