442
Graphene
C 0.02676 34.02248 0.01295
C 12.17358 12.9306 0.00057
C 12.26279 11.4458 -0.01634
C 13.40903 10.70774 -0.00334
C 13.48981 9.30628 0.02339
C 12.21375 8.53223 0.01641
C 12.23106 7.14859 -0.00719
C 13.55585 6.49689 0.01364
C 13.54115 4.99305 -0.01062
C 12.30263 4.38972 -0.00033
C 12.36653 2.94509 0.03589
C 13.45788 2.12774 -0.02759
C 13.47862 0.73042 0.0402
C 12.29058 34.05286 0.00572
C 14.67507 32.66202 0.03592
C 15.98228 31.89776 0.00406
C 15.96789 30.53782 0.00943
C 14.70849 29.84868 0.02841
C 14.66855 28.32679 -0.01111
C 15.84875 27.63556 -0.01275
C 15.94769 26.1658 0.00985
C 14.71992 25.53338 -0.02245
C 14.7019 24.17834 -0.00428
C 16.04841 23.41067 0.03101
C 13.48123 13.61104 0.00093
C 13.43449 15.00454 0.01291
C 12.21246 15.75829 0.00438
C 12.21919 17.14932 -0.00191
C 9.77105 8.6477 0.03007
C 9.83815 7.17067 -0.00095
C 11.0595 6.37935 0.01572
C 11.05374 4.94088 -0.04848
C 9.82632 4.26217 -0.00892
C 9.88804 2.87296 -0.01362
C 11.18066 2.09602 -0.0008
C 11.10498 0.76866 0.0288
C 9.8402 0.08791 0.00393
C 12.26374 32.59671 0.00895
C 13.4543 31.98962 0.00685
C 15.998 22.06038 -0.01536
C 13.47445 30.57286 0.02888
C 12.28564 28.40574 -0.01384
C 13.48992 27.70102 0.03693
C 13.55562 26.3451 0.01745
C 12.35793 25.60957 0.00488
C 12.23061 24.19851 -0.01004
C 13.43812 23.44709 -0.02896
C 13.46586 22.02169 -0.00131
C 12.15982 21.51894 -0.01118
C 12.20233 20.11985 -0.014
C 13.43681 19.31678 0.02147
C 13.45073 17.86518 0.00373
C 12.26562 29.84264 -0.00482
C 11.06842 9.28929 0.00054
C 14.72109 21.26171 -0.02689
C 15.94204 19.17986 -0.00891
C 18.47466 21.89509 0.01965
C 17.28329 21.34498 0.02058
C 17.21048 19.89506 -0.01957
C 18.47907 19.20565 -0.0108
C 18.40856 17.81513 -0.00368
C 17.23758 17.09604 -0.02696
C 17.2089 15.68077 -0.00114
C 18.42753 14.91731 0.00228
C 18.3986 13.54337 0.00798
C 17.18576 12.76564 0.00422
C 17.14698 11.38999 0.0351
C 18.40457 10.6254 -0.03113
C 18.40128 9.14129 0.02098
C 17.06342 8.53326 0.01848
C 17.10361 7.12899 -0.00619
C 18.36991 6.42834 -0.02162
C 18.41694 5.00138 0.00889
C 17.24106 4.26383 -0.00481
C 17.22113 2.84712 0.00979
C 18.44345 2.14247 0.01443
C 18.40735 0.72546 0.03505
C 17.19378 34.05427 -0.02815
C 19.66059 32.69481 -0.04147
C 18.48268 23.37237 -0.03682
C 17.24513 24.08738 0.00052
C 17.21139 25.54296 0.00374
C 18.41808 26.21765 -0.02813
C 15.99265 17.76816 0.02819
C 14.70308 17.12745 0.00165
C 14.72213 15.6968 -0.02971
C 15.87737 14.94067 0.02894
C 15.86905 13.52618 -0.01789
C 14.65907 12.83937 0.00444
C 14.69064 11.41615 -0.00925
C 15.91578 10.63869 0.01877
C 15.86921 9.28267 0.01363
C 14.77578 8.58451 -0.02162
C 14.73842 7.18961 0.00415
C 14.6889 19.86096 -0.01046
C 15.93408 6.36475 -0.0014
C 14.72114 4.26428 0.0076
C 14.74131 2.8198 0.01241
C 15.9592 2.15629 -0.01454
C 15.93612 0.61921 0.01945
C 14.68733 34.05858 0.01416
C 17.18036 32.59142 0.03542
C 18.39918 31.89271 0.02299
C 18.36684 30.49678 0.00244
C 17.14503 29.7637 -0.01717
C 17.13721 28.27266 0.05265
C 18.36803 27.67898 -0.01952
C 15.95634 4.96027 0.02162
C 11.00829 10.72934 -0.00494
C 9.77498 11.42525 -0.00562
C 9.82651 12.78715 -0.01142
C 3.74398 0.73827 0.03278
C 2.51571 0.04122 -0.00177
C 4.97178 32.7584 0.04421
C 6.21352 31.99092 0.00088
C 6.20278 30.56336 0.00828
C 4.86549 29.84908 -0.02375
C 4.87352 28.44835 0.00558
C 6.07821 27.74323 -0.0059
C 6.13558 26.17356 -0.01386
C 4.89655 25.49144 -0.02805
C 4.95147 24.03509 0.00081
C 6.38564 21.25977 0.00245
C 4.94466 21.26894 0.02728
C 4.76185 19.87951 -0.00039
C 5.94446 19.24673 0.0064
C 6.06858 17.83486 0.00211
C 4.77707 16.99984 -0.00449
C 4.90006 15.65631 -0.01979
C 6.1015 14.95907 0.02784
C 6.10357 13.51946 -0.01977
C 4.81396 12.76184 -0.00561
C 4.84264 11.3231 0.00208
C 6.15073 10.7974 0.01707
C 3.681 2.17234 0.01138
C 2.45872 2.82516 -0.00407
C 2.48729 4.22909 -0.01299
C 3.70077 5.0139 -0.0154
C 3.70221 30.63983 -0.00374
C 2.4608 29.93686 -0.0213
C 2.48247 28.41688 0.01116
C 3.68322 27.61677 -0.0005
C 3.69282 26.16561 -0.00018
C 2.44817 25.47502 0.01073
C 2.48707 24.10742 0.01984
C 3.7781 23.36632 0.00535
C 3.68085 21.99408 -0.00198
C 2.38003 21.21342 -0.00012
C 2.38589 19.92258 -0.04306
C 6.15651 9.36464 0.02769
C 3.62141 19.12337 -0.03672
C 2.3934 16.99954 0.00267
C 2.36994 15.51718 0.00787
C 3.63632 14.85895 0.02426
C 3.64323 13.45891 0.01218
C 2.44364 12.73786 -0.01471
C 2.46424 11.24909 -0.02827
C 3.68356 10.5941 0.01078
C 3.71313 9.24009 -0.00112
C 2.52247 8.55642 0.03345
C 2.47667 7.10467 0.00748
C 3.74494 6.41644 0.00662
C 3.62561 17.66801 0.01913
C 4.99994 8.58776 -0.03291
C 4.95418 7.20497 -0.04999
C 6.17694 6.45397 0.04505
C 8.67414 5.01506 -0.00094
C 7.41072 4.34255 0.02322
C 7.37487 2.87733 -0.00725
C 8.64809 2.10476 -0.05697
C 8.57732 0.7177 0.01087
C 7.38716 0.11217 -0.01343
C 9.81202 32.73716 0.00988
C 11.01355 32.02709 0.0276
C 10.97444 30.54989 0.01305
C 9.79754 29.82421 -0.00077
C 9.8392 28.31772 0.03368
C 8.60196 6.47256 -0.02566
C 11.08038 27.70814 -0.02929
C 9.99048 25.25658 -0.03337
C 10.78072 23.93499 0.01227
C 10.86154 22.27702 0.00873
C 9.83189 21.45381 -0.00049
C 9.68764 20.1324 0.00848
C 10.85924 19.30452 -0.01303
C 10.97107 17.91864 -0.01378
C 9.70116 17.25422 0.02635
C 9.73951 15.82949 0.0127
C 10.95922 15.07203 0.01396
C 11.01253 13.54442 0.01849
C 11.05817 26.23064 -0.00966
C 20.91354 31.98821 -0.05302
C 7.41984 7.29091 -0.03113
C 8.59743 9.37659 -0.00643
C 6.24011 5.09528 0.03284
C 4.93814 4.33058 -0.04307
C 4.97592 2.95796 0.03189
C 6.1356 2.2164 0.00031
C 6.16412 0.79681 -0.003
C 4.99672 0.0952 0.01402
C 7.40466 32.70604 0.02379
C 8.65136 31.96645 0.00907
C 8.61162 30.5215 0.00643
C 7.4437 29.81697 -0.01509
C 7.48178 28.33775 0.03267
C 7.36982 8.66329 0.017
C 8.62075 27.50372 0.02374
C 7.35706 25.52333 0.0073
C 7.1034 20.17996 0.0174
C 8.38473 19.42079 0.03828
C 8.41511 17.96943 0.01226
C 7.29463 17.09816 -0.00279
C 7.34907 15.72531 0.01996
C 8.56047 15.04204 -0.03996
C 8.52237 13.6182 0.01465
C 7.35733 12.90762 -0.00074
C 7.35439 11.44025 -0.00518
C 8.57675 10.73112 0.0086
C 8.6572 25.94583 0.00402
C 20.80933 30.64729 0.00213
C 19.63631 29.82988 -0.00066
C 19.52708 28.41316 -0.00289
C 29.50213 15.59733 0.01705
C 30.66121 14.79867 -0.0405
C 30.71344 13.3863 -0.01303
C 29.43853 12.65943 -0.01461
C 29.5272 11.22984 -0.02155
C 30.74074 10.48089 -0.00944
C 30.73896 9.05493 -0.03735
C 29.51985 8.4278 -0.00971
C 29.4815 7.04346 0.01518
C 30.77561 6.33245 0.01908
C 30.7787 4.86738 0.07705
C 29.4993 4.23173 0.0103
C 29.52545 2.8114 0.02108
C 30.72699 2.03728 0.00716
C 30.75758 0.61767 0.00307
C 29.49765 34.0619 0.00346
C 31.93317 32.67306 0.01713
C 33.17962 32.01987 -0.01694
C 33.21212 30.56733 0.01428
C 31.97326 29.89442 -0.02142
C 31.97101 28.47699 0.0544
C 33.14878 27.68445 0.00026
C 33.1372 26.27628 0.00682
C 29.41233 16.9988 0.0101
C 30.64675 17.79902 -0.00669
C 30.68868 19.20571 0.03531
C 29.46482 19.88148 0.01836
C 27.01696 11.27247 0.04185
C 28.26964 10.63603 0.00194
C 28.29521 9.19088 -0.00621
C 27.05492 8.47059 0.02611
C 26.98865 7.04817 0.02198
C 28.28111 6.39473 0.01094
C 28.28004 4.90545 0.00235
C 27.01123 4.24452 0.01495
C 27.07193 2.81793 0.01259
C 28.24633 2.16403 0.01799
C 28.22262 0.66808 0.01699
C 31.88604 25.62956 -0.01779
C 26.99582 34.0213 -0.00416
C 30.70726 31.9811 0.04266
C 30.70588 30.58556 0.01324
C 29.55477 29.86592 0.0014
C 29.47952 28.48909 0.00924
C 30.71921 27.78872 0.02326
C 30.6357 26.29365 0.00261
C 29.50057 25.5844 0.03265
C 29.47905 24.2342 -0.02049
C 30.7352 23.40529 -0.01854
C 30.73695 21.96768 -0.01415
C 29.46535 21.27861 -0.03039
C 29.50317 32.6186 0.01177
C 31.92824 24.16616 0.03794
C 33.14786 23.43636 0.01927
C 33.12951 22.04234 0.01574
C 0.00421 25.53599 -0.05239
C 34.37596 24.1692 0.03076
C 1.14193 23.37138 0.00723
C 1.12138 21.97647 0.02712
C 34.30746 21.28921 -0.02213
C 34.39842 19.88331 0.01951
C 1.15977 19.13852 -0.01678
C 1.04087 17.71844 0.01223
C 34.28736 16.98595 0.00648
C 34.2835 15.50813 0.02114
C 1.10867 14.85713 -0.02957
C 1.23925 26.29758 -0.00598
C 1.21421 13.39995 0.00343
C 34.32285 11.23985 -0.02442
C 1.19712 10.5982 -0.00027
C 1.23004 9.19904 -0.00583
C 0.02543 8.45957 -0.02302
C 34.40799 7.05768 -0.02849
C 1.2627 6.36831 0.02931
C 1.32739 4.96295 0.00628
C 0.07978 4.23077 -0.0345
C 34.42182 2.85407 -0.00931
C 1.24566 2.11461 -0.00939
C 1.29719 0.74438 -0.00468
C 34.40191 12.68933 -0.02656
C 27.00521 12.76283 0.02316
C 1.2395 27.75251 -0.00439
C 0.02481 29.86579 0.01831
C 31.89083 21.28209 -0.02383
C 31.99754 19.86571 -0.01429
C 33.18488 19.19369 -0.0136
C 33.08258 17.7049 0.00594
C 31.869 16.99916 -0.02474
C 31.84213 15.57965 0.00369
C 33.03957 14.79731 0.00455
C 33.08666 13.39579 -0.00644
C 32.00075 12.59329 -0.01839
C 31.95445 11.23324 0.00137
C 33.21616 10.49302 0.00199
C 34.38363 28.39257 -0.01037
C 33.12424 9.175 0.04381
C 31.93346 7.02567 0.01504
C 33.25146 6.31872 -0.00069
C 33.29385 4.92724 0.04926
C 32.03314 4.25188 -0.03838
C 31.98073 2.86468 0.00349
C 33.19969 2.07279 -0.00323
C 33.29943 0.69911 -0.00841
C 32.03346 0.00463 0.0001
C 34.43059 32.65225 -0.02927
C 1.19808 31.95014 -0.01404
C 1.2244 30.56288 0.01027
C 31.95912 8.38555 0.02806
C 3.68947 32.01577 -0.00141
C 28.18678 13.4011 0.01257
C 27.05472 15.47478 -0.00294
C 23.32805 31.87951 0.00654
C 23.25412 30.50458 -0.00703
C 21.94631 29.8219 -0.04076
C 21.98423 28.38588 -0.00652
C 23.29437 27.71821 0.0058
C 23.30836 26.33551 -0.00865
C 22.1034 25.61342 0.00675
C 22.10562 24.1951 -0.00311
C 23.36438 23.40719 0.00742
C 23.26624 22.0196 -0.01594
C 22.04086 21.33563 0.0106
C 22.17187 19.88262 -0.01154
C 23.30072 19.11437 -0.01721
C 23.41567 17.74372 -0.02422
C 22.05397 16.98115 0.01277
C 22.12916 15.58178 0.00096
C 23.37834 14.97734 -0.01527
C 23.29443 13.51497 0.01087
C 22.09385 12.7273 0.00199
C 22.1198 11.34035 0.01511
C 23.30992 10.6344 -0.00478
C 23.37194 9.23866 -0.01662
C 22.05648 8.6079 -0.01185
C 22.16273 32.66884 -0.04422
C 19.6253 0.0396 -0.02957
C 20.83843 0.70682 -0.00831
C 20.85767 2.14511 0.00364
C 20.77624 27.68665 0.00028
C 20.81905 26.34825 -0.02213
C 19.64698 25.56557 0.03698
C 19.6051 24.1456 -0.00109
C 20.85566 23.52334 -0.00491
C 20.88386 21.9985 0.03338
C 19.74196 21.30055 -0.0258
C 19.71916 19.89577 -0.0331
C 20.90449 19.09057 -0.00316
C 20.93435 17.74152 0.02188
C 19.68503 17.07256 -0.01979
C 22.07665 7.18491 0.01126
C 19.67757 15.51943 0.02691
C 20.83055 13.42749 0.01452
C 19.57385 12.84679 0.04892
C 19.57711 11.40166 -0.00111
C 20.82859 10.72353 -0.03557
C 20.82556 9.31599 0.03754
C 19.6421 8.55544 0.01739
C 19.67125 7.05725 0.00755
C 20.86984 6.41818 -0.0054
C 20.90705 5.01386 0.00667
C 19.6842 4.33827 0.00143
C 19.66922 2.92739 -0.017
C 20.90737 14.86582 -0.01581
C 23.27337 6.35866 0.01852
C 23.34494 4.98002 -0.00381
C 22.0998 4.22196 0.03046
C 24.47376 7.03426 -0.00285
C 25.80816 6.36575 -0.009
C 25.777 4.97554 -0.01199
C 24.53885 4.24746 -0.00229
C 24.55687 2.81388 -0.00938
C 25.78018 2.13341 -0.0264
C 25.77074 0.70777 -0.01154
C 24.46327 34.07857 0.00684
C 27.03727 32.60648 -0.01052
C 28.25632 31.94924 -0.01679
C 28.27087 30.53988 0.00367
C 24.55075 8.5222 0.01423
C 27.02061 29.93083 0.04306
C 28.26983 27.8022 0.00195
C 28.24088 26.35086 -0.00802
C 27.03059 25.65578 -0.00218
C 27.0419 24.15884 -0.01654
C 28.26975 23.51595 -0.00037
C 28.27777 22.01957 -0.0032
C 26.99 21.42692 0.00622
C 27.16795 20.04968 -0.02815
C 28.29575 19.18491 -0.00942
C 28.23223 17.71561 0.00487
C 26.98836 16.94624 0.00826
C 26.94411 28.53722 0.00996
C 28.25106 14.79737 0.00152
C 25.80665 9.15892 0.02555
C 24.51898 11.32486 0.00135
C 22.07759 2.76169 0.0296
C 23.29224 2.12631 0.03374
C 23.28972 0.67595 -0.02845
C 21.99195 34.06882 -0.03213
C 24.50729 32.69286 0.02239
C 25.69611 32.04227 0.01153
C 25.70143 30.54745 0.02734
C 24.47092 29.77476 -0.0055
C 24.50291 28.34818 0.01515
C 25.76008 27.76197 -0.00225
C 25.74669 26.31758 0.00071
C 25.80266 10.68437 0.03102
C 24.58002 25.60648 -0.01107
C 25.76878 23.51594 -0.01971
C 25.81309 22.09369 -0.02118
C 24.55986 21.25363 0.00733
C 24.64538 19.90005 -0.00178
C 25.88224 19.18387 0.00768
C 25.82689 17.76588 -0.0276
C 24.58145 17.12068 0.03005
C 24.61746 15.67973 -0.04078
C 25.79142 14.83432 0.02117
C 25.78072 13.43244 0.02737
C 24.53652 12.74606 -0.00498
C 24.51553 24.20198 -0.01586
C 2.5157 32.64445 -0.03951
