419
Graphene
C 34.38603 0.04699 0.01295
C 12.31061 25.71026 0.00943
C 12.26543 24.26053 0.02841
C 13.45949 23.48582 -0.01111
C 13.38633 22.14819 -0.01275
C 12.23253 21.3486 0.00985
C 12.25576 19.91191 -0.02245
C 13.48904 19.22755 -0.00428
C 13.46547 17.82575 0.03101
C 12.24844 16.99851 -0.01536
C 12.14756 15.53791 -0.02689
C 13.54435 26.38325 0.00406
C 13.34807 14.83612 -0.01046
C 12.26025 12.61822 0.02819
C 12.27521 11.27156 0.00165
C 13.76972 10.47494 -0.02971
C 13.77101 9.08589 0.02894
C 12.44554 8.5186 -0.01789
C 12.32232 7.04567 0.00444
C 13.42164 6.25171 -0.00925
C 13.39428 4.89816 0.01877
C 12.14023 4.22133 0.01363
C 12.16955 2.75113 -0.02162
C 13.45487 13.39131 -0.00891
C 13.44057 2.15303 0.00415
C 13.53892 27.77008 0.03592
C 12.32089 29.93788 0.0402
C 10.94923 19.15555 -0.01004
C 10.98334 17.71002 -0.02896
C 9.71638 16.92672 -0.00131
C 9.65397 15.423 -0.01118
C 10.91454 14.68123 -0.014
C 10.91174 13.13435 0.02147
C 9.61404 12.24033 0.00373
C 9.68992 10.81936 -0.00191
C 11.14028 10.53485 0.00438
C 11.16316 9.15554 0.01291
C 12.28026 28.46163 0.00572
C 9.97095 8.55077 0.00093
C 11.08465 6.41357 -0.01634
C 10.95057 5.03394 -0.00334
C 9.78413 4.3973 0.02339
C 9.83257 2.97554 0.01641
C 10.9848 2.14279 -0.00719
C 10.93987 0.68047 0.01364
C 9.75247 0.12174 -0.01062
C 12.31402 32.65222 -0.00033
C 13.56283 32.02688 0.03589
C 13.5798 30.61952 -0.02759
C 9.86939 7.22468 0.00057
C 13.52427 0.66511 -0.0014
C 12.21427 0.02336 0.02162
C 14.78275 32.74101 0.0076
C 14.7133 0.05102 0.01848
C 17.29664 32.7298 -0.00619
C 18.50424 32.08147 -0.02162
C 18.50412 30.61882 0.00889
C 17.26813 29.92632 -0.00481
C 17.22953 28.41526 0.00979
C 18.45913 27.75026 0.01443
C 18.5138 26.26812 0.03505
C 17.23815 25.61924 -0.02815
C 17.25308 24.22703 -0.04147
C 15.93759 0.73217 0.02098
C 18.37159 23.42296 -0.05302
C 17.15098 21.24747 -0.00066
C 17.13011 19.86963 -0.00289
C 18.43521 19.16526 0.00028
C 18.36231 17.75087 -0.02213
C 17.19417 17.05315 0.03698
C 17.13123 15.58394 -0.00109
C 18.35419 14.98989 -0.00491
C 18.37579 13.57358 0.03338
C 17.34492 12.87359 -0.0258
C 17.03025 4.327 -0.0331
C 18.30953 21.97002 0.00213
C 15.92142 2.17711 -0.03113
C 14.72257 2.82316 0.0351
C 14.62418 4.32141 0.00422
C 15.96038 32.02363 0.01241
C 16.01745 30.58958 -0.01454
C 14.78451 29.84571 0.01945
C 14.78781 28.43458 0.01416
C 15.96637 27.70431 0.03542
C 15.95948 26.30212 0.02299
C 14.73402 25.59708 0.00244
C 14.72316 24.21106 -0.01717
C 15.92807 23.50443 0.05265
C 15.88859 22.05708 -0.01952
C 14.6553 21.44264 -0.02813
C 14.6861 19.9127 0.00374
C 15.91573 19.12155 0.00052
C 15.95905 17.71082 -0.03682
C 14.63215 17.06316 0.01965
C 14.53351 15.5857 0.02058
C 15.88694 14.79955 -0.01957
C 15.96748 13.36187 -0.0108
C 14.73633 12.69562 -0.00368
C 14.94446 11.25827 -0.02696
C 14.83551 8.24316 -0.00114
C 14.76945 6.80739 0.00228
C 15.88601 5.01079 0.00798
C 9.76157 19.89827 0.00488
C 17.20713 2.9304 -0.00316
C 9.76286 21.36344 0.01745
C 10.99469 23.40105 -0.01384
C 2.38699 2.85777 0.00208
C 3.62806 2.22199 0.01707
C 3.53096 0.79169 0.02769
C 2.40456 0.06284 -0.03291
C 4.92755 32.73235 -0.04999
C 6.09407 32.01784 0.04505
C 6.03552 30.5869 0.03284
C 4.85289 29.86245 -0.04307
C 4.87555 28.47987 0.03189
C 6.13382 27.75211 0.00031
C 2.45511 4.28187 -0.00561
C 6.1817 26.34007 -0.003
C 4.92998 24.18265 0.02379
C 6.1816 23.5027 0.00907
C 6.13956 22.03124 0.00643
C 4.87191 21.2933 -0.01509
C 4.91618 19.8603 0.03267
C 6.1847 19.25139 0.02374
C 6.19689 17.77237 0.00402
C 4.93572 17.05747 0.0073
C 4.83721 15.68163 0.0174
C 6.05762 14.90446 0.03828
C 4.89775 25.64625 0.01402
C 5.99846 13.4856 0.01226
C 3.63216 5.07729 -0.01977
C 2.54547 7.16042 -0.01979
C 3.63144 30.5339 0.00662
C 2.3941 29.81937 -0.0154
C 2.33124 28.41985 -0.01299
C 3.59532 27.79245 -0.00407
C 3.66791 26.3787 0.01138
C 2.42128 25.56834 0.03278
C 2.43025 24.15519 -0.00177
C 3.66161 23.49049 0.04421
C 3.64956 22.0137 0.00088
C 2.38893 21.27057 0.00828
C 3.78879 6.53777 0.02784
C 2.32571 19.84449 -0.02375
C 3.62575 17.76788 -0.0059
C 2.32117 17.09427 -0.01386
C 2.26993 15.66093 -0.02805
C 3.57714 15.01877 0.00081
C 3.64031 13.65085 0.00245
C 2.38268 12.86415 0.02728
C 2.44871 11.43055 -0.00039
C 3.74708 10.7669 0.0064
C 3.67522 9.37889 0.00211
C 2.46349 8.59509 -0.00449
C 3.66486 19.13278 0.00558
C 4.80957 12.94279 -0.00279
C 4.87677 11.56436 0.01996
C 6.25321 11.20289 -0.03996
C 8.36137 14.58008 -0.01378
C 8.31819 13.01403 0.02635
C 6.98898 12.422 0.0127
C 8.96853 9.59687 0.01396
C 7.59761 8.99594 0.01849
C 7.51018 7.43933 -0.01142
C 8.59514 6.59068 -0.00562
C 8.58717 5.15002 -0.00494
C 7.26723 4.46556 0.00054
C 7.20631 2.90056 0.03007
C 7.30748 15.47364 -0.01303
C 8.55754 2.22478 -0.00095
C 7.23549 0.09761 -0.04848
C 9.84702 32.68225 -0.00892
C 11.03669 32.00188 -0.01362
C 11.03269 30.58625 -0.0008
C 9.8002 29.89482 0.0288
C 9.79806 28.4999 0.00393
C 11.05166 27.77817 0.00895
C 11.07819 26.40635 0.00685
C 9.85757 25.6314 0.02888
C 9.79279 24.21768 -0.00482
C 8.46217 0.84163 0.01572
C 7.36216 16.96759 0.00848
C 8.54149 17.67057 -0.00049
C 8.61213 19.13374 0.00873
C 6.29246 9.67371 0.01465
C 4.97437 8.81595 -0.00074
C 5.0153 7.30283 -0.00518
C 6.23144 6.65815 0.0086
C 6.0404 5.21917 -0.00643
C 4.86007 4.44454 0.017
C 4.85264 2.93377 -0.03113
C 6.02519 2.20487 -0.02566
C 5.92988 0.75829 -0.00094
C 4.72586 0.0661 0.02322
C 7.30132 32.64682 -0.00725
C 8.56638 32.0491 -0.05697
C 8.53928 30.64556 0.01087
C 7.39302 29.87576 -0.01343
C 7.35721 28.50021 0.00988
C 8.53737 27.76924 0.0276
C 8.56174 26.37891 0.01305
C 7.40082 25.60971 -0.00077
C 7.38686 24.22923 0.03368
C 8.60614 23.49057 -0.02929
C 8.5731 22.11286 -0.00966
C 7.32325 21.42316 -0.03337
C 7.32359 19.98967 0.01227
C 11.00987 22.03457 0.03693
C 3.72435 31.97317 0.00748
C 18.50212 2.2728 0.02188
C 17.25147 0.12347 0.02691
C 29.5036 11.35487 -0.02155
C 30.75462 10.5947 -0.00944
C 30.72607 9.25757 -0.03735
C 29.51614 8.45986 -0.00971
C 29.39119 7.09747 0.01518
C 30.63842 6.38652 0.01908
C 30.66258 4.93693 0.07705
C 29.43189 4.17741 0.0103
C 29.42987 2.80791 0.02108
C 30.76347 2.11058 0.00716
C 29.42162 12.77833 -0.01461
C 30.71838 0.69749 0.00307
C 31.89187 32.59411 0.01713
C 33.13824 31.93233 -0.01694
C 33.17317 30.4818 0.01428
C 31.97379 29.81716 -0.02142
C 32.01547 28.44624 0.0544
C 33.219 27.65716 0.00026
C 33.17445 26.19451 0.00682
C 31.92148 25.47553 -0.01779
C 31.96049 24.13648 0.03794
C 33.17505 23.39867 0.01927
C 29.47525 0.0593 0.00346
C 33.16061 21.94795 0.01574
C 30.64843 13.49635 -0.01303
C 29.38173 15.54584 0.01705
C 28.22346 4.89513 0.00235
C 26.90991 4.3118 0.01495
C 27.03468 2.78236 0.01259
C 28.27545 2.01199 0.01799
C 28.22486 0.58759 0.01699
C 26.99173 34.07405 -0.00416
C 29.47953 32.71785 0.01177
C 30.73041 31.921 0.04266
C 30.72237 30.55994 0.01324
C 29.54933 29.88888 0.0014
C 30.71285 14.91852 -0.0405
C 29.5117 28.41667 0.00924
C 30.66106 26.22892 0.00261
C 29.48642 25.5461 0.03265
C 29.49028 24.02587 -0.02049
C 30.71358 23.40346 -0.01854
C 30.63386 21.98989 -0.01415
C 29.49442 21.31339 -0.03039
C 29.47656 19.8219 0.01836
C 30.65148 19.09282 0.03531
C 30.77282 17.68782 -0.00669
C 29.5005 16.9895 0.0101
C 30.75206 27.67235 0.02326
C 31.93319 21.26049 -0.02383
C 31.94081 19.82971 -0.01429
C 33.20239 19.11813 -0.0136
C 1.16865 23.38522 0.00723
C 1.16132 21.9292 0.02712
C 34.35845 21.2481 -0.02213
C 34.32253 19.87906 0.01951
C 1.13491 19.10638 -0.01678
C 1.08529 17.73157 0.01223
C 34.37151 16.92672 0.00648
C 34.35845 15.56588 0.02114
C 1.15646 14.91752 -0.02957
C 1.11247 13.51833 0.00343
C 34.34197 24.10427 0.03076
C 34.3201 12.74809 -0.02656
C 1.23956 10.68654 -0.00027
C 1.18485 9.25064 -0.00583
C 34.39615 8.564 -0.02302
C 34.39601 7.11518 -0.02849
C 1.23294 6.3823 0.02931
C 1.19142 4.99235 0.00628
C 34.39126 4.23378 -0.0345
C 34.36309 2.79745 -0.00931
C 1.20162 2.15794 -0.00939
C 1.19424 0.7115 -0.00468
C 34.40938 11.36852 -0.02442
C 34.42433 25.54647 -0.05239
C 1.18829 26.26554 -0.00598
C 1.16152 27.62632 -0.00439
C 33.1661 17.724 0.00594
C 31.97563 17.00858 -0.02474
C 31.91758 15.59143 0.00369
C 33.1362 14.858 0.00455
C 33.09377 13.4485 -0.00644
C 31.86082 12.81467 -0.01839
C 31.91486 11.3389 0.00137
C 33.16133 10.59941 0.00199
C 33.12263 9.21638 0.04381
C 31.92623 8.45897 0.02806
C 31.86155 7.04339 0.01504
C 33.17423 6.37423 -0.00069
C 33.1393 4.96204 0.04926
C 31.89165 4.27695 -0.03838
C 31.95034 2.88647 0.00349
C 33.08166 2.11139 -0.00323
C 33.08601 0.66215 -0.00841
C 31.95895 34.05676 0.0001
C 34.35912 32.67546 -0.02927
C 1.21396 31.96215 -0.01404
C 1.26227 30.51841 0.01027
C 34.38732 29.79128 0.01831
C 34.39703 28.43788 -0.01037
C 28.19425 6.34396 0.01094
C 18.50013 0.79611 -0.01979
C 26.95125 7.07907 0.02198
C 28.2796 9.20763 -0.00621
C 22.19565 29.87393 0.0106
C 22.12222 28.43873 -0.01154
C 23.33394 27.67614 -0.01721
C 23.33704 26.27171 -0.02422
C 22.16589 25.57564 0.01277
C 22.12847 24.0927 0.00096
C 23.33548 23.38288 -0.01527
C 23.28128 21.88013 0.01087
C 22.03934 21.21293 0.00199
C 22.04368 19.8544 0.01511
C 23.35017 30.59271 -0.01594
C 23.27909 19.07087 -0.00478
C 22.09791 17.07931 -0.01185
C 22.07676 15.63035 0.01126
C 23.2308 14.89886 0.01852
C 23.20351 13.30535 -0.00381
C 21.89874 12.90956 0.03046
C 22.15991 2.92506 0.0296
C 23.29804 2.21938 0.03374
C 23.33147 0.80208 -0.02845
C 22.11438 0.11742 -0.03213
C 24.54858 32.71777 0.02239
C 23.33057 17.64924 -0.01662
C 25.78573 31.93199 0.01153
C 23.26866 32.0693 0.00742
C 19.70067 0.06307 0.00675
C 19.68074 32.74776 -0.01581
C 20.97814 32.0593 0.01452
C 20.87836 30.61298 0.04892
C 19.74059 29.85554 -0.00111
C 19.68745 28.38547 -0.03557
C 20.90833 27.66162 0.03754
C 20.91822 26.15742 0.01739
C 19.687 25.45608 0.00755
C 19.66204 24.07832 -0.0054
C 20.9123 23.41483 0.00667
C 22.1238 32.80958 -0.00311
C 20.87084 22.01382 0.00143
C 19.57206 19.92623 0.00364
C 20.87547 19.21769 -0.00831
C 20.8872 17.84298 -0.02957
C 19.64082 17.0581 -0.04422
C 19.58164 15.6999 0.00654
C 20.84125 14.91126 -0.00703
C 20.72647 13.51546 -0.04076
C 19.67766 3.04185 -0.00652
C 20.86796 2.36441 0.0058
C 20.84165 0.90663 -0.00865
C 19.56312 21.32008 -0.017
C 25.86147 30.55735 0.02734
C 24.60538 29.85483 -0.0055
C 24.62194 28.36151 0.01515
C 26.9288 32.65673 -0.01052
C 28.33113 31.95726 -0.01679
C 28.33671 30.58515 0.00367
C 27.1026 29.85705 0.04306
C 27.05249 28.39526 0.00996
C 28.25202 27.63696 0.00195
C 28.29847 26.26084 -0.00802
C 27.03637 25.54418 -0.00218
C 27.04825 24.06528 -0.01654
C 28.25434 23.27888 -0.00037
C 24.502 34.06503 0.00684
C 28.27901 21.94772 -0.0032
C 26.98053 19.80453 -0.02815
C 28.21253 19.07986 -0.00942
C 28.2427 17.68695 0.00487
C 26.98292 17.01964 0.00826
C 26.99337 15.59297 -0.00294
C 28.16776 14.80132 0.00152
C 28.19402 13.40873 0.01257
C 26.92492 12.65814 0.02316
C 26.99264 11.28731 0.04185
C 28.29584 10.6512 0.00194
C 27.04283 21.18488 0.00622
C 25.83443 0.76552 -0.01154
C 25.79174 2.16345 -0.0264
C 24.58405 2.89043 -0.00938
C 25.82715 27.68559 -0.00225
C 25.84028 26.27658 0.00071
C 24.64631 25.58836 -0.01107
C 24.65239 24.09685 -0.01586
C 25.83962 23.31812 -0.01971
C 25.78607 21.88363 -0.02118
C 24.49594 21.16199 0.00733
C 24.49954 19.73646 -0.00178
C 25.6939 19.13499 0.00768
C 25.73935 17.73021 -0.0276
C 24.58429 16.9563 0.03005
C 24.5724 15.50222 -0.04078
C 25.81089 14.80284 0.02117
C 25.65998 13.36703 0.02737
C 24.43075 12.73264 -0.00498
C 24.53429 11.31639 0.00135
C 25.76042 10.63865 0.03102
C 25.76564 9.25403 0.02555
C 24.55519 8.4058 0.01423
C 24.55447 7.30741 -0.00285
C 25.75016 6.406 -0.009
C 25.68408 4.98487 -0.01199
C 24.55867 4.27417 -0.00229
C 27.01706 8.52814 0.02611
C 2.4843 32.72765 0.03345
