372
Graphene
C 34.37377 0.05597 0.01295
C 12.25055 4.2862 0.00244
C 12.29342 2.89508 -0.01717
C 13.55866 2.24063 0.05265
C 13.54076 0.76372 -0.01952
C 12.32663 0.04516 -0.02813
C 14.76843 32.71699 0.00374
C 16.02138 32.01671 0.00052
C 16.0234 30.57883 -0.03682
C 14.76616 29.83121 0.01965
C 14.67509 28.41632 0.02058
C 15.94148 27.6859 -0.01957
C 15.95311 26.26412 -0.0108
C 14.74067 25.47203 -0.00368
C 14.72776 24.11232 -0.02696
C 15.96693 23.47788 -0.00114
C 16.00245 21.94378 0.00228
C 14.673 21.33575 0.00798
C 14.68993 19.89838 0.00422
C 15.9553 19.0946 0.0351
C 13.51324 4.8805 0.02299
C 15.88783 17.71587 -0.03113
C 14.34801 6.15381 0.03542
C 12.38577 15.59424 0.01945
C 11.05067 2.20934 -0.02689
C 11.07341 0.72835 -0.01046
C 9.81894 0.1022 -0.00891
C 12.26435 32.70444 0.02819
C 13.51526 31.97976 0.00165
C 13.4399 30.51848 -0.02971
C 12.21691 29.80589 0.02894
C 12.27008 28.36277 -0.01789
C 13.45459 27.66141 0.00444
C 13.48439 26.21286 -0.00925
C 12.27977 25.55549 0.01877
C 12.26199 24.05256 0.01363
C 13.45744 23.41566 -0.02162
C 13.46208 22.05187 0.00415
C 12.26128 21.26835 -0.0014
C 12.27684 19.83919 0.02162
C 13.46528 19.20502 0.0076
C 13.54494 17.69894 0.01241
C 12.20243 17.01204 -0.01454
C 13.46088 15.04534 0.01416
C 14.72221 16.9496 0.02098
C 14.79809 15.54363 0.01848
C 16.02643 14.81002 -0.00619
C 18.35756 17.74492 -0.01581
C 17.07328 17.03829 0.01452
C 17.22855 15.55279 0.04892
C 18.47722 14.91104 -0.00111
C 18.47166 13.59431 -0.03557
C 17.41407 12.90072 0.03754
C 17.22294 2.70958 0.01739
C 18.35067 2.03766 0.00755
C 18.45888 0.62029 -0.0054
C 17.25078 0.00782 0.00667
C 19.69257 32.61682 0.00143
C 20.84499 31.90839 -0.017
C 20.78771 30.44099 0.00364
C 19.62876 29.71358 -0.00831
C 19.72238 28.32963 -0.02957
C 20.97736 27.66056 -0.04422
C 20.89629 26.22044 0.00654
C 19.68367 25.49009 -0.00703
C 19.71895 24.06324 -0.04076
C 18.4221 19.10942 0.02691
C 17.18909 19.81111 -0.01979
C 17.2062 21.31279 0.02188
C 18.43373 21.97622 -0.00316
C 15.94705 13.39172 -0.02162
C 14.84703 12.48025 0.00889
C 14.40408 11.28323 -0.00481
C 14.98425 8.58544 0.00979
C 14.05362 7.57349 0.01443
C 14.7808 4.38895 0.03505
C 14.83518 2.95417 -0.02815
C 15.9643 2.19857 -0.04147
C 15.96759 0.75253 -0.05302
C 9.91028 2.9648 -0.01536
C 14.76043 0.06024 0.00213
C 18.47868 31.85798 -0.00289
C 18.38701 30.42942 0.00028
C 17.20183 29.77769 -0.02213
C 17.20223 28.26736 0.03698
C 18.48169 27.61218 -0.00109
C 18.42162 26.19463 -0.00491
C 17.20588 25.51775 0.03338
C 17.16625 24.11321 -0.0258
C 18.46771 23.42891 -0.0331
C 17.27197 32.61325 -0.00066
C 20.94203 23.35658 -0.00652
C 9.85097 4.49737 0.03101
C 9.83446 17.06796 -0.02245
C 3.62019 5.0356 0.03368
C 2.35974 4.35962 -0.02929
C 2.43642 2.79562 -0.00966
C 3.65228 2.15758 -0.03337
C 3.63217 0.77881 0.01227
C 2.41323 0.07265 0.00873
C 4.87925 32.75619 -0.00049
C 6.12437 32.03061 0.00848
C 6.11643 30.65933 -0.01303
C 4.8674 29.93787 -0.01378
C 4.87237 28.5008 0.02635
C 6.13232 27.76597 0.0127
C 6.06503 26.30448 0.01396
C 4.85627 25.56803 0.01849
C 4.82342 24.16793 -0.01142
C 6.08133 23.41529 -0.00562
C 6.06666 22.05491 -0.00494
C 4.87805 21.36319 0.00054
C 4.86348 19.94278 0.03007
C 3.69795 6.38275 -0.00077
C 6.07319 19.32795 -0.00095
C 2.71897 7.29909 0.01305
C 3.55749 10.40203 0.00988
C 3.61001 30.68379 0.03828
C 2.39615 29.93081 0.01226
C 2.4029 28.4444 -0.00279
C 3.54353 27.73374 0.01996
C 3.57742 26.3618 -0.03996
C 2.39301 25.61104 0.01465
C 2.43501 24.21339 -0.00074
C 3.61458 23.49789 -0.00518
C 3.6158 22.06931 0.0086
C 2.40997 21.32487 -0.00643
C 2.45084 19.8873 0.017
C 3.64038 19.21598 -0.03113
C 3.62959 17.81953 -0.02566
C 2.5273 17.02898 -0.00094
C 2.54429 15.55091 0.02322
C 3.89826 14.90483 -0.00725
C 3.64419 13.44413 -0.05697
C 2.52307 12.72879 0.01087
C 2.47869 11.33366 -0.01343
C 2.61501 8.83028 0.0276
C 6.08248 17.85727 0.01572
C 4.89987 17.09168 -0.04848
C 4.95797 15.71309 -0.00892
C 7.32819 3.03024 -0.01634
C 8.59052 2.35097 -0.00334
C 8.58273 0.88392 0.02339
C 7.37673 0.02314 0.01641
C 9.80965 32.73369 -0.00719
C 11.10531 32.00667 0.01364
C 11.03711 30.58659 -0.01062
C 9.79162 29.97516 -0.00033
C 9.78004 28.39715 0.03589
C 11.00819 27.70425 -0.02759
C 11.08826 26.3146 0.0402
C 9.83516 25.57938 0.00572
C 9.86092 24.14415 0.03592
C 11.02179 23.44128 0.00406
C 10.98226 22.01946 0.00943
C 9.79693 21.22638 0.02841
C 9.75907 19.89019 -0.01111
C 11.03566 19.18136 -0.01275
C 11.01458 17.73213 0.00985
C 7.29864 4.4561 0.00057
C 8.54303 4.96189 0.00093
C 7.23733 17.10256 0.01291
C 8.49479 17.65796 0.00438
C 5.96051 5.1972 -0.01362
C 4.86168 4.30938 -0.0008
C 4.86883 2.8972 0.0288
C 6.12226 2.18511 0.00393
C 6.14712 0.77194 0.00895
C 4.8889 0.1249 0.00685
C 7.37697 32.70203 0.02888
C 8.63441 32.01528 -0.00482
C 8.58215 30.64933 -0.01384
C 11.17803 5.13145 -0.00428
C 7.36926 29.89288 0.03693
C 8.57286 27.73912 0.00488
C 8.59832 26.36784 -0.01004
C 7.29902 25.62569 -0.02896
C 7.30245 24.13876 -0.00131
C 8.53363 23.50638 -0.01118
C 8.54996 22.03537 -0.014
C 7.3662 21.28841 0.02147
C 7.37611 19.87737 0.00373
C 8.49565 19.17598 -0.00191
C 7.35184 28.53163 0.01745
C 20.86717 21.96216 0.0058
C 19.60365 21.23163 -0.00865
C 19.64674 19.81206 0.00675
C 30.64364 2.23669 0.00716
C 30.64536 0.79274 0.00307
C 29.32654 0.08303 0.00346
C 31.87993 32.70761 0.01713
C 33.0638 32.00087 -0.01694
C 33.0932 30.54704 0.01428
C 31.8947 29.8683 -0.02142
C 31.95432 28.47972 0.0544
C 33.18027 27.78734 0.00026
C 33.21075 26.33886 0.00682
C 31.9713 25.62982 -0.01779
C 32.03048 24.18585 0.03794
C 33.29099 23.47271 0.01927
C 33.23025 22.06871 0.01574
C 31.99569 21.33261 -0.02383
C 32.0038 19.87958 -0.01429
C 33.20585 19.1319 -0.0136
C 33.23167 17.72074 0.00594
C 32.01564 17.01389 -0.02474
C 29.43266 2.86713 0.02108
C 31.98498 15.61949 0.00369
C 29.40525 4.37337 0.0103
C 30.65098 6.40979 0.01908
C 30.74901 26.31856 0.00261
C 29.52228 25.53997 0.03265
C 29.50384 24.12531 -0.02049
C 30.77792 23.49924 -0.01854
C 30.87186 22.07035 -0.01415
C 29.55858 21.28207 -0.03039
C 29.53434 19.89666 0.01836
C 30.76787 19.20997 0.03531
C 30.80109 17.80663 -0.00669
C 29.55501 16.99305 0.0101
C 29.48826 15.62876 0.01705
C 30.74018 14.83445 -0.0405
C 30.65677 13.47693 -0.01303
C 29.39138 12.77369 -0.01461
C 29.3858 11.32687 -0.02155
C 30.70675 10.63589 -0.00944
C 30.73525 9.17553 -0.03735
C 29.45183 8.56374 -0.00971
C 29.44819 7.16673 0.01518
C 30.66588 5.0082 0.07705
C 33.20066 14.94822 0.00455
C 33.19902 13.52008 -0.00644
C 32.00142 12.77182 -0.01839
C 34.43053 19.92253 0.01951
C 1.22832 19.22153 -0.01678
C 1.26604 17.73644 0.01223
C 0.02594 16.99866 0.00648
C 0.03141 15.58669 0.02114
C 1.27438 14.83532 -0.02957
C 1.23017 13.43552 0.00343
C 0.05841 12.825 -0.02656
C 0.04212 11.36651 -0.02442
C 1.21588 10.60345 -0.00027
C 1.2603 9.1949 -0.00583
C 34.4313 8.58542 -0.02302
C 0.05972 7.16688 -0.02849
C 1.31027 6.48722 0.02931
C 1.2316 5.07003 0.00628
C 34.41218 4.35849 -0.0345
C 34.39508 2.92551 -0.00931
C 1.1404 2.17011 -0.00939
C 1.16119 0.80758 -0.00468
C 34.40557 21.37722 -0.02213
C 1.19895 22.07008 0.02712
C 1.23944 23.4708 0.00723
C 0.04143 24.18262 0.03076
C 32.00829 11.35906 0.00137
C 33.21259 10.69072 0.00199
C 33.20367 9.23455 0.04381
C 31.95798 8.54084 0.02806
C 31.93091 7.08628 0.01504
C 33.1871 6.4122 -0.00069
C 33.23405 4.99056 0.04926
C 31.95836 4.34446 -0.03838
C 31.87694 2.9145 0.00349
C 30.73143 27.77132 0.02326
C 33.15071 2.16342 -0.00323
C 31.83875 0.0226 0.0001
C 34.3704 32.73424 -0.02927
C 1.17376 31.95403 -0.01404
C 1.08143 30.58884 0.01027
C 34.29214 29.87829 0.01831
C 34.35675 28.46389 -0.01037
C 1.1428 27.80684 -0.00439
C 1.18199 26.31461 -0.00598
C 34.38862 25.58584 -0.05239
C 33.12096 0.72324 -0.00841
C 29.45966 28.37321 0.00924
C 29.32859 29.8171 0.0014
C 30.65392 30.51406 0.01324
C 22.06464 15.62195 0.02239
C 23.19845 14.881 0.01153
C 23.06994 13.42321 0.02734
C 23.46183 2.19332 -0.0055
C 23.41661 0.6581 0.01515
C 22.08669 33.96141 -0.00225
C 24.51153 32.5891 0.00071
C 25.78297 31.91603 -0.01107
C 25.78082 30.45535 -0.01586
C 24.5754 29.74007 -0.01971
C 24.60006 28.29636 -0.02118
C 25.8064 27.53561 0.00733
C 25.85349 26.1633 -0.00178
C 24.605 25.45472 0.00768
C 24.62301 24.02303 -0.0276
C 25.85355 23.30816 0.03005
C 25.89445 21.90751 -0.04078
C 24.66966 21.21411 0.02117
C 24.63386 19.80541 0.02737
C 22.06785 17.08355 -0.03213
C 23.29525 17.65584 -0.02845
C 23.34446 19.05517 0.03374
C 22.09807 19.78311 0.0296
C 20.88007 19.13787 -0.00311
C 20.85329 17.70495 0.00742
C 19.68447 16.94065 -0.01594
C 19.69093 15.56263 0.0106
C 20.93259 14.73099 -0.01154
C 21.24426 13.39457 -0.01721
C 20.93889 0.61344 -0.02422
C 19.73426 34.01228 0.01277
C 22.0981 32.54327 0.00096
C 25.82665 19.10499 -0.00498
C 23.30205 31.83976 -0.01527
C 22.03883 29.66538 0.00199
C 22.22836 28.2815 0.01511
C 23.41638 27.58312 -0.00478
C 23.36911 26.14342 -0.01662
C 22.14625 25.46098 -0.01185
C 22.15969 24.0358 0.01126
C 23.44192 23.3271 0.01852
C 23.37318 21.94249 -0.00381
C 22.12869 21.26103 0.03046
C 23.29701 30.43219 0.01087
C 3.63157 32.05936 0.0174
C 25.8962 17.7126 0.00135
C 24.48589 15.56015 0.02555
C 27.10593 16.97687 0.00826
C 27.00608 15.56231 -0.00294
C 28.23336 14.94916 0.00152
C 28.17092 13.41112 0.01257
C 26.92257 12.73861 0.02316
C 26.85124 11.2907 0.04185
C 28.16351 10.71395 0.00194
C 28.10264 9.25627 -0.00621
C 26.8908 8.51112 0.02611
C 26.92662 7.23108 0.02198
C 28.20049 6.46127 0.01094
C 28.1812 5.03932 0.00235
C 26.91782 4.38214 0.01495
C 27.05753 2.86226 0.01259
C 28.25877 2.21727 0.01799
C 28.12361 0.74567 0.01699
C 26.94015 34.04273 -0.00416
C 29.46139 32.65132 0.01177
C 30.64828 31.95274 0.04266
C 28.31432 17.67743 0.00487
C 28.33925 19.14303 -0.00942
C 27.04781 19.83234 -0.02815
C 27.11568 21.17284 0.00622
C 25.66828 14.8936 0.01423
C 25.59666 13.51162 -0.00285
C 24.30404 12.80078 -0.009
C 25.64347 10.53436 -0.01199
C 25.74185 4.98466 -0.00229
C 24.4649 2.73077 -0.00938
C 25.78059 2.20015 -0.0264
C 25.72363 0.779 -0.01154
C 24.60749 0.0157 0.00684
C 24.58806 16.97357 0.03102
C 27.00338 32.66791 -0.01052
C 28.20361 30.55913 0.00367
C 26.97502 29.78257 0.04306
C 26.95286 28.37898 0.00996
C 28.23146 27.68243 0.00195
C 28.35648 26.28201 -0.00802
C 27.12955 25.47446 -0.00218
C 27.10983 24.08587 -0.01654
C 28.3439 23.45077 -0.00037
C 28.35691 21.97419 -0.0032
C 28.18895 31.96235 -0.01679
C 2.3982 32.73031 0.0073
