444
Graphene
C 34.4126 0.02859 0.01295
C 13.36853 14.98756 0.01291
C 13.41783 13.51641 0.00093
C 12.21214 12.78022 0.00057
C 12.31871 11.43479 -0.01634
C 13.54039 10.60326 -0.00334
C 13.51852 9.19745 0.02339
C 12.32808 8.53913 0.01641
C 12.33846 7.11131 -0.00719
C 13.53177 6.3979 0.01364
C 13.5227 4.94877 -0.01062
C 12.25661 4.22914 -0.00033
C 12.33389 2.83759 0.03589
C 13.5774 2.1581 -0.02759
C 13.59966 0.70824 0.0402
C 12.31403 34.05847 0.00572
C 14.70479 32.54264 0.03592
C 15.98185 31.90695 0.00406
C 15.9545 30.49808 0.00943
C 14.69629 29.83191 0.02841
C 14.73333 28.34789 -0.01111
C 15.99565 27.66145 -0.01275
C 15.95305 26.2291 0.00985
C 14.7246 25.51766 -0.02245
C 12.18948 15.62116 0.00438
C 12.23927 17.08978 -0.00191
C 13.52564 17.7239 0.00373
C 13.52527 19.1342 0.02147
C 11.10263 10.69594 -0.00494
C 11.11956 9.32012 0.00054
C 9.82078 8.65806 0.03007
C 9.8102 7.19563 -0.00095
C 11.01469 6.40351 0.01572
C 11.06272 4.96746 -0.04848
C 9.85901 4.32887 -0.00892
C 9.82713 2.96943 -0.01362
C 11.11066 2.24118 -0.0008
C 11.10008 0.74801 0.0288
C 9.83067 0.07942 0.00393
C 14.72566 24.1491 -0.00428
C 12.32735 32.66014 0.00895
C 13.44784 30.48706 0.02888
C 12.26034 29.83667 -0.00482
C 12.19316 28.42115 -0.01384
C 13.47709 27.74894 0.03693
C 13.52043 26.28886 0.01745
C 12.27369 25.63995 0.00488
C 12.27045 24.10296 -0.01004
C 13.52271 23.40217 -0.02896
C 13.52371 22.03499 -0.00131
C 12.2782 21.31632 -0.01118
C 12.2471 19.86131 -0.014
C 13.46375 31.92125 0.00685
C 16.00036 23.45929 0.03101
C 16.00714 22.02889 -0.01536
C 14.76944 21.33475 -0.02689
C 17.16733 24.12881 0.00052
C 18.47537 23.4313 -0.03682
C 18.44569 21.98086 0.01965
C 17.19721 21.27887 0.02058
C 17.134 19.88483 -0.01957
C 18.43324 19.1178 -0.0108
C 18.43678 17.68126 -0.00368
C 17.16417 16.97132 -0.02696
C 17.18842 15.59165 -0.00114
C 18.42697 14.88883 0.00228
C 18.42732 13.47362 0.00798
C 17.22281 25.60396 0.00374
C 17.17184 12.81206 0.00422
C 18.40466 10.67232 -0.03113
C 18.44011 9.26801 0.02098
C 17.21146 8.5112 0.01848
C 17.2118 7.10133 -0.00619
C 18.43943 6.39436 -0.02162
C 18.41614 4.97175 0.00889
C 17.19663 4.27251 -0.00481
C 17.20507 2.85107 0.00979
C 18.4198 2.15585 0.01443
C 18.38077 0.69104 0.03505
C 17.18756 34.03594 -0.02815
C 17.20327 11.34841 0.0351
C 9.90134 11.55518 -0.00562
C 18.4284 26.2977 -0.02813
C 17.19548 28.36976 0.05265
C 14.76549 19.9365 -0.01046
C 16.00109 19.13716 -0.00891
C 15.99199 17.70574 0.02819
C 14.76321 17.02806 0.00165
C 14.73658 15.64457 -0.02971
C 15.96859 14.86942 0.02894
C 15.93633 13.47525 -0.01789
C 14.63763 12.77606 0.00444
C 14.77611 11.32878 -0.00925
C 16.00998 10.67478 0.01877
C 15.99638 9.23584 0.01363
C 18.38435 27.70355 -0.01952
C 14.76489 8.51428 -0.02162
C 15.99172 6.35647 -0.0014
C 16.04379 4.94705 0.02162
C 14.78269 4.23327 0.0076
C 14.80606 2.88061 0.01241
C 16.0348 2.13478 -0.01454
C 15.9769 0.68302 0.01945
C 14.77861 33.97536 0.01416
C 17.12646 32.63263 0.03542
C 18.41832 31.92377 0.02299
C 18.44008 30.56225 0.00244
C 17.20784 29.82901 -0.01717
C 14.72101 7.10213 0.00415
C 19.64113 32.63838 -0.04147
C 10.84877 13.26992 -0.01142
C 9.56326 15.63836 0.01396
C 3.67457 0.75055 -0.00407
C 2.43717 0.03725 0.01138
C 5.00879 32.65173 0.03278
C 6.14061 31.96403 -0.00177
C 6.16558 30.53733 0.04421
C 4.99728 29.81156 0.00088
C 5.01519 28.42122 0.00828
C 6.21305 27.74877 -0.02375
C 6.13775 26.29064 0.00558
C 4.85005 25.60887 -0.0059
C 4.95827 24.20693 -0.01386
C 6.13208 23.50854 -0.02805
C 6.14379 22.03494 0.00081
C 4.86964 21.21731 0.00245
C 4.94017 19.84734 0.02728
C 6.13932 19.18684 -0.00039
C 6.11761 17.79322 0.0064
C 4.85226 17.03236 0.00211
C 4.92353 15.62467 -0.00449
C 6.30271 14.87477 -0.01979
C 6.27463 13.38353 0.02784
C 4.97172 12.80729 -0.01977
C 4.88802 11.36601 -0.00561
C 3.63198 2.10574 -0.01299
C 2.39225 2.81256 -0.0154
C 2.45595 4.24014 0.00662
C 3.70918 5.03343 0.00748
C 3.7747 30.51214 -0.03951
C 2.48199 29.89065 -0.00141
C 2.54382 28.48745 -0.00374
C 3.7618 27.71786 -0.0213
C 3.63845 26.29245 0.01116
C 2.46764 25.54113 -0.0005
C 2.46757 24.11633 -0.00018
C 3.7139 23.42503 0.01073
C 3.65957 21.94377 0.01984
C 2.46449 21.28599 0.00535
C 2.37172 19.82883 -0.00198
C 6.09821 10.65728 0.00208
C 3.66124 19.19209 -0.00012
C 2.32214 16.95441 -0.03672
C 2.43932 15.56082 0.01913
C 3.69107 14.8539 0.00267
C 3.76342 13.53751 0.00787
C 2.49034 12.71431 0.02426
C 2.46879 11.32077 0.01218
C 3.6551 10.64793 -0.01471
C 3.69033 9.26869 -0.02827
C 2.52729 8.52315 0.01078
C 2.44611 7.099 -0.00112
C 3.67968 6.43175 0.03345
C 3.55468 17.6745 -0.04306
C 6.12181 9.25983 0.01707
C 4.90196 8.54411 0.02769
C 4.89001 7.08455 -0.03291
C 7.33519 7.15037 -0.03113
C 8.58858 6.4743 -0.02566
C 8.60833 5.06434 -0.00094
C 7.34117 4.38046 0.02322
C 7.46742 2.90345 -0.00725
C 8.6461 2.16683 -0.05697
C 8.60815 0.7678 0.01087
C 7.40484 0.04866 -0.01343
C 9.8605 32.70945 0.00988
C 11.04946 31.98361 0.0276
C 11.01776 30.57558 0.01305
C 7.38969 8.65391 0.017
C 9.82483 29.86486 -0.00077
C 11.02456 27.76051 -0.02929
C 11.00749 26.37697 -0.00966
C 9.79984 25.54108 -0.03337
C 9.83296 24.15709 0.01227
C 11.03127 23.47583 0.00873
C 10.99885 22.09274 -0.00049
C 9.82407 21.30847 0.00848
C 9.86744 19.9142 -0.01303
C 11.02548 19.22706 -0.01378
C 11.04412 17.76383 0.02635
C 9.81606 17.13502 0.0127
C 9.8664 28.48826 0.03368
C 10.77529 14.86394 0.01849
C 8.58427 9.40142 -0.00643
C 7.31048 11.56358 -0.00518
C 6.08343 6.45653 -0.04999
C 6.1209 5.07653 0.04505
C 4.90889 4.32211 0.03284
C 4.89958 2.86194 -0.04307
C 6.14614 2.16658 0.03189
C 6.14503 0.7218 0.00031
C 4.90502 0.06168 -0.003
C 7.34988 32.75982 0.01402
C 8.62856 32.01738 0.02379
C 8.62477 30.56725 0.00907
C 7.37577 29.81365 0.00643
C 8.56706 10.98857 0.0086
C 7.39813 28.42444 -0.01509
C 8.55984 26.27139 0.02374
C 7.32896 25.55045 0.00402
C 7.37291 24.16206 0.0073
C 8.61743 23.50454 0.0174
C 8.615 22.04601 0.03828
C 7.42792 21.26108 0.01226
C 7.32328 19.87293 -0.00279
C 8.60218 19.20177 0.01996
C 8.52893 17.78781 -0.03996
C 7.3181 17.07165 0.01465
C 7.48268 15.59839 -0.00074
C 8.65789 27.69755 0.03267
C 20.87612 31.93898 -0.05302
C 20.84971 30.52031 0.00213
C 19.65354 29.80151 -0.00066
C 29.51724 15.57799 0.01705
C 30.75322 14.84152 -0.0405
C 30.71932 13.38238 -0.01303
C 29.45043 12.72822 -0.01461
C 29.41737 11.32938 -0.02155
C 30.71541 10.55068 -0.00944
C 30.80915 9.13517 -0.03735
C 29.52708 8.38942 -0.00971
C 29.47123 7.01689 0.01518
C 30.69696 6.30667 0.01908
C 30.75924 4.88949 0.07705
C 29.49766 4.23724 0.0103
C 29.55188 2.88869 0.02108
C 30.74962 2.14131 0.00716
C 30.77488 0.74569 0.00307
C 29.52738 0.04143 0.00346
C 31.98622 32.66845 0.01713
C 33.2585 31.95375 -0.01694
C 33.27367 30.5599 0.01428
C 32.00874 29.87279 -0.02142
C 32.02081 28.46534 0.0544
C 33.23259 27.74309 0.00026
C 33.18151 26.30399 0.00682
C 29.50806 17.05702 0.0101
C 30.74676 17.67717 -0.00669
C 30.70043 19.1407 0.03531
C 29.47457 19.85271 0.01836
C 27.03458 11.35052 0.04185
C 28.2428 10.56455 0.00194
C 28.30784 9.14786 -0.00621
C 27.00217 8.50985 0.02611
C 27.02756 7.09766 0.02198
C 28.27007 6.33891 0.01094
C 28.2786 4.96486 0.00235
C 27.01078 4.28302 0.01495
C 27.06 2.89421 0.01259
C 28.31911 2.15854 0.01799
C 28.29413 0.75283 0.01699
C 31.97086 25.58685 -0.01779
C 27.11334 0.0719 -0.00416
C 30.79973 31.98934 0.04266
C 30.74454 30.53671 0.01324
C 29.52268 29.76978 0.0014
C 29.4678 28.36925 0.00924
C 30.79346 27.70722 0.02326
C 30.75897 26.30724 0.00261
C 29.44255 25.63999 0.03265
C 29.46409 24.19454 -0.02049
C 30.68586 23.52728 -0.01854
C 30.58478 22.06943 -0.01415
C 29.40391 21.35982 -0.03039
C 29.45498 32.74745 0.01177
C 31.93715 24.22412 0.03794
C 33.16067 23.44179 0.01927
C 33.08268 22.00727 0.01574
C 34.42385 25.53933 -0.05239
C 0.03234 24.03311 0.03076
C 1.26377 23.4075 0.00723
C 1.18032 21.99961 0.02712
C 34.357 21.26249 -0.02213
C 34.32765 19.812 0.01951
C 1.1082 19.10674 -0.01678
C 1.15226 17.71359 0.01223
C 34.43237 16.95455 0.00648
C 34.40024 15.54365 0.02114
C 1.23467 14.85183 -0.02957
C 1.24577 26.25214 -0.00598
C 1.23524 13.47163 0.00343
C 0.03801 11.28676 -0.02442
C 1.24002 10.5963 -0.00027
C 1.3093 9.16368 -0.00583
C 0.0495 8.46264 -0.02302
C 0.04747 7.04716 -0.02849
C 1.2756 6.38224 0.02931
C 1.2302 4.9912 0.00628
C 34.42457 4.26699 -0.0345
C 34.42738 2.87461 -0.00931
C 1.23306 2.14728 -0.00939
C 1.22409 0.72773 -0.00468
C 34.42187 12.69103 -0.02656
C 27.00028 12.7397 0.02316
C 1.30678 27.70453 -0.00439
C 0.02016 29.87278 0.01831
C 31.89604 21.29166 -0.02383
C 31.95006 19.8719 -0.01429
C 33.14285 19.13345 -0.0136
C 33.12315 17.69754 0.00594
C 31.91346 17.00573 -0.02474
C 31.93124 15.55501 0.00369
C 33.17817 14.80813 0.00455
C 33.21508 13.41519 -0.00644
C 31.92714 12.77583 -0.01839
C 31.99829 11.28806 0.00137
C 33.2717 10.51532 0.00199
C 0.06116 28.4976 -0.01037
C 33.23014 9.15405 0.04381
C 31.97265 7.01564 0.01504
C 33.22844 6.31411 -0.00069
C 33.19216 4.91636 0.04926
C 31.99818 4.2071 -0.03838
C 31.97523 2.86983 0.00349
C 33.18914 2.13033 -0.00323
C 33.16277 0.70402 -0.00841
C 31.96018 0.04131 0.0001
C 0.00718 32.67244 -0.02927
C 1.26015 31.97061 -0.01404
C 1.2727 30.51782 0.01027
C 32.06073 8.42792 0.02806
C 28.2656 13.46751 0.01257
C 28.28708 14.84467 0.00152
C 27.07113 15.6343 -0.00294
C 22.09707 32.69131 -0.04422
C 23.32695 32.03629 0.00654
C 23.36491 30.57807 -0.00703
C 22.12858 29.85503 -0.04076
C 22.04867 28.39434 -0.00652
C 23.32421 27.70627 0.0058
C 23.34801 26.29509 -0.00865
C 22.17581 25.55257 0.00675
C 22.23037 24.13533 -0.00311
C 23.41441 23.41548 0.00742
C 23.41768 21.97908 -0.01594
C 19.61059 34.06252 -0.02957
C 22.15343 21.2909 0.0106
C 23.33319 19.18455 -0.01721
C 23.38316 17.7847 -0.02422
C 22.16198 17.12478 0.01277
C 22.15967 15.67139 0.00096
C 23.44796 14.95754 -0.01527
C 23.33323 13.47646 0.01087
C 22.07794 12.77112 0.00199
C 22.0821 11.33186 0.01511
C 23.27046 10.58959 -0.00478
C 23.31463 9.17612 -0.01662
C 22.03401 8.46807 -0.01185
C 22.12284 19.85839 -0.01154
C 22.08467 7.03872 0.01126
C 20.8796 0.70638 -0.00831
C 19.60507 2.81579 -0.017
C 19.63182 28.37758 -0.00289
C 20.86138 27.6192 0.00028
C 20.89272 26.224 -0.02213
C 19.61994 25.60602 0.03698
C 19.70537 24.13809 -0.00109
C 20.99312 23.48474 -0.00491
C 20.8264 22.02002 0.03338
C 19.67058 21.28314 -0.0258
C 19.69825 19.8631 -0.0331
C 20.86141 19.15223 -0.00316
C 20.83873 17.71794 0.02188
C 20.86719 2.16667 0.00364
C 19.66454 16.96157 -0.01979
C 20.90817 14.91438 -0.01581
C 20.79449 13.46248 0.01452
C 19.59389 12.79793 0.04892
C 19.67744 11.44679 -0.00111
C 20.85232 10.61518 -0.03557
C 20.82962 9.22535 0.03754
C 19.64142 8.52681 0.01739
C 19.64588 7.11762 0.00755
C 20.86347 6.34639 -0.0054
C 20.86795 4.93438 0.00667
C 19.64524 4.21875 0.00143
C 19.65579 15.61775 0.02691
C 3.71779 31.89675 -0.02419
C 23.26323 6.33553 0.01852
C 22.14703 4.23517 0.03046
C 24.52202 7.08383 -0.00285
C 25.77554 6.39669 -0.009
C 25.76896 4.8959 -0.01199
C 24.54012 4.24517 -0.00229
C 24.62608 2.8313 -0.00938
C 25.79744 2.11662 -0.0264
C 25.88197 0.68345 -0.01154
C 24.57052 34.03999 0.00684
C 27.05731 32.70451 -0.01052
C 28.32035 31.97248 -0.01679
C 28.24746 30.55309 0.00367
C 24.58418 8.53149 0.01423
C 27.03124 29.82558 0.04306
C 28.23716 27.70991 0.00195
C 28.19579 26.3365 -0.00802
C 27.01298 25.5818 -0.00218
C 27.07191 24.14277 -0.01654
C 28.29864 23.47514 -0.00037
C 28.19322 22.11378 -0.0032
C 27.00892 21.30295 0.00622
C 27.09881 19.84878 -0.02815
C 28.30185 19.19268 -0.00942
C 28.31307 17.88959 0.00487
C 27.06856 17.07346 0.00826
C 27.0017 28.36908 0.00996
C 23.37667 4.91614 -0.00381
C 25.76218 9.13313 0.02555
C 24.46173 11.33737 0.00135
C 22.10912 2.84624 0.0296
C 23.32263 2.12098 0.03374
C 23.35529 0.71638 -0.02845
C 22.07407 0.02115 -0.03213
C 24.56057 32.70938 0.02239
C 25.88791 32.02897 0.01153
C 25.81195 30.58706 0.02734
C 24.62994 29.94127 -0.0055
C 24.58747 28.4899 0.01515
C 25.79117 27.7187 -0.00225
C 25.78083 26.31232 0.00071
C 25.76818 10.60545 0.03102
C 24.5867 25.56171 -0.01107
C 25.86082 23.43801 -0.01971
C 25.80469 22.01186 -0.02118
C 24.60067 21.3462 0.00733
C 24.67031 19.91852 -0.00178
C 25.85571 19.18402 0.00768
C 25.79905 17.74642 -0.0276
C 24.588 17.0187 0.03005
C 24.58711 15.61479 -0.04078
C 25.78725 14.91905 0.02117
C 25.71418 13.45009 0.02737
C 24.49725 12.78522 -0.00498
C 24.58009 24.11278 -0.01586
C 2.48877 32.71758 0.02438
