316
Graphene
C 34.29756 34.06785 0.01295
C 14.85103 29.769 -0.00491
C 14.75793 28.41458 0.03338
C 16.09 27.69585 -0.0258
C 15.94218 26.18417 -0.0331
C 14.66531 25.58686 -0.00316
C 14.79808 24.14294 0.02188
C 15.96036 23.40659 -0.01979
C 15.81822 22.05691 0.02691
C 16.04 4.60123 -0.01581
C 14.71344 4.38651 0.01452
C 14.78459 2.83019 0.04892
C 15.9863 2.15024 -0.00111
C 15.95177 0.69135 -0.03557
C 14.75667 34.05684 0.03754
C 17.23147 32.70282 0.01739
C 15.96873 30.56099 -0.00109
C 16.05931 31.94366 0.03698
C 14.81216 32.63077 -0.02213
C 12.33036 0.03865 0.00028
C 9.8296 0.02648 -0.03113
C 12.29147 32.73986 0.02098
C 13.61634 31.8805 0.01848
C 13.57003 30.5261 -0.00619
C 12.28145 29.82988 -0.02162
C 12.30125 28.39732 0.00889
C 13.53431 27.67626 -0.00481
C 18.48787 31.91316 0.00755
C 13.45188 26.28596 0.00979
C 12.35756 24.26599 0.03505
C 13.41872 23.6583 -0.02815
C 13.46251 5.06586 -0.04147
C 12.3324 4.2089 -0.05302
C 12.39933 2.7411 0.00213
C 13.57456 2.05091 -0.00066
C 13.51722 0.65893 -0.00289
C 12.24874 25.66112 0.01443
C 18.5227 30.47816 -0.0054
C 17.23861 29.8632 0.00667
C 17.27947 28.40337 0.00143
C 19.70492 28.30862 0.00096
C 20.96241 27.80094 -0.01527
C 19.53737 25.38855 0.01087
C 19.59612 24.1632 0.00199
C 19.59274 21.27038 0.01511
C 19.57335 19.93186 -0.00478
C 20.72764 19.20001 -0.01662
C 19.73758 29.78554 0.01277
C 21.04513 17.93454 -0.01185
C 21.25021 4.41204 0.01852
C 19.8131 4.25134 -0.00381
C 19.65409 2.88051 0.03046
C 20.92732 2.14116 0.0296
C 20.87779 0.76559 0.03374
C 19.71938 0.01721 -0.02845
C 22.11689 32.73526 -0.03213
C 19.62864 7.47884 0.01126
C 11.09416 0.78576 0.0351
C 20.93319 30.55752 -0.02422
C 19.67658 32.69054 -0.01154
C 18.50708 27.7012 -0.017
C 18.36818 26.34994 0.00364
C 17.17592 25.5156 -0.00831
C 17.21934 24.07132 -0.02957
C 18.43232 23.35445 -0.04422
C 18.45045 22.04304 0.00654
C 16.96388 21.29674 -0.00703
C 20.88577 32.01225 -0.01721
C 17.20934 19.84331 -0.04076
C 18.77711 6.47222 0.0058
C 18.57728 5.01826 -0.00865
C 17.35006 4.27244 0.00675
C 17.25924 2.82244 -0.00311
C 18.46831 2.06482 0.00742
C 18.46778 0.63595 -0.01594
C 17.21737 34.04257 0.0106
C 18.2509 19.43542 -0.00652
C 23.28902 31.98752 0.02239
C 11.14279 2.17005 0.00422
C 9.91532 4.2064 0.00228
C 2.42434 2.85094 -0.01062
C 3.58066 2.13949 -0.00033
C 3.63441 0.75094 0.03589
C 2.41317 0.06228 -0.02759
C 4.8689 32.60424 0.0402
C 6.13351 31.91292 0.00572
C 6.10081 30.54696 0.03592
C 4.90884 29.79505 0.00406
C 4.90348 28.36276 0.00943
C 6.09934 27.62544 0.02841
C 6.05536 26.17217 -0.01111
C 4.86822 25.46206 -0.01275
C 4.83664 24.064 0.00985
C 6.19709 23.46315 -0.02245
C 6.19687 9.3179 -0.00428
C 2.44252 4.28133 0.01364
C 3.70355 4.97741 -0.00719
C 3.7319 6.43977 0.01641
C 2.49681 7.12281 0.02339
C 3.6753 30.5837 0.01745
C 2.44197 29.81462 0.00488
C 2.44932 28.4153 -0.01004
C 3.68866 27.66063 -0.02896
C 3.63893 26.20906 -0.00131
C 2.42485 25.50373 -0.01118
C 2.49423 24.12808 -0.014
C 4.9699 8.54621 0.03101
C 3.70909 23.40974 0.02147
C 2.71335 21.27083 -0.00191
C 2.42299 19.95827 0.00438
C 2.27474 12.86484 0.01291
C 2.5513 11.45185 0.00093
C 3.59479 10.57407 0.00057
C 3.70379 9.26133 -0.01634
C 2.4775 8.55754 -0.00334
C 3.85976 22.00657 0.00373
C 5.03141 7.0976 -0.01536
C 6.21311 6.38524 -0.02689
C 6.19021 4.96969 -0.01046
C 7.43104 2.87672 0.02299
C 8.60358 2.04657 0.00244
C 8.59086 0.71782 -0.01717
C 7.36082 34.04483 0.05265
C 9.75649 32.66072 -0.01952
C 11.00435 32.00447 -0.02813
C 11.10852 30.47838 0.00374
C 7.39997 4.30926 0.03542
C 9.77207 29.76749 0.00052
C 10.96482 27.64913 0.01965
C 10.97941 26.32762 0.02058
C 9.76417 25.54835 -0.01957
C 9.65554 24.11305 -0.0108
C 9.80926 7.18921 -0.00368
C 10.82192 6.3901 -0.02696
C 11.14804 4.92995 -0.00114
C 9.7851 28.40027 -0.03682
C 9.92347 2.79876 0.00798
C 8.70168 5.00698 0.01416
C 7.41552 7.06892 -0.01454
C 4.85194 4.26164 -0.00891
C 4.83265 2.85522 0.02819
C 6.07635 2.12499 0.00165
C 6.05772 0.70333 -0.02971
C 4.84328 0.00337 0.02894
C 7.34478 32.63976 -0.01789
C 8.57965 31.89961 0.00444
C 8.65688 6.39315 0.01945
C 8.50994 30.53059 -0.00925
C 7.28203 28.37614 0.01363
C 8.47495 27.61805 -0.02162
C 8.54114 26.27847 0.00415
C 7.33924 25.46416 -0.0014
C 7.35702 24.05604 0.02162
C 8.55532 9.25306 0.0076
C 7.38937 8.50586 0.01241
C 7.35056 29.78784 0.01877
C 23.30985 30.61576 0.01153
C 22.12166 29.87081 0.02734
C 22.07637 28.48019 -0.0055
C 31.92364 24.14362 0.03794
C 33.25866 23.426 0.01927
C 33.2872 21.98907 0.01574
C 31.99931 21.27948 -0.02383
C 31.98078 19.90465 -0.01429
C 33.34438 19.21605 -0.0136
C 33.19506 17.87477 0.00594
C 31.94445 17.116 -0.02474
C 31.93272 15.64955 0.00369
C 33.12071 15.04789 0.00455
C 33.13039 13.61334 -0.00644
C 31.87697 12.85387 -0.01839
C 31.92422 11.36778 0.00137
C 33.21379 10.75469 0.00199
C 33.17666 9.29318 0.04381
C 31.91507 25.53027 -0.01779
C 33.13623 26.21042 0.00682
C 33.15008 27.65104 0.00026
C 31.95073 28.33492 0.0544
C 29.39631 11.26279 -0.02155
C 30.72722 10.65416 -0.00944
C 30.80701 9.22424 -0.03735
C 29.56955 8.48864 -0.00971
C 29.6342 7.04818 0.01518
C 30.85062 6.33164 0.01908
C 30.72541 4.93645 0.07705
C 32.01857 8.51204 0.02806
C 29.37703 4.27528 0.0103
C 30.69405 2.16858 0.00716
C 30.64166 0.72243 0.00307
C 29.36914 34.05896 0.00346
C 31.86767 32.67244 0.01713
C 33.14538 31.95225 -0.01694
C 33.10997 30.50271 0.01428
C 31.88209 29.8641 -0.02142
C 29.44792 2.86673 0.02108
C 32.02902 7.17272 0.01504
C 33.19594 6.40492 -0.00069
C 33.18072 4.9952 0.04926
C 34.43216 17.14386 0.00648
C 34.38865 15.71974 0.02114
C 1.17268 15.14433 -0.02957
C 1.24978 13.68617 0.00343
C 34.37871 12.92873 -0.02656
C 34.42384 11.52217 -0.02442
C 1.24124 10.8493 -0.00027
C 1.30988 17.67731 0.01223
C 1.25384 9.2465 -0.00583
C 0.01199 7.14434 -0.02849
C 1.21533 6.42945 0.02931
C 1.24526 4.96465 0.00628
C 0.00099 4.30041 -0.0345
C 34.38122 2.88978 -0.00931
C 1.15364 2.14363 -0.00939
C 1.14177 0.71434 -0.00468
C 34.41447 8.6595 -0.02302
C 29.36357 12.71079 -0.01461
C 1.35317 19.07833 -0.01678
C 0.13329 21.27166 -0.02213
C 31.92787 4.28661 -0.03838
C 31.98519 2.85504 0.00349
C 33.13663 2.21471 -0.00323
C 33.1103 0.72456 -0.00841
C 31.81578 0.02228 0.0001
C 34.35205 32.65607 -0.02927
C 1.16054 31.95338 -0.01404
C 0.16497 19.88062 0.01951
C 1.20381 30.56342 0.01027
C 34.33555 28.41561 -0.01037
C 1.19946 27.70863 -0.00439
C 1.17862 26.29207 -0.00598
C 34.43269 25.56872 -0.05239
C 0.03408 24.13148 0.03076
C 1.29319 23.45368 0.00723
C 1.37556 22.00684 0.02712
C 34.34625 29.86756 0.01831
C 30.61488 13.49043 -0.01303
C 30.71755 14.91227 -0.0405
C 29.48119 15.60349 0.01705
C 25.8199 17.7762 -0.00285
C 24.52979 17.01348 -0.009
C 24.51974 15.63453 -0.01199
C 25.6486 14.84717 -0.00229
C 25.74383 13.42167 -0.00938
C 24.46502 12.65853 -0.0264
C 24.63186 2.92597 -0.01154
C 25.86294 19.21579 0.01423
C 25.74573 2.1481 0.00684
C 24.53021 0.06855 -0.01679
C 26.9481 32.6801 0.00367
C 28.16178 31.95967 0.04306
C 28.16546 30.46385 0.00996
C 26.95823 29.80995 0.00195
C 26.95751 28.38387 -0.00802
C 28.20204 27.62598 -0.00218
C 25.72709 0.7257 -0.01052
C 28.22968 26.20891 -0.01654
C 24.59309 20.01051 0.02555
C 24.50629 28.3946 0.00135
C 21.98677 19.6271 0.01515
C 23.33405 19.16325 -0.00225
C 23.37424 17.80127 0.00071
C 22.17605 17.11987 -0.01107
C 22.11101 15.711 -0.01586
C 23.23729 15.00277 -0.01971
C 23.3242 13.48165 -0.02118
C 25.65813 27.83647 0.03102
C 22.32653 12.51155 0.00733
C 23.23451 2.49899 0.00768
C 23.25185 0.93567 -0.0276
C 22.11526 0.09944 0.03005
C 24.50335 32.69613 -0.04078
C 25.68295 31.89151 0.02117
C 25.72067 30.45915 0.02737
C 24.49536 29.8451 -0.00498
C 21.94781 3.19162 -0.00178
C 3.62117 31.97231 0.03693
C 27.04284 25.38081 -0.00037
C 28.2686 23.39465 0.00622
C 29.34168 32.60554 0.01177
C 30.64472 32.02099 0.04266
C 30.61836 30.5101 0.01324
C 29.39131 29.78556 0.0014
C 29.35369 28.3339 0.00924
C 30.6703 27.63529 0.02326
C 30.69674 26.25642 0.00261
C 26.96129 34.07007 -0.00416
C 29.48515 25.55411 0.03265
C 30.65184 23.4482 -0.01854
C 30.68413 21.96684 -0.01415
C 29.43589 21.30239 -0.03039
C 29.50804 19.85314 0.01836
C 30.68772 19.18176 0.03531
C 30.72988 17.79757 -0.00669
C 29.44433 17.03254 0.0101
C 29.47238 24.11702 -0.02049
C 27.11494 24.16553 -0.0032
C 28.20476 0.74366 0.01699
C 27.03089 2.80698 0.01259
C 28.22949 21.96462 -0.02815
C 26.94778 21.30656 -0.00942
C 27.07322 19.85548 0.00487
C 28.25893 19.17497 0.00826
C 28.26559 17.76213 -0.00294
C 27.03466 16.99511 0.00152
C 27.02502 15.54582 0.01257
C 28.2802 2.14864 0.01799
C 28.18864 14.89423 0.02316
C 26.97245 12.75099 0.00194
C 26.91612 11.36962 -0.00621
C 27.99778 10.47178 0.02611
C 28.29038 9.02843 0.02198
C 28.32055 6.41222 0.01094
C 28.1065 4.99971 0.00235
C 26.99829 4.15756 0.01495
C 28.20763 13.47064 0.04185
C 2.33514 32.68667 -0.01384
