303
Graphene
C 34.33107 34.07125 0.01295
C 11.02531 31.97773 0.01452
C 11.13347 30.5106 0.04892
C 9.92469 29.74241 -0.00111
C 9.78518 28.34182 -0.03557
C 11.01634 27.60748 0.03754
C 11.03522 26.21029 0.01739
C 9.85693 25.57372 0.00755
C 9.80466 24.11517 -0.0054
C 11.02303 23.57037 0.00667
C 11.02301 22.0632 0.00143
C 9.8363 21.25014 -0.017
C 9.90344 19.89265 0.00364
C 9.78015 8.49583 -0.00831
C 9.93799 7.16432 -0.02957
C 11.24325 6.31981 -0.04422
C 9.85568 32.69646 -0.01581
C 11.21906 5.06101 0.00654
C 7.40405 0.0429 0.02691
C 8.54333 2.15292 0.02188
C 8.49339 17.69757 -0.02815
C 7.22491 17.09419 -0.04147
C 7.31358 15.74781 -0.05302
C 8.41938 14.91023 0.00213
C 8.48457 13.69043 -0.00066
C 7.30128 12.8867 -0.00289
C 7.4216 11.53055 0.00028
C 8.61937 10.82148 -0.02213
C 8.75207 9.38036 0.03698
C 7.42574 8.51542 -0.00109
C 7.50342 7.11136 -0.00491
C 8.71906 6.39375 0.03338
C 8.63722 4.93644 -0.0258
C 7.39214 4.28042 -0.0331
C 7.35234 2.76773 -0.00316
C 8.63529 0.70534 -0.01979
C 8.63229 19.10418 0.03505
C 9.88688 4.26327 -0.00703
C 11.05691 2.11407 -0.00652
C 12.28127 0.08072 0.01126
C 14.7686 32.58327 0.01852
C 15.98748 31.87949 -0.00381
C 16.00631 30.42936 0.03046
C 14.69066 29.77463 0.0296
C 14.63276 28.35291 0.03374
C 15.89534 27.59633 -0.02845
C 16.00732 26.15547 -0.03213
C 14.7211 25.57408 0.02239
C 14.70891 24.17795 0.01153
C 15.90507 23.45444 0.02734
C 14.65885 4.22956 -0.0055
C 14.91676 2.85568 0.01515
C 16.13385 2.1669 -0.00225
C 16.03402 0.71103 0.00071
C 13.50701 0.68631 -0.01185
C 9.87016 2.87646 -0.04076
C 13.59423 2.09651 -0.01662
C 12.39729 4.29357 0.01511
C 11.0335 0.71401 0.0058
C 9.85548 0.00393 -0.00865
C 12.24529 32.75051 0.00675
C 13.54721 31.9539 -0.00311
C 13.51832 30.55482 0.00742
C 12.2572 29.8209 -0.01594
C 12.22145 28.37371 0.0106
C 13.47205 27.72154 -0.01154
C 13.47918 26.31644 -0.01721
C 12.24325 25.62048 -0.02422
C 12.27924 24.14447 0.01277
C 13.46189 23.44592 0.00096
C 13.37369 21.99663 -0.01527
C 12.27124 21.49325 0.01087
C 13.62638 4.82819 0.00199
C 12.37442 2.80712 -0.00478
C 14.78045 34.03457 -0.01107
C 7.32011 19.80858 0.01443
C 8.58396 21.97128 -0.00481
C 3.66045 10.71812 0.00985
C 3.80284 9.25598 -0.02245
C 2.53279 8.5886 -0.00428
C 2.4498 7.18142 0.03101
C 3.72029 6.49785 -0.01536
C 3.75449 5.02593 -0.02689
C 2.45249 4.2486 -0.01046
C 2.40625 2.85633 -0.00891
C 3.68384 2.14511 0.02819
C 3.64088 0.73344 0.00165
C 2.35968 0.0858 -0.02971
C 4.99083 32.63383 0.02894
C 6.16564 32.00268 -0.01789
C 6.14774 30.52478 0.00444
C 4.84484 29.87386 -0.00925
C 2.43696 11.48862 -0.01275
C 4.76157 28.38688 0.01877
C 2.37861 12.85385 -0.01111
C 3.69008 14.88614 0.00943
C 3.56248 30.54889 0.00057
C 2.29935 29.87449 -0.01634
C 2.22264 28.44434 -0.00334
C 3.50409 27.69268 0.02339
C 3.59732 26.3091 0.01641
C 2.29717 25.62259 -0.00719
C 2.31572 24.17529 0.01364
C 3.59164 23.48264 -0.01062
C 3.62883 22.05693 -0.00033
C 2.3559 21.35872 0.03589
C 2.35381 19.9784 -0.02759
C 3.60442 19.21444 0.0402
C 3.57462 17.78534 0.00572
C 2.34325 17.13955 0.03592
C 2.4697 15.66243 0.00406
C 3.64814 13.53137 0.02841
C 7.37641 21.30439 0.00979
C 6.02557 27.6062 0.01363
C 4.90201 25.4978 0.00415
C 4.9471 4.29117 -0.01957
C 4.87406 2.77983 -0.0108
C 6.14395 2.02188 -0.00368
C 6.09403 0.6681 -0.02696
C 4.89348 0.01878 -0.00114
C 7.43183 32.67281 0.00228
C 8.64938 31.86865 0.00798
C 8.5345 30.49786 0.00422
C 7.29999 29.76825 0.0351
C 7.21347 28.28806 -0.03113
C 8.50107 27.65546 0.02098
C 8.54159 26.20005 0.01848
C 7.28041 25.50984 -0.00619
C 7.4322 24.12927 -0.02162
C 8.60208 23.36944 0.00889
C 6.2297 4.99436 0.02058
C 6.07114 26.1298 -0.02162
C 6.20525 6.38442 0.01965
C 4.98128 8.54903 0.00052
C 4.85666 24.07084 -0.0014
C 6.1623 23.402 0.02162
C 6.13328 21.98415 0.0076
C 4.86554 21.36084 0.01241
C 4.88944 19.95542 -0.01454
C 6.06206 19.22366 0.01945
C 5.92085 17.82156 0.01416
C 4.77038 17.12739 0.03542
C 4.86592 15.67117 0.02299
C 6.09771 14.90985 0.00244
C 6.09817 13.56834 -0.01717
C 4.85107 12.78525 0.05265
C 4.85493 11.35614 -0.01952
C 6.18846 10.69967 -0.02813
C 6.21275 9.36003 0.00374
C 5.03829 7.12565 -0.03682
C 3.7695 31.96577 0.00093
C 17.22186 32.64465 -0.01586
C 18.39245 30.47086 -0.02118
C 31.85673 25.52838 0.01574
C 31.91107 24.12713 -0.02383
C 33.07451 23.46927 -0.01429
C 33.15276 22.03283 -0.0136
C 31.85748 21.37911 0.00594
C 31.8211 19.9573 -0.02474
C 33.14216 19.29407 0.00369
C 33.13951 17.83909 0.00455
C 31.89107 17.06004 -0.00644
C 31.95872 15.64643 -0.01839
C 33.24205 14.98006 0.00137
C 33.10671 13.61119 0.00199
C 31.90807 12.94233 0.04381
C 33.2476 10.82288 0.02806
C 33.30318 9.51135 0.01504
C 33.0056 26.32735 0.01927
C 33.01696 6.56643 -0.00069
C 32.62824 27.85881 0.03794
C 32.16264 32.47924 0.00682
C 30.66628 26.27372 -0.00971
C 29.45885 25.57132 0.01518
C 29.36805 24.17115 0.01908
C 30.64351 23.3867 0.07705
C 30.63897 21.99867 0.0103
C 29.43343 21.31252 0.02108
C 29.40617 19.89711 0.00716
C 30.66881 19.1887 0.00307
C 30.63221 17.79025 0.00346
C 29.42242 16.96369 0.01713
C 29.68267 15.60551 -0.01694
C 30.87597 14.86378 0.01428
C 30.66432 2.00786 -0.02142
C 30.68741 0.71819 0.0544
C 29.42837 34.07501 0.00026
C 33.41033 31.59071 -0.01779
C 31.06149 27.754 -0.03735
C 33.00069 5.04182 0.04926
C 31.72547 2.89991 0.00349
C 0.05642 15.72329 0.02114
C 1.24421 15.04076 -0.02957
C 1.14405 13.6011 0.00343
C 34.40964 12.87109 -0.02656
C 0.02025 11.48853 -0.02442
C 1.21275 10.72825 -0.00027
C 1.34225 9.31259 -0.00583
C 0.0195 8.69106 -0.02302
C 34.28423 7.27107 -0.02849
C 1.16645 6.40221 0.02931
C 1.17223 4.99294 0.00628
C 34.30311 4.26643 -0.0345
C 34.33385 2.84214 -0.00931
C 1.17849 2.15588 -0.00939
C 1.07902 0.79722 -0.00468
C 34.32224 17.11906 0.00648
C 31.90113 4.18321 -0.03838
C 1.10892 17.78969 0.01223
C 34.37024 19.9533 0.01951
C 33.11584 2.08399 -0.00323
C 33.08203 0.67435 -0.00841
C 31.96325 33.93866 0.0001
C 0.00353 32.56786 -0.02927
C 1.28007 31.95823 -0.01404
C 1.09844 30.63929 0.01027
C 33.97086 30.27217 0.01831
C 33.78169 28.72975 -0.01037
C 0.86043 27.87111 -0.00439
C 1.02938 26.44426 -0.00598
C 34.25649 25.66158 -0.05239
C 34.2792 24.24824 0.03076
C 1.10288 23.51277 0.00723
C 1.11547 22.0775 0.02712
C 34.35193 21.35885 -0.02213
C 1.1622 19.22769 -0.01678
C 18.42596 31.9115 -0.01971
C 29.67942 28.44325 -0.00944
C 30.5513 30.66839 -0.01461
C 20.87671 23.32985 -0.01154
C 21.11998 21.96254 0.00684
C 19.5348 0.05833 -0.01052
C 22.02129 32.78026 -0.01679
C 23.19211 32.00266 0.00367
C 23.26909 30.55108 0.04306
C 22.02877 29.83525 0.00996
C 22.15342 28.43562 0.00195
C 23.36559 27.69645 -0.00802
C 23.28681 26.26347 -0.00218
C 22.08118 25.54389 -0.01654
C 22.07398 24.08767 -0.00037
C 23.37571 23.44619 -0.0032
C 23.36613 22.04827 0.00622
C 22.28953 21.10945 -0.02815
C 19.54843 24.0166 -0.0264
C 22.93565 19.63239 -0.00942
C 19.65176 25.52165 -0.00938
C 20.93412 27.635 -0.01199
C 17.17691 29.75278 0.00733
C 17.10599 28.28125 -0.00178
C 18.34142 27.65307 0.00768
C 18.43598 26.23052 -0.0276
C 17.26896 25.45701 0.03005
C 17.16984 24.04833 -0.04078
C 18.51542 23.25926 0.02117
C 17.55024 2.49971 0.02737
C 18.38122 0.85819 -0.00498
C 17.28831 34.06098 0.00135
C 19.64264 32.73279 0.03102
C 20.82244 32.00499 0.02555
C 20.85586 30.55055 0.01423
C 19.62447 29.80278 -0.00285
C 19.58039 28.3573 -0.009
C 20.86648 26.28057 -0.00229
C 29.50249 29.82985 -0.02155
C 22.36649 34.07192 0.00487
C 25.68325 32.00421 -0.00294
C 28.28534 27.78007 0.00924
C 28.26974 26.23907 0.02326
C 26.99104 25.57851 0.00261
C 27.01227 24.18015 0.03265
C 28.2031 23.43053 -0.02049
C 28.26225 22.03753 -0.01854
C 27.00822 21.3221 -0.01415
C 26.94088 19.92424 -0.03039
C 28.12341 19.23072 0.01836
C 28.23278 17.73785 0.03531
C 26.93225 17.19758 -0.00669
C 28.19871 0.53333 0.0101
C 26.94516 33.99875 0.01705
C 29.51787 32.63117 -0.0405
C 30.83494 31.93251 -0.01303
C 27.05961 28.47956 0.0014
C 24.46826 32.71436 0.00826
C 26.94524 29.92108 0.01324
C 28.24139 31.96592 0.01177
C 25.71674 30.52872 0.00152
C 24.51901 29.90172 0.01257
C 24.55043 28.50014 0.02316
C 25.82965 27.7431 0.04185
C 25.76629 26.3486 0.00194
C 24.50491 25.60713 -0.00621
C 24.57505 24.18473 0.02611
C 25.80788 23.48595 0.02198
C 25.80039 22.08844 0.01094
C 24.59806 21.3548 0.00235
C 24.42512 19.89277 0.01495
C 25.62808 19.14089 0.01259
C 25.91722 17.71274 0.01799
C 24.24725 0.04873 0.01699
C 26.98276 32.65477 -0.00416
C 28.24229 30.52736 0.04266
C 2.49251 32.73392 0.01291
