439
Graphene
C 34.41649 34.07116 0.01295
C 12.17318 12.85848 -0.00334
C 12.18988 11.36317 0.02339
C 13.37725 10.65637 0.01641
C 13.41479 9.30023 -0.00719
C 12.12525 8.53392 0.01364
C 12.20006 7.11561 -0.01062
C 13.52206 6.4474 -0.00033
C 13.56373 5.06171 0.03589
C 12.28719 4.43073 -0.02759
C 12.32211 2.94725 0.0402
C 13.4667 2.1259 0.00572
C 13.45217 0.79797 0.03592
C 12.35874 0.0582 0.00406
C 14.70034 32.69892 0.00943
C 15.98717 31.96764 0.02841
C 15.93375 30.58656 -0.01111
C 14.65954 29.92548 -0.01275
C 14.7265 28.40642 0.00985
C 15.88827 27.67876 -0.02245
C 15.92053 26.20364 -0.00428
C 14.70424 25.53544 0.03101
C 14.68909 24.21125 -0.01536
C 15.99129 23.38962 -0.02689
C 13.46918 13.54878 -0.01634
C 13.52856 14.96036 0.00057
C 12.2325 15.668 0.00093
C 12.28578 17.07431 0.01291
C 9.67914 8.59468 0.01572
C 9.67486 7.18684 -0.04848
C 10.89795 6.45884 -0.00892
C 10.91775 4.97332 -0.01362
C 9.70835 4.28295 -0.0008
C 9.77326 2.90416 0.0288
C 11.11834 2.22596 0.00393
C 11.14411 0.83961 0.00895
C 9.84214 0.13014 0.00685
C 12.28007 32.68627 0.02888
C 13.47879 32.04589 -0.00482
C 15.98084 22.05081 -0.01046
C 13.45742 30.55061 -0.01384
C 12.24922 28.43278 0.01745
C 13.49979 27.70123 0.00488
C 13.45267 26.30952 -0.01004
C 12.24326 25.63751 -0.02896
C 12.3062 24.15837 -0.00131
C 13.54225 23.4443 -0.01118
C 13.55808 21.95717 -0.014
C 12.3365 21.29209 0.02147
C 12.32201 19.95165 0.00373
C 13.55823 19.24162 -0.00191
C 13.52896 17.78601 0.00438
C 12.24256 29.85808 0.03693
C 10.96462 9.25236 -0.00095
C 14.72404 21.24499 -0.00891
C 15.99675 19.17705 0.00165
C 18.45258 21.9445 -0.01957
C 17.2224 21.27767 -0.0108
C 17.19187 19.86369 -0.00368
C 18.37989 19.16039 -0.02696
C 18.48295 17.81705 -0.00114
C 17.24173 17.10806 0.00228
C 17.20573 15.64049 0.00798
C 18.31446 14.94425 0.00422
C 18.38467 13.45244 0.0351
C 17.12302 12.77463 -0.03113
C 17.16813 11.41233 0.02098
C 18.35781 10.66262 0.01848
C 18.3146 9.21314 -0.00619
C 17.01021 8.52312 -0.02162
C 17.09 7.14158 0.00889
C 18.31917 6.42306 -0.00481
C 18.34855 4.97635 0.00979
C 17.21892 4.26379 0.01443
C 17.17901 2.82245 0.03505
C 18.40461 2.17757 -0.02815
C 18.42697 0.71105 -0.04147
C 17.18406 0.01501 -0.05302
C 19.6547 32.69418 0.00213
C 18.40501 23.45338 0.02058
C 17.14266 24.15912 0.01965
C 17.19597 25.57733 -0.03682
C 18.40473 26.25166 0.00052
C 15.91826 17.75438 -0.02971
C 14.67454 17.09687 0.02894
C 14.7886 15.73865 -0.01789
C 15.95712 14.93853 0.00444
C 15.87193 13.51789 -0.00925
C 14.66238 12.7936 0.01877
C 14.6416 11.39768 0.01363
C 15.89973 10.71963 -0.02162
C 15.82783 9.29843 0.00415
C 14.66534 8.63572 -0.0014
C 14.70044 7.18106 0.02162
C 14.74533 19.85099 0.02819
C 15.94995 6.33249 0.0076
C 14.67648 4.2919 -0.01454
C 14.74267 2.85027 0.01945
C 15.98385 2.10032 0.01416
C 15.91414 0.61869 0.03542
C 14.68008 0.04695 0.02299
C 17.23916 32.60419 0.00244
C 18.42877 31.96232 -0.01717
C 18.4045 30.56259 0.05265
C 17.19918 29.85177 -0.01952
C 17.18358 28.37156 -0.02813
C 18.43652 27.70394 0.00374
C 15.94866 4.95828 0.01241
C 20.87563 31.98242 -0.00066
C 10.97996 10.66294 0.03007
C 9.80624 12.762 -0.00494
C 4.83185 29.82097 0.00088
C 4.91022 28.45421 0.00828
C 6.14647 27.78095 -0.02375
C 6.13957 26.31145 0.00558
C 4.84049 25.67554 -0.0059
C 4.87215 24.18496 -0.01386
C 6.08095 23.4805 -0.02805
C 5.99479 22.07281 0.00081
C 4.84722 21.31759 0.00245
C 4.96285 19.86967 0.02728
C 6.14165 19.12217 -0.00039
C 5.96833 17.72786 0.0064
C 4.74832 17.04315 0.00211
C 4.76516 15.54992 -0.00449
C 6.08336 14.92819 -0.01979
C 6.08342 13.56722 0.02784
C 4.81717 12.73504 -0.01977
C 4.89241 11.35744 -0.00561
C 6.097 10.62673 0.00208
C 6.00186 9.23267 0.01707
C 6.01156 6.68628 0.02769
C 5.85191 5.3422 -0.03291
C 4.17614 4.46189 -0.04999
C 6.08676 30.61178 0.04421
C 6.15975 32.02912 -0.00177
C 4.97047 32.70562 0.03278
C 2.51923 0.06252 0.01138
C 3.68814 30.63867 -0.0005
C 2.46067 29.92147 -0.00018
C 2.46181 28.49322 0.01073
C 3.67499 27.77714 0.01984
C 3.67183 26.31408 0.00535
C 2.45261 25.51101 -0.00198
C 2.45982 24.13002 -0.00012
C 3.61911 23.38566 -0.04306
C 3.61701 21.9327 -0.03672
C 2.39197 21.20725 0.01913
C 2.50937 19.8787 0.00267
C 4.75005 3.03 0.04505
C 3.74807 19.18767 0.00787
C 2.50744 17.03541 0.01218
C 2.36449 15.5837 -0.01471
C 3.55212 14.77985 -0.02827
C 3.60213 13.33974 0.01078
C 2.3397 12.47322 -0.00112
C 2.44594 10.86224 0.03345
C 3.74604 10.51812 0.00748
C 2.80506 4.36334 0.00662
C 2.47409 2.78473 -0.0154
C 3.62963 2.04922 -0.01299
C 3.70298 0.65055 -0.00407
C 3.64629 17.755 0.02426
C 9.82384 11.41117 0.00054
C 6.02095 2.31749 0.03284
C 4.92635 0.02736 0.03189
C 7.29473 2.97288 -0.05697
C 8.51116 2.18557 0.01087
C 8.57094 0.70691 -0.01343
C 7.3286 0.04824 0.00988
C 9.82826 32.75581 0.0276
C 11.10021 31.98607 0.01305
C 11.02228 30.5305 -0.00077
C 9.79343 29.88157 0.03368
C 9.8099 28.49581 -0.02929
C 11.03964 27.76695 -0.00966
C 11.05917 26.29095 -0.03337
C 9.76863 25.64226 0.01227
C 9.80886 24.20688 0.00873
C 11.08571 23.4732 -0.00049
C 11.00625 22.08803 0.00848
C 9.7972 21.35125 -0.01303
C 9.82058 19.9407 -0.01378
C 11.04428 19.19698 0.02635
C 11.05829 17.81289 0.0127
C 9.79048 17.16642 0.01396
C 9.76548 15.70985 0.01849
C 11.00857 14.98225 -0.01142
C 10.93755 13.55207 -0.00562
C 7.15834 4.47753 -0.00725
C 8.47614 5.07428 0.02322
C 8.51433 6.51013 -0.00094
C 7.27964 7.19954 -0.02566
C 7.4093 32.72332 0.00031
C 8.64837 32.02537 -0.003
C 8.63808 30.60875 0.01402
C 7.40469 29.96435 0.02379
C 7.3631 28.49785 0.00907
C 8.59191 27.80326 0.00643
C 8.49413 26.38682 -0.01509
C 7.28848 25.57263 0.03267
C 7.38569 24.16338 0.02374
C 8.61789 23.36769 0.00402
C 8.56218 22.00099 0.0073
C 6.19256 0.79565 -0.04307
C 7.24289 21.39309 0.0174
C 8.61096 19.26614 0.01226
C 8.43941 17.93987 -0.00279
C 7.35719 17.02616 0.01996
C 7.35905 15.63466 -0.03996
C 8.57517 14.89295 0.01465
C 8.53601 13.50041 -0.00074
C 7.32523 12.87664 -0.00518
C 7.32192 11.45935 0.0086
C 8.47823 10.74311 -0.00643
C 8.445 9.39398 0.017
C 7.17477 8.60709 -0.03113
C 7.37609 19.96251 0.03828
C 3.68318 31.99318 0.01116
C 20.81163 30.59018 -0.00289
C 19.60442 28.41929 -0.02213
C 29.44353 16.99848 -0.0405
C 29.3939 15.50526 -0.01303
C 30.71422 14.85911 -0.01461
C 30.7911 13.41795 -0.02155
C 29.50564 12.63742 -0.00944
C 29.49911 11.17566 -0.03735
C 30.71408 10.49209 -0.00971
C 30.76215 9.11713 0.01518
C 29.53062 8.46594 0.01908
C 29.47647 7.08837 0.07705
C 30.83051 6.35351 0.0103
C 30.90253 4.94868 0.02108
C 29.57043 4.26382 0.00716
C 29.56642 2.90431 0.00307
C 30.81063 2.13139 0.00346
C 30.72177 0.67305 0.01713
C 29.48491 34.03341 -0.01694
C 31.92515 32.62148 0.01428
C 33.12611 31.94919 -0.02142
C 33.2683 30.47802 0.0544
C 32.05263 29.77645 0.00026
C 31.95032 28.40555 0.00682
C 33.14242 27.73666 -0.01779
C 30.6433 17.63062 0.01705
C 30.69191 19.13494 0.0101
C 29.47854 19.92527 -0.00669
C 29.4539 21.2977 0.03531
C 27.00987 12.70268 0.00194
C 27.02044 11.251 -0.00621
C 28.26998 10.53496 0.02611
C 28.33218 9.12361 0.02198
C 27.10745 8.48146 0.01094
C 27.03017 7.09945 0.00235
C 28.30594 6.41433 0.01495
C 28.3491 4.96664 0.01259
C 27.00492 4.24888 0.01799
C 27.01682 2.86582 0.01699
C 28.28516 2.21705 -0.00416
C 33.17751 26.25467 0.03794
C 28.20411 0.75881 0.01177
C 29.42633 32.65341 0.01324
C 30.71081 31.99042 0.0014
C 30.77305 30.58362 0.00924
C 29.50068 29.9016 0.02326
C 29.44857 28.42845 0.00261
C 30.68289 27.76264 0.03265
C 30.6554 26.23244 -0.02049
C 29.46221 25.53221 -0.01854
C 29.39786 24.11427 -0.01415
C 30.66702 23.38508 -0.03039
C 30.7372 21.96453 0.01836
C 27.10221 0.01431 0.04266
C 28.235 13.3301 0.04185
C 31.95836 25.59207 0.01927
C 33.12277 23.42623 -0.02383
C 1.19431 26.30286 0.03076
C 34.37921 25.54641 0.00723
C 34.32402 24.10517 0.02712
C 1.19039 23.3712 -0.02213
C 1.10156 22.02458 0.01951
C 34.3 21.33717 -0.01678
C 34.39623 19.8453 0.01223
C 1.22818 19.15295 0.00648
C 1.16079 17.65173 0.02114
C 34.3884 17.02395 -0.02957
C 0.00041 15.49632 0.00343
C 1.16242 14.74839 -0.02656
C 1.17467 13.28086 -0.02442
C 34.40582 12.52854 -0.00027
C 34.37961 11.13152 -0.00583
C 1.07977 10.08938 -0.02302
C 0.28978 8.63611 -0.02849
C 0.36243 7.14695 0.02931
C 1.50302 5.17299 0.00628
C 0.22375 4.37195 -0.0345
C 0.08207 2.90583 -0.00931
C 1.23887 2.07343 -0.00939
C 1.20547 0.67315 -0.00468
C 1.23795 27.69237 -0.05239
C 0.04433 28.39658 -0.00598
C 0.09579 29.77015 -0.00439
C 1.25646 30.58893 -0.01037
C 33.11125 21.97057 -0.01429
C 31.91956 21.24457 -0.0136
C 31.93336 19.78853 0.00594
C 33.22922 19.08676 -0.02474
C 33.1793 17.77492 0.00369
C 31.88991 16.98796 0.00455
C 31.94172 15.53524 -0.00644
C 33.10732 14.82829 -0.01839
C 33.11505 13.33816 0.00137
C 31.92069 12.61014 0.00199
C 31.94424 11.19078 0.04381
C 31.87416 24.19581 0.01574
C 33.21446 10.47538 0.02806
C 32.0644 8.40123 -0.00069
C 32.08632 7.03965 0.04926
C 33.44293 6.42175 -0.03838
C 33.40017 5.02408 0.00349
C 32.15033 4.25209 -0.00323
C 32.10359 2.8933 -0.00841
C 33.27494 2.17164 0.0001
C 33.1893 0.7044 -0.02927
C 32.00443 34.06561 -0.01404
C 34.36798 32.69224 0.01027
C 1.13681 31.98202 0.01831
C 33.25291 9.08347 0.01504
C 19.60011 29.82585 0.00028
C 28.16895 14.71025 0.02316
C 27.02913 17.04033 0.00152
C 23.29182 31.96929 -0.04076
C 23.28599 30.52649 -0.00652
C 22.09602 29.86689 0.0058
C 22.04578 28.48369 -0.00865
C 23.26943 27.75444 0.00675
C 23.32802 26.29192 -0.00311
C 22.13431 25.64171 0.00742
C 22.01379 24.17457 -0.01594
C 23.26868 23.40837 0.0106
C 23.31048 22.04982 -0.01154
C 22.05077 21.22477 -0.01721
C 22.11511 19.82084 -0.02422
C 23.38504 19.15263 0.01277
C 23.34403 17.7758 0.00096
C 22.126 17.03096 -0.01527
C 22.10569 15.61278 0.01087
C 23.25351 14.84272 0.00199
C 23.2392 13.38345 0.01511
C 21.98769 12.72078 -0.00478
C 22.00233 11.32272 -0.01662
C 23.32982 10.69551 -0.01185
C 23.35099 9.28622 0.01126
C 22.11763 8.58915 0.01852
C 22.07647 32.66902 -0.00703
C 19.68685 0.07837 0.00654
C 20.95308 0.77107 -0.04422
C 20.90684 2.19532 -0.02957
C 20.81532 27.74718 0.03698
C 20.88915 26.30331 -0.00109
C 19.66356 25.54245 -0.00491
C 19.60793 24.16161 0.03338
C 20.8432 23.51685 -0.0258
C 20.85361 22.03434 -0.0331
C 19.67122 21.31267 -0.00316
C 19.59385 19.84664 0.02188
C 20.89226 19.16368 -0.01979
C 20.93338 17.7603 0.02691
C 19.66158 16.98805 -0.01581
C 22.09094 7.23343 -0.00381
C 19.63816 15.61346 0.01452
C 20.78023 13.501 -0.00111
C 19.57178 12.77122 -0.03557
C 19.62251 11.42353 0.03754
C 20.80164 10.68445 0.01739
C 20.82952 9.25661 0.00755
C 19.59504 8.51569 -0.0054
C 19.59501 7.09294 0.00667
C 20.90541 6.46477 0.00143
C 20.84874 4.99248 -0.017
C 19.67038 4.32668 0.00364
C 19.66007 2.90169 -0.00831
C 20.8661 14.92986 0.04892
C 27.08619 15.56768 0.01257
C 23.21699 6.40857 0.03046
C 22.03125 4.33358 0.03374
C 24.55613 7.09207 -0.01199
C 25.82601 6.3439 -0.00229
C 25.78477 4.95328 -0.00938
C 24.52505 4.25353 -0.0264
C 24.59993 2.88291 -0.01154
C 25.77315 2.1662 0.00684
C 25.79779 0.75947 -0.01052
C 24.57756 0.05586 -0.01679
C 27.0085 32.6728 0.00367
C 28.20452 31.92652 0.04306
C 28.16245 30.52678 0.00996
C 26.9829 29.84786 0.00195
C 26.92666 28.42539 -0.00802
C 28.20744 27.74419 -0.00218
C 28.21061 26.33327 -0.01654
C 26.98645 25.62546 -0.00037
C 26.97769 24.18932 -0.0032
C 28.19384 23.48392 0.00622
C 28.25985 21.99999 -0.02815
C 26.99272 21.35404 -0.00942
C 26.9679 19.86795 0.00487
C 28.23663 19.17167 0.00826
C 28.30507 17.81742 -0.00294
C 24.51638 8.53213 -0.009
C 25.85157 9.10032 -0.00285
C 25.79499 10.55701 0.01423
C 24.54614 11.40271 0.02555
C 22.05829 2.9318 -0.02845
C 23.27265 2.10014 -0.03213
C 23.31413 0.71618 0.02239
C 22.12809 34.03605 0.01153
C 24.5011 32.66497 0.02734
C 25.77629 31.97391 -0.0055
C 25.76355 30.58304 0.01515
C 24.552 29.86711 -0.00225
C 24.50372 28.51349 0.00071
C 25.67596 27.66095 -0.01107
C 25.73371 26.28513 -0.01586
C 23.32078 4.97881 0.0296
C 24.5331 25.56691 -0.01971
C 25.76564 23.46607 0.00733
C 25.82898 22.08468 -0.00178
C 24.64762 21.36164 0.00768
C 24.65288 19.91417 -0.0276
C 25.76648 19.16412 0.03005
C 25.69595 17.64039 -0.04078
C 24.52319 17.00756 0.02117
C 24.57018 15.53915 0.02737
C 25.87678 14.94292 -0.00498
C 25.81572 13.54418 0.00135
C 24.57159 12.79288 0.03102
C 24.50245 24.09612 -0.02118
C 2.4395 32.70856 -0.0213
