351
Graphene
C 0.05104 34.02018 0.01295
C 14.83435 4.25671 0.00228
C 14.76814 2.81054 0.00798
C 15.93105 2.08578 0.00422
C 15.97084 0.61216 0.0351
C 14.77557 33.96258 -0.03113
C 17.21053 32.53997 0.02098
C 18.42965 31.85491 0.01848
C 18.39385 30.42944 -0.00619
C 15.84313 5.00705 -0.00114
C 17.15365 29.72247 -0.02162
C 18.37953 27.58108 -0.00481
C 18.41485 26.11152 0.00979
C 17.31162 25.45136 0.01443
C 17.23781 23.98679 0.03505
C 18.41973 23.30281 -0.02815
C 18.41263 21.89732 -0.04147
C 17.01235 21.32715 -0.05302
C 17.35883 19.86976 0.00213
C 17.13827 28.28609 0.00889
C 18.34949 19.2326 -0.00066
C 14.61401 21.60852 -0.02696
C 15.83064 23.67531 -0.0108
C 13.48816 27.48136 0.0076
C 12.13989 25.04116 0.01241
C 13.51255 25.40085 -0.01454
C 13.35202 21.67387 0.01945
C 12.0927 21.66525 0.01416
C 12.18697 4.36877 0.03542
C 12.34997 2.9127 0.02299
C 13.54303 2.13365 0.00244
C 15.8827 22.14684 -0.00368
C 13.51415 0.68955 -0.01717
C 14.75614 32.54454 -0.01952
C 15.98426 31.84778 -0.02813
C 15.97657 30.47094 0.00374
C 14.72623 29.7699 0.00052
C 14.73265 28.16083 -0.03682
C 15.90277 27.4991 0.01965
C 16.04311 26.12907 0.02058
C 14.89484 24.92731 -0.01957
C 12.32188 34.07829 0.05265
C 12.35656 28.29641 0.02162
C 18.30951 6.36685 -0.00289
C 17.07959 4.29749 -0.02213
C 20.8785 10.85462 0.00364
C 20.69766 9.48273 -0.00831
C 19.57735 8.54749 -0.02957
C 19.52592 7.18463 -0.04422
C 20.84173 6.48041 0.00654
C 20.83804 4.97353 -0.00703
C 19.61735 4.25147 -0.04076
C 19.74318 2.83513 -0.00652
C 21.02893 13.70524 -0.017
C 20.92049 2.17402 0.0058
C 19.64424 34.04973 0.00675
C 22.11217 32.65767 -0.00311
C 23.32346 31.95588 0.00742
C 23.40819 30.53966 -0.01594
C 22.13435 29.80248 0.0106
C 22.12834 28.3622 -0.01154
C 23.40389 27.60834 -0.01721
C 23.60108 26.15702 -0.02422
C 20.97311 0.69718 -0.00865
C 18.26626 4.92702 0.00028
C 20.83763 15.20578 0.00143
C 20.95258 17.57373 -0.0054
C 17.14491 2.83521 0.03698
C 18.43582 2.12841 -0.00109
C 18.43595 0.65795 -0.00491
C 17.17056 34.02645 0.03338
C 19.67655 32.60714 -0.0258
C 20.8723 31.84392 -0.0331
C 20.87154 30.50186 -0.00316
C 19.60266 29.74087 0.02188
C 19.89388 16.44534 0.00667
C 19.65359 28.249 -0.01979
C 20.99283 26.17527 -0.01581
C 19.7126 25.56663 0.01452
C 19.67318 24.10069 0.04892
C 20.91274 23.40438 -0.00111
C 20.81065 21.92862 -0.03557
C 19.63868 21.15978 0.03754
C 19.65981 19.67527 0.01739
C 20.86652 19.02418 0.00755
C 20.92338 27.61812 0.02691
C 22.31396 25.52012 0.01277
C 12.32793 29.77445 -0.0014
C 13.54096 31.93287 -0.02162
C 3.66384 2.12642 0.01572
C 3.70009 0.75203 -0.04848
C 2.52211 0.02246 -0.00892
C 4.91625 32.75445 -0.01362
C 6.08704 32.02443 -0.0008
C 6.11812 30.53798 0.0288
C 4.92255 29.8323 0.00393
C 4.9297 28.42736 0.00895
C 2.46608 2.84436 -0.00095
C 6.10805 27.75681 0.00685
C 4.79857 25.6609 -0.00482
C 4.65457 24.17191 -0.01384
C 5.98414 23.49115 0.03693
C 6.01107 22.01088 0.01745
C 4.70222 21.37611 0.00488
C 4.64983 11.90434 -0.01004
C 4.98763 8.48477 -0.02896
C 5.13296 7.14956 -0.00131
C 6.08806 26.23068 0.02888
C 6.24688 6.31316 -0.01118
C 2.44744 4.24339 0.03007
C 3.753 6.40627 -0.00494
C 3.73598 30.55787 0.01305
C 2.46956 29.87599 -0.00077
C 2.42084 28.44569 0.03368
C 3.64143 27.81253 -0.02929
C 3.60186 26.36357 -0.00966
C 2.3058 25.68269 -0.03337
C 2.21509 24.19285 0.01227
C 3.4569 23.56965 0.00873
C 3.704 4.95603 0.00054
C 3.51634 22.08596 -0.00049
C 2.33236 19.96565 -0.01303
C 4.08468 12.78189 -0.01378
C 2.53083 12.8869 0.02635
C 2.33 11.42976 0.0127
C 3.5602 10.77272 0.01396
C 3.87994 9.35117 0.01849
C 2.56639 8.62924 -0.01142
C 2.5157 7.18326 -0.00562
C 2.35877 21.32029 0.00848
C 13.50697 30.52005 0.00415
C 6.16357 4.90178 -0.014
C 4.89111 2.78854 0.00373
C 11.0914 31.92267 -0.01275
C 11.07862 30.52434 0.00985
C 9.89781 29.74875 -0.02245
C 9.93813 28.29242 -0.00428
C 11.22536 27.48183 0.03101
C 11.16048 26.094 -0.01536
C 9.80126 25.59752 -0.02689
C 9.74671 24.20102 -0.01046
C 9.91339 32.67874 -0.01111
C 11.12091 23.80583 -0.00891
C 9.97581 21.37085 0.00165
C 11.15566 4.87543 -0.02971
C 9.66112 4.58944 0.02894
C 9.74664 2.98218 -0.01789
C 11.01786 2.20703 0.00444
C 11.05663 0.86211 -0.00925
C 9.84779 0.06078 0.01877
C 12.28182 32.66795 0.01363
C 10.95093 22.38549 0.02819
C 4.89133 4.17258 0.02147
C 7.37558 34.05229 0.02841
C 8.54344 2.20466 0.00406
C 6.1421 2.0571 -0.00191
C 6.21665 0.64611 0.00438
C 4.95608 34.07543 0.01291
C 7.41205 32.61817 0.00093
C 8.68252 31.92327 0.00057
C 8.64075 30.52697 -0.01634
C 7.3827 29.82449 -0.00334
C 7.4203 28.36164 0.02339
C 8.60637 0.72844 0.00943
C 8.69771 27.66601 0.01641
C 7.26754 25.49013 0.01364
C 7.30151 24.09777 -0.01062
C 8.53432 23.40353 -0.00033
C 8.54727 21.84111 0.03589
C 7.2621 21.45787 -0.02759
C 8.45413 5.12667 0.0402
C 7.40373 4.25757 0.00572
C 7.2996 2.91587 0.03592
C 8.57183 26.22129 -0.00719
C 3.70092 32.0133 0.0276
C 22.15107 24.09637 0.00096
C 23.26219 22.00576 0.01087
C 33.21156 31.9347 -0.01694
C 33.16628 30.47807 0.01428
C 31.89052 29.75036 -0.02142
C 31.86335 28.36472 0.0544
C 33.13082 27.75965 0.00026
C 33.01516 26.29768 0.00682
C 31.76542 25.5559 -0.01779
C 31.66321 24.22519 0.03794
C 31.91761 32.61436 0.01713
C 32.9453 23.51965 0.01927
C 31.71525 21.4336 -0.02383
C 31.76394 20.01013 -0.01429
C 33.06289 19.29306 -0.0136
C 33.0886 17.88738 0.00594
C 31.91139 17.1955 -0.02474
C 31.8619 15.68741 0.00369
C 33.15477 14.98747 0.00455
C 33.18071 13.53778 -0.00644
C 33.00739 22.14224 0.01574
C 31.92016 12.83508 -0.01839
C 29.51983 0.01292 0.00346
C 30.69771 2.17174 0.00716
C 29.18735 21.42389 -0.03039
C 29.39884 19.9785 0.01836
C 30.50712 19.31918 0.03531
C 30.68052 17.8817 -0.00669
C 29.43792 17.12529 0.0101
C 29.47486 15.57817 0.01705
C 30.69951 14.95742 -0.0405
C 30.70833 13.50096 -0.01303
C 30.72162 0.703 0.00307
C 29.54737 12.71307 -0.01461
C 30.76104 10.62557 -0.00944
C 30.79545 9.22851 -0.03735
C 29.49414 8.48818 -0.00971
C 29.52885 7.08344 0.01518
C 30.74439 6.33209 0.01908
C 30.74086 4.89462 0.07705
C 29.48285 4.21815 0.0103
C 29.47626 2.84082 0.02108
C 29.56975 11.30959 -0.02155
C 30.25353 22.25095 -0.01415
C 31.96613 11.35257 0.00137
C 33.25176 9.26059 0.04381
C 1.20516 19.22695 -0.01678
C 1.15899 17.79558 0.01223
C 34.3316 17.17695 0.00648
C 34.4033 15.67864 0.02114
C 1.1852 14.99731 -0.02957
C 1.38537 13.64576 0.00343
C 34.42556 12.93851 -0.02656
C 34.38941 11.45465 -0.02442
C 34.28531 20.03123 0.01951
C 1.20121 10.67405 -0.00027
C 0.09955 8.59109 -0.02302
C 0.05567 7.13953 -0.02849
C 1.32614 6.43491 0.02931
C 1.30062 4.98357 0.00628
C 0.11766 4.27758 -0.0345
C 34.4285 2.84493 -0.00931
C 1.24568 2.09489 -0.00939
C 1.24764 0.64005 -0.00468
C 1.24356 9.28434 -0.00583
C 33.19578 10.65734 0.00199
C 34.29064 21.44323 -0.02213
C 1.04877 23.49429 0.00723
C 32.05032 8.42534 0.02806
C 32.04224 7.00909 0.01504
C 33.32186 6.29338 -0.00069
C 33.26551 4.90039 0.04926
C 31.98064 4.17492 -0.03838
C 32.00284 2.77148 0.00349
C 33.20845 2.07902 -0.00323
C 33.2496 0.63326 -0.00841
C 1.10984 22.11935 0.02712
C 31.9687 0.03015 0.0001
C 1.20378 31.93574 -0.01404
C 1.26023 30.53438 0.01027
C 0.01726 29.85788 0.01831
C 34.34394 28.47914 -0.01037
C 1.18502 27.79485 -0.00439
C 1.0712 26.35332 -0.00598
C 34.28054 25.65167 -0.05239
C 34.22407 24.17801 0.03076
C 34.3903 32.61836 -0.02927
C 23.38958 23.40028 -0.01527
C 30.28674 23.7566 -0.01854
C 30.52476 26.25153 0.03265
C 25.78538 32.01783 -0.01971
C 25.76726 30.58823 -0.02118
C 24.57124 29.85898 0.00733
C 24.70999 28.25501 -0.00178
C 25.90208 27.54613 0.00768
C 26.35599 26.12204 -0.0276
C 25.02692 25.34333 0.03005
C 24.6314 24.03173 -0.04078
C 24.55329 32.67914 -0.01586
C 24.46751 21.41284 0.02117
C 25.78642 19.28173 -0.00498
C 25.81742 17.79889 0.00135
C 24.5497 17.19494 0.03102
C 24.6011 15.71364 0.02555
C 25.76877 14.97813 0.01423
C 25.80059 13.53074 -0.00285
C 24.60107 12.81039 -0.009
C 24.53571 11.36312 -0.01199
C 24.53433 19.97475 0.02737
C 25.7054 10.67778 -0.00229
C 22.14174 34.02083 -0.01107
C 23.30737 2.09182 -0.00225
C 22.11599 21.21044 0.00199
C 22.09039 19.82591 0.01511
C 23.39569 19.20321 -0.00478
C 23.29635 17.83741 -0.01662
C 22.16472 17.06311 -0.01185
C 22.1844 15.62808 0.01126
C 23.38302 15.02251 0.01852
C 23.41996 13.57689 -0.00381
C 23.36824 0.70196 0.00071
C 22.13224 12.90397 0.03046
C 23.27197 10.7583 0.03374
C 23.34855 9.28087 -0.02845
C 22.096 8.56354 -0.03213
C 22.15611 7.19521 0.02239
C 23.31729 6.37536 0.01153
C 23.3259 4.98991 0.02734
C 22.11646 4.36573 -0.0055
C 22.17838 2.87048 0.01515
C 22.08591 11.48674 0.0296
C 29.34344 25.38849 -0.02049
C 25.77061 9.23659 -0.00938
C 24.53122 7.0688 -0.01154
C 26.98197 11.26647 0.00194
C 28.29426 10.54601 -0.00621
C 28.26614 9.12635 0.02611
C 26.97441 8.51639 0.02198
C 27.03025 7.05591 0.01094
C 28.28432 6.35902 0.00235
C 28.2746 4.94006 0.01495
C 27.06123 4.24496 0.01259
C 27.03948 12.73466 0.04185
C 27.0041 2.77545 0.01799
C 28.3471 0.69882 -0.00416
C 27.1005 34.04134 0.01177
C 29.53638 32.6684 0.04266
C 30.66292 31.90544 0.01324
C 30.6987 30.48648 0.0014
C 29.4671 29.86301 0.00924
C 29.37994 28.43084 0.02326
C 30.53086 27.6655 0.00261
C 28.23055 2.12759 0.01699
C 24.52106 8.48673 -0.0264
C 28.26611 13.4002 0.02316
C 27.01952 15.59006 0.00152
C 25.789 6.39848 0.00684
C 25.74587 4.91888 -0.01052
C 24.53152 4.18405 -0.01679
C 24.59416 2.74019 0.00367
C 25.85759 2.15148 0.04306
C 25.84353 0.68585 0.00996
C 24.59155 34.03745 0.00195
C 27.06298 32.66617 -0.00802
C 28.24014 14.89095 0.01257
C 28.28758 31.91804 -0.00218
C 27.00211 29.85574 -0.00037
C 26.99672 28.43774 -0.0032
C 28.15438 27.70836 0.00622
C 27.96302 26.12394 -0.02815
C 27.04472 19.95448 -0.00942
C 28.16604 19.22296 0.00487
C 28.21635 17.77234 0.00826
C 26.97534 17.04886 -0.00294
C 28.22099 30.51914 -0.01654
C 2.39104 32.70902 0.00988
