379
Graphene
C 34.26439 34.047 0.01295
C 10.96478 6.47611 0.01945
C 11.03154 4.96667 0.01416
C 9.81183 4.30391 0.03542
C 9.7829 2.95698 0.02299
C 10.9908 2.21173 0.00244
C 10.92284 0.76136 -0.01717
C 9.77715 0.01715 0.05265
C 12.36967 32.71297 -0.01952
C 13.55263 32.01912 -0.02813
C 13.53669 30.55911 0.00374
C 12.21807 29.91205 0.00052
C 12.32271 28.55745 -0.03682
C 13.50586 27.73251 0.01965
C 13.51328 26.28066 0.02058
C 12.29062 25.49973 -0.01957
C 12.28737 24.13061 -0.0108
C 13.50299 23.51982 -0.00368
C 13.57105 22.08475 -0.02696
C 12.5276 21.14196 -0.00114
C 9.82411 7.24328 -0.01454
C 9.81083 8.64409 0.01241
C 11.05152 9.35796 0.0076
C 11.15478 10.74031 0.02162
C 11.12509 32.00663 0.00985
C 11.0295 30.62538 -0.02245
C 9.77992 29.85878 -0.00428
C 9.74978 28.45823 0.03101
C 11.0136 27.80417 -0.01536
C 11.03224 26.29492 -0.02689
C 9.80713 25.54844 -0.01046
C 9.8744 24.08468 -0.00891
C 11.07026 23.33946 0.02819
C 12.30847 19.85195 0.00228
C 11.1003 21.92398 0.00165
C 9.99518 19.77042 0.02894
C 11.28595 18.93358 -0.01789
C 11.00168 17.54967 0.00444
C 9.70822 17.07257 -0.00925
C 9.65712 15.66819 0.01877
C 10.9559 15.04436 0.01363
C 11.12161 13.68865 -0.02162
C 9.85304 12.89385 0.00415
C 9.84904 11.43662 -0.0014
C 9.8724 21.15365 -0.02971
C 12.19428 12.77025 0.00798
C 12.47474 11.48599 0.00422
C 13.5286 10.55169 0.0351
C 15.99226 4.94077 -0.00316
C 14.74224 4.30142 0.02188
C 14.72279 2.86865 -0.01979
C 15.89286 2.12335 0.02691
C 15.97349 0.70616 -0.01581
C 14.73568 0.00994 0.01452
C 17.23402 32.59541 0.04892
C 18.4205 31.88138 -0.00111
C 18.33766 30.41107 -0.03557
C 15.95561 6.33766 -0.0331
C 17.21416 29.65586 0.03754
C 18.4323 27.45054 0.00755
C 18.4621 26.01944 -0.0054
C 17.23646 25.35541 0.00667
C 17.15548 23.81702 0.00143
C 18.39912 23.26286 -0.017
C 18.34362 9.15194 0.00364
C 17.11319 8.72364 -0.00831
C 17.18035 7.15018 -0.02957
C 18.40141 6.3695 -0.04422
C 17.2786 28.16935 0.01739
C 9.85221 32.75817 -0.01275
C 14.79813 7.12682 -0.0258
C 15.85113 9.3046 -0.00491
C 13.5178 9.26276 -0.03113
C 12.25524 8.61533 0.02098
C 12.2848 7.1343 0.01848
C 13.56174 6.41085 -0.00619
C 13.46837 5.05003 -0.02162
C 12.27278 4.31742 0.00889
C 12.311 2.90993 -0.00481
C 13.5033 2.21167 0.00979
C 13.4541 0.77023 0.01443
C 14.74486 8.56875 0.03338
C 12.24661 0.03547 0.03505
C 16.0429 31.85631 -0.04147
C 15.92678 30.44484 -0.05302
C 14.71497 29.74893 0.00213
C 14.73744 28.3346 -0.00066
C 15.93743 27.62747 -0.00289
C 16.02268 26.17798 0.00028
C 14.75063 25.6127 -0.02213
C 14.71511 24.1481 0.03698
C 15.74369 23.31941 -0.00109
C 14.81572 32.67544 -0.02815
C 18.47581 4.96798 0.00654
C 7.2588 0.01405 -0.01111
C 8.59195 2.13171 0.00943
C 3.62725 4.99602 0.01087
C 2.41222 4.2898 -0.01343
C 2.46409 2.89469 0.00988
C 3.63197 2.19915 0.0276
C 3.57132 0.81909 0.01305
C 2.28993 0.04912 -0.00077
C 4.86508 32.7335 0.03368
C 6.16429 32.0343 -0.02929
C 6.07275 30.67741 -0.00966
C 4.84221 29.86957 -0.03337
C 4.9132 28.51032 0.01227
C 6.1496 27.76477 0.00873
C 6.20284 26.34563 -0.00049
C 4.92693 25.72458 0.00848
C 4.99765 24.19872 -0.01303
C 6.15868 23.50464 -0.01378
C 6.20235 22.10754 0.02635
C 4.96817 21.46379 0.0127
C 5.03163 20.03081 0.01396
C 3.5851 6.4059 -0.05697
C 2.43218 7.15404 -0.00725
C 2.34077 8.59388 0.02322
C 3.58927 9.26236 -0.00094
C 3.61067 30.6756 0.00643
C 2.44502 29.96431 -0.01509
C 2.49699 28.46674 0.03267
C 3.6927 27.78656 0.02374
C 3.68726 26.37053 0.00402
C 2.40635 25.61864 0.0073
C 2.44731 24.26501 0.0174
C 3.65338 23.54739 0.03828
C 3.78364 22.11698 0.01226
C 6.22321 19.32831 0.01849
C 2.52614 21.39901 -0.00279
C 3.80748 19.27185 -0.03996
C 3.73646 17.82478 0.01465
C 2.29088 17.14705 -0.00074
C 2.25813 15.79065 -0.00518
C 3.50897 15.00398 0.0086
C 3.53164 13.5449 -0.00643
C 2.32594 12.8879 0.017
C 2.40018 11.50419 -0.03113
C 3.55858 10.67229 -0.02566
C 2.60816 20.00747 0.01996
C 6.07988 17.8232 -0.01142
C 4.8679 17.07819 -0.00562
C 4.79836 15.5903 -0.00494
C 8.7121 23.40421 0.00373
C 8.72615 22.02682 -0.00191
C 7.44244 21.45236 0.00438
C 7.35093 19.98735 0.01291
C 8.69623 19.17811 0.00093
C 8.51753 17.84424 0.00057
C 7.25846 17.08767 -0.01634
C 7.22083 15.65361 -0.00334
C 8.43064 14.96697 0.02339
C 7.44008 24.22494 0.02147
C 8.47571 13.52009 0.01641
C 7.41639 11.3675 0.01364
C 8.61937 10.75152 -0.01062
C 8.59689 9.24643 -0.00033
C 7.3416 8.5589 0.03589
C 7.31544 7.14076 -0.02759
C 8.58312 6.49487 0.0402
C 8.6439 5.05924 0.00572
C 7.32045 4.36411 0.03592
C 7.34873 2.89059 0.00406
C 7.30082 12.76562 -0.00719
C 8.52362 0.75795 0.02841
C 7.4421 25.65081 -0.014
C 8.56612 27.71364 -0.00131
C 5.98802 14.94879 0.00054
C 6.07868 13.5456 0.03007
C 4.86231 12.84938 -0.00095
C 4.80079 11.39379 0.01572
C 6.17183 10.64555 -0.04848
C 6.13198 9.21762 -0.00892
C 4.78891 8.5169 -0.01362
C 4.83651 7.16482 -0.0008
C 6.06615 6.44154 0.0288
C 8.64245 26.24435 -0.01118
C 6.04558 5.03792 0.00393
C 4.87674 2.89973 0.00685
C 6.04742 2.15236 0.02888
C 6.05185 0.75679 -0.00482
C 4.78988 0.05161 -0.01384
C 7.41348 32.71849 0.03693
C 8.60253 32.01823 0.01745
C 8.57906 30.63384 0.00488
C 7.29923 29.9606 -0.01004
C 7.32556 28.45705 -0.02896
C 4.85463 4.2977 0.00895
C 3.61242 32.05982 0.00907
C 17.24048 4.22391 -0.00703
C 18.45206 2.10753 -0.00652
C 29.43359 7.1696 0.02108
C 30.61209 6.44836 0.00716
C 30.66843 4.97861 0.00307
C 29.44832 4.26839 0.00346
C 29.38405 2.85579 0.01713
C 30.61764 2.18088 -0.01694
C 30.67697 0.779 0.01428
C 29.43022 0.05387 -0.02142
C 31.87206 32.73204 0.0544
C 33.09021 31.96082 0.00026
C 33.14006 30.55115 0.00682
C 31.89159 29.82492 -0.01779
C 31.91532 28.44206 0.03794
C 33.17108 27.65791 0.01927
C 33.0458 26.24616 0.01574
C 31.84419 25.53815 -0.02383
C 31.99286 24.06708 -0.01429
C 33.22956 23.39102 -0.0136
C 33.19833 22.00859 0.00594
C 29.384 8.52386 0.0103
C 30.65988 9.26318 0.07705
C 30.69736 10.74659 0.01908
C 29.48483 11.44444 0.01518
C 28.14744 4.99777 0.00924
C 27.00064 4.29213 0.02326
C 26.95139 2.84862 0.00261
C 28.19758 2.14565 0.03265
C 28.16956 0.75602 -0.02049
C 27.00601 0.04977 -0.01854
C 29.40183 32.68476 -0.01415
C 30.62195 32.01726 -0.03039
C 30.6746 30.49497 0.01836
C 32.11822 21.1042 -0.02474
C 29.47088 29.80883 0.03531
C 30.68061 27.70158 0.0101
C 30.68091 26.27792 0.01705
C 29.46502 25.54957 -0.0405
C 29.51189 24.083 -0.01303
C 30.79033 23.28516 -0.01461
C 30.7637 21.79638 -0.02155
C 29.47242 21.2859 -0.00944
C 30.71342 13.44204 -0.03735
C 29.44141 12.97264 -0.00971
C 29.4757 28.43873 -0.00669
C 33.3606 19.05495 0.00369
C 33.07588 14.94183 0.00455
C 33.10267 13.55767 -0.00644
C 0.02756 21.2995 -0.02213
C 0.05862 19.89632 0.01951
C 1.34901 19.32201 -0.01678
C 1.11472 17.87172 0.01223
C 34.13196 17.38061 0.00648
C 34.10206 15.92886 0.02114
C 0.92584 15.07089 -0.02957
C 1.03749 13.665 0.00343
C 34.32794 12.8249 -0.02656
C 1.23775 22.08054 0.02712
C 0.01349 11.34829 -0.02442
C 1.10918 9.23104 -0.00583
C 34.35935 8.51885 -0.02302
C 34.38707 7.09984 -0.02849
C 1.15324 6.40732 0.02931
C 1.09849 4.95965 0.00628
C 34.38418 4.2511 -0.0345
C 34.40059 2.79221 -0.00931
C 1.21979 2.18382 -0.00939
C 1.07915 0.69371 -0.00468
C 1.18317 10.70478 -0.00027
C 28.18045 6.39959 0.0014
C 1.24452 23.55147 0.00723
C 34.34534 25.58903 -0.05239
C 31.9166 12.83456 -0.01839
C 31.95877 11.45437 0.00137
C 33.21805 10.64143 0.00199
C 33.1241 9.26899 0.04381
C 31.86666 8.57361 0.02806
C 31.77207 7.18761 0.01504
C 33.09692 6.44832 -0.00069
C 33.14732 5.04724 0.04926
C 31.94168 4.26194 -0.03838
C 34.40409 24.11946 0.03076
C 31.92301 2.90955 0.00349
C 33.14052 0.74319 -0.00841
C 31.95797 0.11071 0.0001
C 34.31947 32.62194 -0.02927
C 1.11004 31.99726 -0.01404
C 1.17494 30.57456 0.01027
C 34.35669 29.86483 0.01831
C 34.36822 28.4946 -0.01037
C 1.14535 27.7976 -0.00439
C 1.16043 26.36755 -0.00598
C 33.16393 2.10603 -0.00323
C 17.18157 2.80832 -0.04076
C 26.90157 7.14668 0.01324
C 28.17814 9.27787 0.01177
C 23.30889 30.42972 0.03374
C 22.03274 29.77735 -0.02845
C 22.13237 28.32148 -0.03213
C 23.37354 27.60442 0.02239
C 23.28214 26.17052 0.01153
C 22.03504 25.49659 0.02734
C 22.20354 24.03612 -0.0055
C 23.4553 23.2762 0.01515
C 23.38571 21.9153 -0.00225
C 23.36979 10.5618 0.00071
C 23.28875 9.21992 -0.01107
C 22.07445 8.47235 -0.01586
C 22.01929 7.04107 -0.01971
C 23.25231 6.2511 -0.02118
C 23.31869 4.89096 0.00733
C 22.10025 4.20571 -0.00178
C 22.06962 2.85126 0.00768
C 23.33341 2.08861 -0.0276
C 23.30475 0.71847 0.03005
C 23.30097 31.85239 0.0296
C 22.12026 32.58739 0.03046
C 19.65261 34.01527 -0.00381
C 20.81932 0.65558 0.01852
C 18.38552 0.62835 0.0058
C 17.1088 34.06994 -0.00865
C 19.58905 32.60874 0.00675
C 20.8018 31.84476 -0.00311
C 20.77483 30.48316 0.00742
C 19.60391 29.75217 -0.01594
C 19.67516 28.28337 0.0106
C 20.866 27.56272 -0.01154
C 20.86577 26.14426 -0.01721
C 22.0717 34.07998 -0.04078
C 19.71156 25.33603 -0.02422
C 21.03086 23.20518 0.00096
C 20.91986 9.27006 -0.01527
C 19.65983 8.67319 0.01087
C 19.60515 7.07456 0.00199
C 20.80484 6.28197 0.01511
C 20.90274 4.894 -0.00478
C 19.63505 4.26178 -0.01662
C 19.5972 2.79952 -0.01185
C 20.87241 2.10512 0.01126
C 19.72721 23.86729 0.01277
C 24.53497 32.69467 0.02117
C 25.80964 31.88447 0.02737
C 25.81826 30.46241 -0.00498
C 25.83388 0.62047 -0.02815
C 24.60303 34.05624 -0.00942
C 27.00973 32.60101 0.00487
C 28.24339 31.87687 0.00826
C 28.20992 30.51847 -0.00294
C 26.97988 29.73633 0.00152
C 27.06089 28.31935 0.01257
C 28.26978 27.6587 0.02316
C 28.26035 26.1973 0.04185
C 25.7575 2.07509 0.00622
C 27.02096 25.48671 0.00194
C 28.32835 23.42555 0.02611
C 28.2839 21.97645 0.02198
C 27.13039 21.33131 0.01094
C 27.22372 19.94316 0.00235
C 25.79001 16.35717 0.01495
C 28.14361 13.42835 0.01259
C 26.84996 12.82761 0.01799
C 26.87666 11.29956 0.01699
C 28.27646 10.69421 -0.00416
C 27.06752 24.11235 -0.00621
C 26.97349 8.53746 0.04266
C 24.51982 2.80603 -0.0032
C 25.83998 5.02963 -0.01654
C 24.56003 29.77564 0.00135
C 24.63395 28.27042 0.03102
C 25.83471 27.58332 0.02555
C 25.81227 26.14509 0.01423
C 24.55134 25.4244 -0.00285
C 24.65429 24.0472 -0.009
C 25.9078 23.27865 -0.01199
C 25.82709 21.94249 -0.00229
C 24.68147 20.94412 -0.00938
C 24.52176 4.2173 -0.00037
C 25.30349 19.6672 -0.0264
C 26.48177 17.50292 0.00684
C 26.04671 15.08993 -0.01052
C 25.84039 13.8725 -0.01679
C 24.42171 11.22982 0.00367
C 25.65579 10.60568 0.04306
C 25.6841 9.18442 0.00996
C 24.50795 8.55759 0.00195
C 24.43356 7.05496 -0.00802
C 25.74132 6.42733 -0.00218
C 26.47776 18.93834 -0.01154
C 2.33716 32.71309 0.02379
