316
Graphene
C 34.38402 34.0762 0.01295
C 14.7615 29.88618 -0.00491
C 14.77917 28.40972 0.03338
C 15.97099 27.68406 -0.0258
C 16.00254 26.31625 -0.0331
C 14.77102 25.56272 -0.00316
C 14.71192 24.13893 0.02188
C 15.93241 23.39438 -0.01979
C 15.87139 22.01036 0.02691
C 16.02423 4.60167 -0.01581
C 14.72579 4.36954 0.01452
C 14.76886 2.7954 0.04892
C 16.0393 2.11361 -0.00111
C 16.03132 0.67645 -0.03557
C 14.83387 33.98141 0.03754
C 17.20235 32.64265 0.01739
C 16.10543 30.47046 -0.00109
C 16.00899 31.91548 0.03698
C 14.78444 32.55345 -0.02213
C 12.29082 0.00459 0.00028
C 9.82388 0.0226 -0.03113
C 12.31653 32.60673 0.02098
C 13.4806 31.93052 0.01848
C 13.5496 30.48715 -0.00619
C 12.34027 29.79796 -0.02162
C 12.23235 28.41505 0.00889
C 13.4852 27.73347 -0.00481
C 18.38169 32.03996 0.00755
C 13.53783 26.29768 0.00979
C 12.36186 24.21795 0.03505
C 13.50529 23.60487 -0.02815
C 13.54665 5.0525 -0.04147
C 12.36881 4.26229 -0.05302
C 12.31011 2.85964 0.00213
C 13.57562 2.11985 -0.00066
C 13.60552 0.70618 -0.00289
C 12.21104 25.59219 0.01443
C 18.43285 30.59775 -0.0054
C 17.27407 29.76118 0.00667
C 17.27954 28.37561 0.00143
C 19.76243 28.39979 0.00096
C 21.03245 27.75645 -0.01527
C 19.44643 25.4493 0.01087
C 19.66266 24.18351 0.00199
C 19.64181 21.3155 0.01511
C 19.62618 19.94976 -0.00478
C 20.74645 19.19679 -0.01662
C 19.73711 29.84209 0.01277
C 21.02659 17.87692 -0.01185
C 21.03938 4.6443 0.01852
C 19.64513 4.28588 -0.00381
C 19.69177 2.78787 0.03046
C 20.90792 2.14149 0.0296
C 20.9082 0.69191 0.03374
C 19.66921 0.02853 -0.02845
C 22.11371 32.70321 -0.03213
C 19.64592 7.28611 0.01126
C 11.06765 0.6617 0.0351
C 20.93828 30.56809 -0.02422
C 19.66675 32.72123 -0.01154
C 18.46971 27.67067 -0.017
C 18.40661 26.22603 0.00364
C 17.1975 25.46236 -0.00831
C 17.20207 24.04595 -0.02957
C 18.53846 23.37567 -0.04422
C 18.53914 21.94943 0.00654
C 16.98312 21.24971 -0.00703
C 20.93853 31.98092 -0.01721
C 17.16249 19.97922 -0.04076
C 18.69279 6.42403 0.0058
C 18.48705 5.14332 -0.00865
C 17.27319 4.23415 0.00675
C 17.27366 2.76748 -0.00311
C 18.51144 2.15231 0.00742
C 18.48783 0.75481 -0.01594
C 17.27567 0.03894 0.0106
C 18.43071 19.391 -0.00652
C 23.33468 32.02714 0.02239
C 11.07509 2.0931 0.00422
C 9.90243 4.26552 0.00228
C 2.41644 2.88769 -0.01062
C 3.69844 2.1723 -0.00033
C 3.63945 0.75651 0.03589
C 2.40737 0.00538 -0.02759
C 4.83991 32.76172 0.0402
C 6.15237 31.95259 0.00572
C 6.2197 30.45682 0.03592
C 4.93287 29.80771 0.00406
C 4.88879 28.36354 0.00943
C 6.04099 27.59295 0.02841
C 6.05296 26.11188 -0.01111
C 4.80967 25.46411 -0.01275
C 4.93803 24.05914 0.00985
C 6.11981 23.48345 -0.02245
C 6.14996 9.29935 -0.00428
C 2.47479 4.27868 0.01364
C 3.69284 5.028 -0.00719
C 3.73238 6.40479 0.01641
C 2.47177 7.13271 0.02339
C 3.70472 30.51179 0.01745
C 2.45878 29.90328 0.00488
C 2.46157 28.4109 -0.01004
C 3.69019 27.65185 -0.02896
C 3.67171 26.2711 -0.00131
C 2.42978 25.60961 -0.01118
C 2.47454 24.15604 -0.014
C 4.99967 8.58877 0.03101
C 3.67092 23.36533 0.02147
C 2.6587 21.24192 -0.00191
C 2.38428 19.94444 0.00438
C 2.31215 12.79682 0.01291
C 2.58115 11.50834 0.00093
C 3.57995 10.56996 0.00057
C 3.70615 9.19604 -0.01634
C 2.43892 8.51389 -0.00334
C 3.81952 22.05493 0.00373
C 4.9278 7.0623 -0.01536
C 6.20461 6.29883 -0.02689
C 6.12553 4.88686 -0.01046
C 7.33986 2.849 0.02299
C 8.59756 2.19195 0.00244
C 8.57769 0.67762 -0.01717
C 7.33469 34.07279 0.05265
C 9.79648 32.70654 -0.01952
C 11.06541 31.98043 -0.02813
C 11.06158 30.61419 0.00374
C 7.43706 4.24963 0.03542
C 9.83491 29.85312 0.00052
C 11.06233 27.79094 0.01965
C 11.02797 26.23113 0.02058
C 9.75973 25.55966 -0.01957
C 9.73644 24.23055 -0.0108
C 9.88402 7.18832 -0.00368
C 10.88843 6.30151 -0.02696
C 11.10509 4.97837 -0.00114
C 9.74765 28.39368 -0.03682
C 9.82646 2.79568 0.00798
C 8.67979 4.97911 0.01416
C 7.46888 7.08918 -0.01454
C 4.93073 4.22497 -0.00891
C 4.9153 2.81187 0.02819
C 6.11687 2.12449 0.00165
C 6.11959 0.70429 -0.02971
C 4.84638 0.03387 0.02894
C 7.37184 32.66191 -0.01789
C 8.55164 31.93565 0.00444
C 8.6572 6.436 0.01945
C 8.63271 30.44479 -0.00925
C 7.29491 28.34724 0.01363
C 8.52311 27.66162 -0.02162
C 8.49281 26.22428 0.00415
C 7.33144 25.50032 -0.0014
C 7.3692 24.06539 0.02162
C 8.54318 9.23302 0.0076
C 7.41751 8.4929 0.01241
C 7.38819 29.7403 0.01877
C 23.32893 30.50868 0.01153
C 22.15381 29.81062 0.02734
C 22.04524 28.45177 -0.0055
C 31.97236 24.1215 0.03794
C 33.21885 23.44454 0.01927
C 33.20887 22.01262 0.01574
C 32.01836 21.31814 -0.02383
C 32.00401 19.88679 -0.01429
C 33.21334 19.26998 -0.0136
C 33.24625 17.82264 0.00594
C 32.01415 17.15278 -0.02474
C 31.90568 15.70084 0.00369
C 33.21902 15.00623 0.00455
C 33.14008 13.61371 -0.00644
C 31.94006 12.81687 -0.01839
C 31.92297 11.39917 0.00137
C 33.12601 10.65581 0.00199
C 33.23515 9.27205 0.04381
C 31.99063 25.57012 -0.01779
C 33.25379 26.24255 0.00682
C 33.18248 27.6638 0.00026
C 31.90973 28.44223 0.0544
C 29.39545 11.24508 -0.02155
C 30.65985 10.59017 -0.00944
C 30.79239 9.24797 -0.03735
C 29.55327 8.52606 -0.00971
C 29.53419 7.11148 0.01518
C 30.76212 6.4594 0.01908
C 30.71385 5.0229 0.07705
C 32.03211 8.56332 0.02806
C 29.55204 4.28374 0.0103
C 30.69129 2.13537 0.00716
C 30.65892 0.73942 0.00307
C 29.43877 0.05315 0.00346
C 31.88825 32.62027 0.01713
C 33.11517 31.94297 -0.01694
C 33.18325 30.56969 0.01428
C 31.89325 29.82757 -0.02142
C 29.49582 2.87667 0.02108
C 32.00035 7.06853 0.01504
C 33.24167 6.39968 -0.00069
C 33.21281 4.95742 0.04926
C 0.05391 17.11998 0.00648
C 0.00376 15.74924 0.02114
C 1.2526 15.04039 -0.02957
C 1.17618 13.6724 0.00343
C 34.32941 12.91064 -0.02656
C 34.37456 11.46929 -0.02442
C 1.25824 10.71892 -0.00027
C 1.24359 17.7032 0.01223
C 1.21767 9.36762 -0.00583
C 34.40657 7.16208 -0.02849
C 1.23523 6.43264 0.02931
C 1.23741 5.03015 0.00628
C 34.42233 4.27279 -0.0345
C 34.39501 2.85928 -0.00931
C 1.20531 2.20973 -0.00939
C 1.20195 0.74159 -0.00468
C 34.42973 8.514 -0.02302
C 29.47571 12.75649 -0.01461
C 1.43017 19.07694 -0.01678
C 0.10509 21.33746 -0.02213
C 31.96245 4.23129 -0.03838
C 31.88603 2.86411 0.00349
C 33.1786 2.07821 -0.00323
C 33.10843 0.71663 -0.00841
C 31.92903 0.01679 0.0001
C 34.33715 32.64612 -0.02927
C 1.11017 31.94231 -0.01404
C 0.10321 19.90219 0.01951
C 1.17467 30.46515 0.01027
C 34.39557 28.39951 -0.01037
C 1.20232 27.69885 -0.00439
C 1.19373 26.28247 -0.00598
C 34.41673 25.53559 -0.05239
C 0.03863 24.16702 0.03076
C 1.30551 23.41405 0.00723
C 1.34354 22.02207 0.02712
C 34.40427 29.75327 0.01831
C 30.72487 13.48977 -0.01303
C 30.69636 14.91696 -0.0405
C 29.46397 15.55543 0.01705
C 25.80209 17.74119 -0.00285
C 24.59102 17.15542 -0.009
C 24.51911 15.66632 -0.01199
C 25.74604 14.92803 -0.00229
C 25.69938 13.45374 -0.00938
C 24.53013 12.75986 -0.0264
C 24.67276 2.87202 -0.01154
C 25.80015 19.21806 0.01423
C 25.84533 2.13226 0.00684
C 24.43634 0.06582 -0.01679
C 26.99254 32.60273 0.00367
C 28.2207 31.864 0.04306
C 28.2436 30.53111 0.00996
C 26.97205 29.78994 0.00195
C 26.98737 28.31112 -0.00802
C 28.17158 27.62156 -0.00218
C 25.72024 0.72881 -0.01052
C 28.19281 26.20524 -0.01654
C 24.60248 19.85059 0.02555
C 24.59135 28.44957 0.00135
C 22.06906 19.64349 0.01515
C 23.36873 19.33072 -0.00225
C 23.35018 17.77295 0.00071
C 22.07771 17.04908 -0.01107
C 22.12822 15.68769 -0.01586
C 23.30955 14.99431 -0.01971
C 23.34895 13.41233 -0.02118
C 25.70362 27.85157 0.03102
C 22.2284 12.61003 0.00733
C 23.3946 2.43891 0.00768
C 23.26211 0.81985 -0.0276
C 22.07652 0.01098 0.03005
C 24.53093 32.67291 -0.04078
C 25.77637 31.97841 0.02117
C 25.70907 30.5343 0.02737
C 24.45966 29.77494 -0.00498
C 22.03242 2.94589 -0.00178
C 3.60547 31.99416 0.03693
C 27.04431 25.44083 -0.00037
C 28.24455 23.38336 0.00622
C 29.40566 32.73005 0.01177
C 30.62639 31.89626 0.04266
C 30.62142 30.57935 0.01324
C 29.4667 29.79754 0.0014
C 29.52002 28.36237 0.00924
C 30.74049 27.67958 0.02326
C 30.71276 26.26311 0.00261
C 26.97117 0.00373 -0.00416
C 29.47262 25.55648 0.03265
C 30.71987 23.3569 -0.01854
C 30.72439 21.96599 -0.01415
C 29.50447 21.1881 -0.03039
C 29.42739 19.82724 0.01836
C 30.73239 19.19421 0.03531
C 30.71611 17.76879 -0.00669
C 29.51973 17.02461 0.0101
C 29.45184 24.15885 -0.02049
C 27.0902 24.14103 -0.0032
C 28.16251 0.71819 0.01699
C 27.01795 2.79265 0.01259
C 28.20703 21.9719 -0.02815
C 27.00554 21.32611 -0.00942
C 27.0467 19.95978 0.00487
C 28.25045 19.14372 0.00826
C 28.24982 17.74432 -0.00294
C 26.99975 17.02399 0.00152
C 26.95545 15.62003 0.01257
C 28.19403 2.11251 0.01799
C 28.29985 14.8089 0.02316
C 26.97402 12.71594 0.00194
C 27.05404 11.32586 -0.00621
C 28.05512 10.42845 0.02611
C 28.35268 9.15999 0.02198
C 28.39484 6.32724 0.01094
C 28.12739 4.9883 0.00235
C 27.04997 4.14684 0.01495
C 28.21837 13.42604 0.04185
C 2.36437 32.67271 -0.01384
