445
Graphene
C 34.42938 34.04262 0.01295
C 13.451 17.81326 0.01291
C 12.2904 17.1137 0.00093
C 12.28075 15.68781 0.00057
C 13.47274 14.94609 -0.01634
C 13.56442 13.4549 -0.00334
C 12.36613 12.79256 0.02339
C 12.33795 11.40678 0.01641
C 13.51303 10.56714 -0.00719
C 13.4532 9.20753 0.01364
C 12.2399 8.46428 -0.01062
C 12.3035 7.02082 -0.00033
C 13.60177 6.4386 0.03589
C 13.56055 5.02509 -0.02759
C 12.3478 4.30446 0.0402
C 12.36445 2.74519 0.00572
C 13.48883 2.01178 0.03592
C 13.49841 0.60327 0.00406
C 12.27566 33.97021 0.00943
C 14.7364 32.66498 0.02841
C 16.03298 31.92256 -0.01111
C 16.00591 30.51125 -0.01275
C 14.73867 29.8374 0.00985
C 14.74897 28.3693 -0.02245
C 13.55063 19.17978 0.00438
C 12.20315 19.96005 -0.00191
C 12.28069 21.38336 0.00373
C 13.54899 22.0708 0.02147
C 11.13823 13.55173 -0.00494
C 9.90913 12.84038 0.00054
C 9.79836 11.43863 0.03007
C 11.01589 10.72194 -0.00095
C 11.03629 9.23369 0.01572
C 9.78839 8.67393 -0.04848
C 9.85867 7.16988 -0.00892
C 11.08921 6.44364 -0.01362
C 11.12959 5.00402 -0.0008
C 9.86259 4.29815 0.0288
C 9.81184 2.91559 0.00393
C 15.94021 27.70509 -0.00428
C 11.10305 2.09703 0.00895
C 9.76616 0.03372 0.02888
C 12.25458 32.56068 -0.00482
C 13.48639 31.93385 -0.01384
C 13.51227 30.56028 0.03693
C 12.32008 29.87724 0.01745
C 12.23529 28.52401 0.00488
C 13.46094 27.68397 -0.01004
C 13.48485 26.30188 -0.02896
C 12.27341 25.6121 -0.00131
C 12.2714 24.14044 -0.01118
C 13.54775 23.45988 -0.014
C 11.0262 0.71083 0.00685
C 15.98237 26.24075 0.03101
C 14.71234 25.59771 -0.01536
C 14.76428 24.22027 -0.02689
C 18.37724 27.66393 0.00052
C 18.48158 26.31194 -0.03682
C 17.19473 25.55478 0.01965
C 17.22165 24.12387 0.02058
C 18.37544 23.41597 -0.01957
C 18.33347 21.94406 -0.0108
C 17.10296 21.22508 -0.00368
C 17.20402 19.82176 -0.02696
C 18.50253 19.2171 -0.00114
C 18.41184 17.71601 0.00228
C 17.17487 17.03273 0.00798
C 17.17618 28.42392 0.00374
C 17.18488 15.60429 0.00422
C 18.44414 13.51998 -0.03113
C 17.28551 12.7822 0.02098
C 17.24413 11.38376 0.01848
C 18.43672 10.62351 -0.00619
C 18.44739 9.17802 -0.02162
C 17.21231 8.50924 0.00889
C 17.25008 7.10558 -0.00481
C 18.46092 6.33492 0.00979
C 18.40288 4.97273 0.01443
C 17.1882 4.26903 0.03505
C 17.17571 2.84064 -0.02815
C 18.34742 14.96107 0.0351
C 11.08525 14.9914 -0.00562
C 17.21174 29.83194 -0.02813
C 18.4195 32.00991 0.05265
C 15.98983 23.44593 -0.01046
C 15.96437 21.98227 -0.00891
C 14.72724 21.27589 0.02819
C 14.70814 19.8898 0.00165
C 15.97665 19.107 -0.02971
C 15.90092 17.72332 0.02894
C 14.72078 17.00353 -0.01789
C 14.71507 15.58171 0.00444
C 15.99879 14.87921 -0.00925
C 16.01509 13.47299 0.01877
C 14.77325 12.73013 0.01363
C 18.41745 30.54846 -0.01952
C 14.73547 11.33581 -0.02162
C 15.98995 9.22281 -0.0014
C 14.74772 8.49822 0.02162
C 14.83565 7.06513 0.0076
C 16.04166 6.46287 0.01241
C 15.98188 4.94891 -0.01454
C 14.7563 4.20173 0.01945
C 14.71598 2.78662 0.01416
C 15.92422 2.15482 0.03542
C 15.93503 0.70529 0.02299
C 14.73454 34.02983 0.00244
C 17.13505 32.73667 -0.01717
C 15.99603 10.64935 0.00415
C 9.82966 15.66749 -0.01142
C 9.85655 17.03271 0.01849
C 10.98234 17.86419 0.01396
C 3.71749 0.6914 -0.01299
C 2.50165 34.07525 -0.00407
C 4.98243 32.63129 0.01138
C 6.13707 32.00346 0.03278
C 6.18863 30.498 -0.00177
C 5.06246 29.81689 0.04421
C 4.96302 28.42717 0.00088
C 6.18749 27.6667 0.00828
C 6.14153 26.28305 -0.02375
C 4.85699 25.59356 0.00558
C 4.88097 24.23929 -0.0059
C 3.6786 2.1071 -0.0154
C 6.1379 23.51778 -0.01386
C 4.90263 21.24754 0.00081
C 4.94997 19.83877 0.00245
C 6.15077 19.1634 0.02728
C 6.21257 17.77974 -0.00039
C 4.88584 17.0284 0.0064
C 4.88813 15.64869 0.00211
C 6.1192 14.98887 -0.00449
C 6.13889 13.54341 -0.01979
C 4.98925 12.84499 0.02784
C 4.88799 11.34873 -0.01977
C 6.14771 10.67004 -0.00561
C 6.11963 22.07127 -0.02805
C 6.11687 9.31137 0.00208
C 2.39395 2.70767 0.00662
C 3.62353 4.97228 0.03345
C 3.74216 30.47002 -0.02419
C 2.49396 29.85264 -0.03951
C 2.5516 28.42269 -0.00141
C 3.76617 27.7589 -0.00374
C 3.67355 26.39236 -0.0213
C 2.45141 25.53967 0.01116
C 2.49307 24.04761 -0.0005
C 3.75771 23.30922 -0.00018
C 3.69921 21.98152 0.01073
C 2.37579 21.236 0.01984
C 2.36323 19.79387 0.00535
C 2.45842 4.16639 0.00748
C 3.6138 19.17129 -0.00198
C 2.41666 17.03741 -0.04306
C 2.45686 15.6332 -0.03672
C 3.62891 14.97644 0.01913
C 3.73021 13.42903 0.00267
C 2.45819 12.76269 0.00787
C 2.43725 11.34231 0.02426
C 3.7056 10.7152 0.01218
C 3.68199 9.26992 -0.01471
C 2.44281 8.50506 -0.02827
C 2.46692 7.12852 0.01078
C 3.68307 6.36457 -0.00112
C 3.58044 17.79781 -0.00012
C 18.39948 2.0934 -0.04147
C 4.9116 8.55993 0.01707
C 6.1164 6.42049 -0.03291
C 8.5637 9.30981 -0.03113
C 7.33746 8.60106 -0.02566
C 7.34039 7.21177 -0.00094
C 8.64641 6.49356 0.02322
C 8.6337 5.00765 -0.00725
C 7.40036 4.28963 -0.05697
C 7.42071 2.88363 0.01087
C 8.68058 2.16184 -0.01343
C 8.64052 0.75713 0.00988
C 7.37736 0.05456 0.0276
C 9.81004 32.65679 0.01305
C 8.58854 10.75762 0.017
C 10.95364 31.85828 -0.00077
C 9.74375 29.86781 -0.02929
C 9.79812 28.43766 -0.00966
C 11.03188 27.78463 -0.03337
C 11.01618 26.26954 0.01227
C 9.79357 25.65246 0.00873
C 9.79982 24.13311 -0.00049
C 11.04473 23.4319 0.00848
C 11.02004 21.99891 -0.01303
C 9.77064 21.28747 -0.01378
C 9.81409 19.91398 0.02635
C 10.99986 19.32308 0.0127
C 11.04318 30.52228 0.03368
C 4.87203 7.11062 0.02769
C 7.40078 11.45407 -0.00643
C 8.6429 13.49073 -0.00518
C 6.15335 5.02935 -0.04999
C 4.88513 4.30005 0.04505
C 4.93617 2.83867 0.03284
C 6.14927 2.19688 -0.04307
C 6.15124 0.72419 0.03189
C 4.97879 0.01276 0.00031
C 7.33987 32.71559 -0.003
C 8.55036 31.97949 0.01402
C 8.59778 30.54238 0.02379
C 7.38969 29.78518 0.00907
C 7.38425 28.39836 0.00643
C 7.35706 12.88962 0.0086
C 8.60372 27.67471 -0.01509
C 7.34109 25.56647 0.02374
C 7.32637 24.19166 0.00402
C 8.56467 23.48569 0.0073
C 8.59957 22.08002 0.0174
C 7.36915 21.35558 0.03828
C 7.34862 19.85548 0.01226
C 8.54695 19.20545 -0.00279
C 8.54305 17.7242 0.01996
C 7.3225 17.00836 -0.03996
C 7.35001 15.60833 0.01465
C 8.58454 14.98505 -0.00074
C 8.6014 26.27407 0.03267
C 3.7476 31.92682 0.02438
C 18.47003 0.77773 -0.05302
C 19.66415 32.66812 -0.00066
C 29.49629 15.69161 0.01705
C 30.69126 14.89378 -0.0405
C 30.72915 13.47966 -0.01303
C 29.51099 12.8088 -0.01461
C 29.48815 11.33374 -0.02155
C 30.76213 10.5926 -0.00944
C 30.70975 9.21842 -0.03735
C 29.56301 8.47649 -0.00971
C 29.50088 6.98696 0.01518
C 30.7218 6.33352 0.01908
C 30.78322 4.92794 0.07705
C 29.48151 4.26464 0.0103
C 29.47661 2.87486 0.02108
C 30.71376 2.17159 0.00716
C 30.75512 0.73703 0.00307
C 29.54239 0.05826 0.00346
C 31.95148 32.73181 0.01713
C 33.25757 32.01372 -0.01694
C 33.18199 30.60899 0.01428
C 31.96032 29.89181 -0.02142
C 31.99234 28.41105 0.0544
C 33.22842 27.65962 0.00026
C 33.21623 26.26052 0.00682
C 29.58264 17.05337 0.0101
C 30.82577 17.7368 -0.00669
C 30.73511 19.10816 0.03531
C 29.50171 19.86782 0.01836
C 27.09923 11.33369 0.04185
C 28.27914 10.57317 0.00194
C 28.28344 9.14527 -0.00621
C 27.12753 8.51839 0.02611
C 27.0581 7.04803 0.02198
C 28.24621 6.38455 0.01094
C 28.28592 4.9574 0.00235
C 27.02428 4.32142 0.01495
C 27.08443 2.84011 0.01259
C 28.26097 2.09813 0.01799
C 28.24511 0.72937 0.01699
C 31.93102 25.55522 -0.01779
C 27.07996 34.0791 -0.00416
C 30.80311 31.98701 0.04266
C 30.71463 30.55764 0.01324
C 29.49275 29.81413 0.0014
C 29.45587 28.3901 0.00924
C 30.8078 27.72133 0.02326
C 30.74164 26.31207 0.00261
C 29.47396 25.6248 0.03265
C 29.41926 24.21742 -0.02049
C 30.63824 23.43195 -0.01854
C 30.62346 21.93032 -0.01415
C 29.4336 21.19439 -0.03039
C 29.43117 32.68204 0.01177
C 31.89045 24.13168 0.03794
C 33.15571 23.42023 0.01927
C 33.11436 21.98872 0.01574
C 0.02848 25.4678 -0.05239
C 34.42894 24.14698 0.03076
C 1.25532 23.42889 0.00723
C 1.21536 21.9988 0.02712
C 34.35058 21.28154 -0.02213
C 34.35807 19.86671 0.01951
C 1.18431 19.13176 -0.01678
C 1.20289 17.69004 0.01223
C 0.00761 16.93689 0.00648
C 34.39858 15.57796 0.02114
C 1.2523 14.90518 -0.02957
C 1.25587 26.24333 -0.00598
C 1.19339 13.50992 0.00343
C 0.03259 11.29461 -0.02442
C 1.29527 10.5979 -0.00027
C 1.2299 9.20898 -0.00583
C 0.02308 8.44659 -0.02302
C 0.03871 7.03293 -0.02849
C 1.23625 6.35886 0.02931
C 1.20777 4.96217 0.00628
C 0.00767 4.26046 -0.0345
C 34.38191 2.88082 -0.00931
C 1.10878 2.08258 -0.00939
C 1.20117 0.70084 -0.00468
C 0.00603 12.73366 -0.02656
C 27.11203 12.7529 0.02316
C 1.33291 27.64571 -0.00439
C 0.06426 29.78334 0.01831
C 31.94964 21.30303 -0.02383
C 31.98689 19.8368 -0.01429
C 33.23053 19.11593 -0.0136
C 33.22948 17.71429 0.00594
C 32.00694 17.03677 -0.02474
C 31.90326 15.55601 0.00369
C 33.16182 14.81666 0.00455
C 33.13572 13.47128 -0.00644
C 31.94331 12.78005 -0.01839
C 32.02081 11.30119 0.00137
C 33.2197 10.63359 0.00199
C 0.03959 28.37095 -0.01037
C 33.24109 9.19476 0.04381
C 31.96776 7.05682 0.01504
C 33.20249 6.35133 -0.00069
C 33.18547 4.99008 0.04926
C 31.94478 4.22237 -0.03838
C 31.94513 2.87362 0.00349
C 33.13294 2.15751 -0.00323
C 33.23169 0.78218 -0.00841
C 31.99986 0.10459 0.0001
C 0.04368 32.6447 -0.02927
C 1.31187 31.91841 -0.01404
C 1.20941 30.58874 0.01027
C 32.01355 8.43903 0.02806
C 28.32104 13.51348 0.01257
C 28.25367 14.9466 0.00152
C 27.04137 15.74079 -0.00294
C 20.90942 2.1287 -0.04422
C 20.90922 0.71894 0.00654
C 19.68227 0.03068 -0.00703
C 22.06064 32.68662 -0.04076
C 23.35663 32.01477 -0.00652
C 23.37792 30.65255 0.0058
C 22.15417 29.79628 -0.00865
C 22.19185 28.4104 0.00675
C 23.32796 27.62126 -0.00311
C 23.50585 26.24726 0.00742
C 22.18277 25.57542 -0.01594
C 19.655 2.85368 -0.02957
C 22.10217 24.12937 0.0106
C 23.37477 21.63733 -0.01721
C 21.97749 21.17268 -0.02422
C 23.35615 17.58042 0.01277
C 22.14541 17.1143 0.00096
C 22.09389 15.62368 -0.01527
C 23.35787 14.9418 0.01087
C 23.40523 13.44594 0.00199
C 22.10527 12.7467 0.01511
C 22.13098 11.31649 -0.00478
C 23.31986 10.61976 -0.01662
C 23.34381 9.21537 -0.01185
C 23.43066 23.27295 -0.01154
C 22.09855 8.5341 0.01126
C 19.63412 4.21815 -0.00831
C 20.90893 6.33551 -0.017
C 20.88422 31.94279 -0.00289
C 20.89629 30.57646 0.00028
C 19.60676 29.84367 -0.02213
C 19.72717 28.45463 0.03698
C 20.97408 27.77681 -0.00109
C 20.91862 26.29628 -0.00491
C 19.74754 25.55155 0.03338
C 19.75536 24.15801 -0.0258
C 20.9828 23.4761 -0.0331
C 20.87711 22.01159 -0.00316
C 19.62121 21.35993 0.02188
C 20.8905 4.91922 0.00364
C 19.65924 19.97749 -0.01979
C 20.87691 17.98735 -0.01581
C 19.68093 17.1019 0.01452
C 19.62206 15.72437 0.04892
C 20.82001 14.85426 -0.00111
C 20.87728 13.43323 -0.03557
C 19.66338 12.81043 0.03754
C 19.64203 11.36534 0.01739
C 20.7995 10.61621 0.00755
C 20.8218 9.19996 -0.0054
C 19.62832 8.45026 0.00667
C 19.67217 7.06179 0.00143
C 20.9984 19.4005 0.02691
C 17.12189 0.05396 0.00213
C 22.11033 7.13498 0.01852
C 23.37925 5.0166 0.03046
C 24.55863 7.1075 -0.00285
C 25.76023 6.36337 -0.009
C 25.80721 5.01059 -0.01199
C 24.61135 4.27749 -0.00229
C 24.59575 2.82041 -0.00938
C 25.88116 2.09672 -0.0264
C 25.88132 0.7462 -0.01154
C 24.58866 0.07533 0.00684
C 27.0459 32.62374 -0.01052
C 28.25228 31.87476 -0.01679
C 28.26357 30.43144 0.00367
C 24.54087 8.56318 0.01423
C 26.94242 29.80409 0.04306
C 28.2226 27.7081 0.00195
C 28.20675 26.32139 -0.00802
C 27.04073 25.56652 -0.00218
C 26.99548 24.14298 -0.01654
C 28.26806 23.47906 -0.00037
C 28.28114 21.97427 -0.0032
C 27.03471 21.29195 0.00622
C 27.0446 19.90953 -0.02815
C 28.23994 19.21537 -0.00942
C 28.26872 17.7405 0.00487
C 26.97367 17.13807 0.00826
C 26.93915 28.40674 0.00996
C 23.34313 6.39599 -0.00381
C 25.82641 9.22158 0.02555
C 24.5513 11.30267 0.00135
C 22.1657 4.24353 0.0296
C 22.16656 2.83504 0.03374
C 23.37811 2.1775 -0.02845
C 23.35722 0.73955 -0.03213
C 22.12624 0.07004 0.02239
C 24.58535 32.73152 0.01153
C 25.78932 31.9933 0.02734
C 25.74404 30.49851 -0.0055
C 24.53309 29.83866 0.01515
C 24.55128 28.37348 -0.00225
C 25.7835 27.71792 0.00071
C 25.84112 10.60639 0.03102
C 25.77677 26.22779 -0.01107
C 24.63862 24.05629 -0.01971
C 25.81254 23.32862 -0.02118
C 25.81402 21.9771 0.00733
C 24.67989 21.07946 -0.00178
C 25.74386 19.45522 0.00768
C 25.74781 17.97949 -0.0276
C 24.56953 17.05802 0.03005
C 24.57956 15.60921 -0.04078
C 25.84973 14.85465 0.02117
C 25.92716 13.4567 0.02737
C 24.5677 12.72756 -0.00498
C 24.60938 25.55888 -0.01586
C 2.50184 32.57781 0.00297
