259
Graphene
C 0.02096 34.06922 0.01295
C 15.9626 30.58608 0.03046
C 15.9761 31.96006 -0.00381
C 14.78778 32.70785 0.01852
C 12.37959 0.04376 0.01126
C 13.55175 0.77907 -0.01185
C 13.54035 2.23024 -0.01662
C 12.31788 2.85989 -0.00478
C 11.89529 4.23522 0.01511
C 13.64796 23.22433 0.00199
C 12.44977 23.98532 0.01087
C 12.37759 25.49665 -0.01527
C 13.55757 26.23745 0.00096
C 13.55671 27.68442 0.01277
C 14.77403 29.85982 0.0296
C 12.30901 28.3957 -0.02422
C 13.5306 30.61197 -0.01154
C 13.54679 32.00818 0.0106
C 12.33689 32.70646 -0.01594
C 9.87967 34.07062 0.00742
C 11.04342 0.74015 -0.00311
C 11.06483 2.18452 0.00675
C 9.74868 2.89459 -0.00865
C 9.61228 4.32064 0.0058
C 10.95101 4.946 -0.00652
C 11.14427 23.67092 -0.04076
C 9.83932 24.14841 -0.00703
C 9.842 25.60274 0.00654
C 11.09663 26.23086 -0.04422
C 12.32344 29.76931 -0.01721
C 14.76575 28.41474 0.03374
C 16.01036 27.63777 -0.02845
C 15.97475 26.1767 -0.03213
C 19.67798 29.86563 -0.00938
C 20.87702 30.60109 -0.00229
C 20.93912 31.8877 -0.01199
C 19.68758 32.65656 -0.009
C 17.24817 34.01222 -0.00285
C 18.48199 0.5812 0.01423
C 18.47463 2.00564 0.02555
C 18.46026 19.43765 0.03102
C 17.27842 19.60488 0.00135
C 16.73946 20.99717 -0.00498
C 18.77813 21.89979 0.02737
C 18.54316 23.44318 0.02117
C 17.27305 24.13691 -0.04078
C 17.269 25.54334 0.03005
C 18.46373 26.31039 -0.0276
C 18.44287 27.70319 0.00768
C 17.21957 28.43429 -0.00178
C 17.1623 29.95379 0.00733
C 18.4457 30.60766 -0.02118
C 18.45294 31.95773 -0.01971
C 17.22478 32.63842 -0.01586
C 14.81788 0.08358 -0.01107
C 16.10847 0.76538 0.00071
C 16.11849 2.1384 -0.00225
C 14.90755 2.63377 0.01515
C 16.13794 22.06175 -0.0055
C 16.04021 23.45755 0.02734
C 14.84391 24.0563 0.01153
C 14.71907 25.52159 0.02239
C 11.09774 27.65081 -0.02957
C 19.66512 28.43339 -0.0264
C 9.82779 28.37212 -0.00831
C 11.07722 30.48573 -0.017
C 6.08907 27.70598 0.00889
C 4.85854 28.34256 -0.02162
C 4.79286 29.75793 -0.00619
C 6.07562 30.50625 0.01848
C 6.07759 31.93221 0.02098
C 4.92307 32.64145 -0.03113
C 2.4559 0.01382 0.0351
C 3.67879 0.70985 0.00422
C 3.6825 2.10878 0.00798
C 2.43299 2.90528 0.00228
C 2.46235 4.36646 -0.00114
C 3.72427 5.01854 -0.02696
C 3.69503 6.51434 -0.00368
C 6.07365 26.28293 -0.00481
C 2.4934 7.20282 -0.0108
C 3.72765 9.2896 0.02058
C 2.45274 11.41336 0.01965
C 2.24617 19.9978 -0.03682
C 2.3187 21.30976 0.00052
C 3.58008 21.93457 0.00374
C 3.71174 23.38935 -0.02813
C 2.46961 24.07016 -0.01952
C 2.43389 25.57141 0.05265
C 3.66551 26.26184 -0.01717
C 3.55977 27.71217 0.00244
C 2.29114 28.33187 0.02299
C 2.26205 29.764 0.03542
C 3.59125 30.51245 0.01416
C 2.5189 8.5947 -0.01957
C 4.85457 25.50809 0.00979
C 4.99283 24.06499 0.01443
C 6.24303 23.41137 0.03505
C 11.13068 31.9288 0.00143
C 9.80898 32.70009 0.00667
C 7.39868 34.0729 -0.0054
C 8.60209 0.7582 0.00755
C 8.57066 2.17856 0.01739
C 7.30396 2.80556 0.03754
C 7.23247 4.2509 -0.03557
C 8.44093 5.11708 -0.00111
C 8.37754 6.48709 0.04892
C 8.5915 23.60883 0.01452
C 7.40334 24.23769 -0.01581
C 7.3464 25.64692 0.02691
C 8.60705 26.25982 -0.01979
C 8.55552 27.68752 0.02188
C 7.27137 28.46927 -0.00316
C 7.31243 29.83788 -0.0331
C 8.5661 30.50068 -0.0258
C 8.56852 31.84216 0.03338
C 7.36597 32.64987 -0.00491
C 4.89939 34.01964 -0.00109
C 6.14459 0.70236 0.03698
C 6.12326 2.0977 -0.02213
C 4.93588 2.81174 0.00028
C 4.92578 4.33508 -0.00289
C 6.08398 5.06677 -0.00066
C 6.23448 6.49886 0.00213
C 4.94143 7.04661 -0.05302
C 4.95707 21.43528 -0.04147
C 5.92037 22.04022 -0.02815
C 9.82594 29.81954 0.00364
C 3.61306 31.96863 0.01945
C 21.02831 27.8343 -0.01154
C 19.73281 25.63245 -0.01052
C 33.2444 2.21 -0.00323
C 32.00915 2.90481 0.00349
C 31.97369 4.27544 -0.03838
C 33.23291 5.01519 0.04926
C 33.21289 6.42546 -0.00069
C 31.99284 7.13414 0.01504
C 31.96007 8.50788 0.02806
C 33.16432 9.27111 0.04381
C 33.25072 10.69714 0.00199
C 32.06418 11.3764 0.00137
C 32.01329 12.7757 -0.01839
C 33.23188 13.56388 -0.00644
C 33.17545 14.97407 0.00455
C 33.23107 0.75217 -0.00841
C 31.76178 15.60797 0.00369
C 33.11678 17.79401 0.00594
C 33.2087 26.3011 -0.0136
C 33.00521 27.61905 -0.01429
C 31.71076 28.39401 -0.02383
C 31.851 29.85603 0.01574
C 33.14362 30.51976 0.01927
C 33.11312 31.98529 0.03794
C 31.8878 32.68952 -0.01779
C 29.44689 0.05421 0.00682
C 30.729 0.72437 0.00026
C 30.72733 2.14396 0.0544
C 29.46146 2.83402 -0.02142
C 29.53212 4.29084 0.01428
C 32.08458 17.03174 -0.02474
C 31.96287 0.06311 0.0001
C 34.33095 32.65683 -0.02927
C 1.13734 31.96054 -0.01404
C 1.22483 0.75185 -0.00468
C 1.21935 2.18585 -0.00939
C 0.03737 2.99033 -0.00931
C 0.01925 4.35447 -0.0345
C 1.24765 5.05489 0.00628
C 1.23683 6.45556 0.02931
C 0.00875 7.14484 -0.02849
C 0.03471 8.57069 -0.02302
C 1.27189 9.22373 -0.00583
C 1.26635 10.72551 -0.00027
C 0.02109 11.39861 -0.02442
C 34.38534 12.74612 -0.02656
C 1.13942 13.59081 0.00343
C 1.15209 14.87936 -0.02957
C 34.37974 15.7051 0.02114
C 34.40152 17.11083 0.00648
C 1.25046 17.78947 0.01223
C 1.09047 19.16319 -0.01678
C 0.04029 19.98594 0.01951
C 34.36568 21.35946 -0.02213
C 1.17413 22.00321 0.02712
C 1.28011 23.37667 0.00723
C 0.11583 24.00537 0.03076
C 34.30223 25.4236 -0.05239
C 1.12231 26.20237 -0.00598
C 1.01521 27.57263 -0.00439
C 34.19046 28.35314 -0.01037
C 34.27699 29.75256 0.01831
C 1.09071 30.4776 0.01027
C 30.74789 5.01492 -0.01694
C 20.80952 26.49076 0.00684
C 30.73935 6.43093 0.01713
C 29.49635 8.53979 0.00307
C 24.546 4.23906 0.01259
C 25.65613 5.07268 0.01495
C 25.83353 6.43901 0.00235
C 25.96797 9.37409 0.01094
C 25.89727 10.55563 0.02198
C 25.78315 13.62182 0.02611
C 25.58554 14.94746 -0.00621
C 24.47289 29.81865 0.00194
C 25.69245 30.39776 0.04185
C 25.8144 31.92296 0.02316
C 24.58736 32.65156 0.01257
C 22.21198 0.01737 0.00152
C 23.41453 0.6688 -0.00294
C 24.58932 2.83036 0.01799
C 23.3418 2.03522 0.00826
C 22.18857 28.52869 -0.00942
C 22.09526 29.85671 -0.02815
C 23.30194 30.56801 0.00622
C 23.37295 32.01064 -0.0032
C 22.13599 32.67171 -0.00037
C 19.72754 34.05509 -0.01654
C 20.95625 0.74215 -0.00218
C 20.99925 2.1749 -0.00802
C 19.56966 2.61806 0.00195
C 20.29274 18.35714 0.00996
C 19.99663 19.58097 0.04306
C 19.54711 20.88676 0.00367
C 19.51865 24.2732 -0.01679
C 22.17651 2.89324 0.00487
C 25.82658 2.17089 0.01699
C 25.87214 0.75492 -0.00416
C 24.6627 0.0171 0.01177
C 30.74529 9.21596 0.00716
C 30.78198 10.70851 0.02108
C 29.52443 11.36489 0.0103
C 29.56236 12.73182 0.07705
C 30.81153 13.44916 0.01908
C 30.68923 14.79108 0.01518
C 29.44021 29.78331 -0.00971
C 30.67498 30.61872 -0.03735
C 30.67971 31.95174 -0.00944
C 29.48832 32.6886 -0.02155
C 27.07275 0.07785 -0.01461
C 28.24637 0.74205 -0.01303
C 28.2648 2.20373 -0.0405
C 26.99096 2.95824 0.01705
C 26.94852 4.37717 0.0101
C 28.244 5.01164 -0.00669
C 28.30942 6.47288 0.03531
C 27.03563 7.08566 0.01836
C 27.14379 8.46914 -0.03039
C 28.25221 9.25279 -0.01415
C 28.25954 10.64476 -0.01854
C 27.07415 11.48414 -0.02049
C 27.09439 12.83841 0.03265
C 28.32435 13.46734 0.00261
C 28.4417 14.79443 0.02326
C 27.03736 29.83131 0.00924
C 28.1924 30.44681 0.0014
C 28.26086 31.93408 0.01324
C 27.07063 32.63933 0.04266
C 29.55176 7.1079 0.00346
C 2.4142 32.65997 -0.01454
