352
Graphene
C 34.42662 34.07934 0.01295
C 9.78185 8.61135 -0.00114
C 9.86511 7.14781 0.00228
C 11.02235 6.36062 0.00798
C 10.97441 4.99524 0.00422
C 9.69261 4.25954 0.0351
C 9.70488 2.82819 -0.03113
C 11.03302 2.20471 0.02098
C 10.98963 0.7548 0.01848
C 11.10851 9.38743 -0.02696
C 9.74834 0.05877 -0.00619
C 13.35992 31.86738 0.00889
C 13.39712 30.53872 -0.00481
C 12.15217 29.74453 0.00979
C 12.09633 28.19711 0.01443
C 13.45602 27.57659 0.03505
C 13.51924 26.27718 -0.02815
C 13.18068 23.4068 -0.04147
C 13.43489 21.99135 -0.05302
C 12.17205 32.72952 -0.02162
C 12.29363 21.20223 0.00213
C 11.14357 10.62156 -0.00368
C 9.93607 12.84202 -0.01957
C 8.57687 0.71191 0.02162
C 7.42532 34.06166 0.0076
C 9.76409 32.72808 0.01241
C 10.96341 31.97306 -0.01454
C 10.92847 30.49684 0.01945
C 9.73743 29.7528 0.01416
C 9.73753 28.37007 0.03542
C 10.77695 27.44957 0.02299
C 9.9293 11.3743 -0.0108
C 10.12755 26.1233 0.00244
C 11.43894 23.4202 0.05265
C 11.14287 21.96582 -0.01952
C 9.89846 21.41246 -0.02813
C 9.78946 19.87441 0.00374
C 11.0802 19.12543 0.00052
C 11.12361 17.70136 -0.03682
C 11.12475 14.93277 0.01965
C 11.13709 13.50372 0.02058
C 10.31309 24.3634 -0.01717
C 8.53968 2.14339 -0.0014
C 12.33422 19.80473 -0.00066
C 13.63297 17.60833 0.00028
C 15.84672 27.63048 -0.017
C 15.90885 26.19867 0.00364
C 14.67913 25.48992 -0.00831
C 14.56374 23.98276 -0.02957
C 15.93629 23.40868 -0.04422
C 15.98758 21.98663 0.00654
C 14.78824 21.10615 -0.00703
C 14.78763 19.75297 -0.04076
C 14.68027 28.3749 0.00143
C 14.66794 16.79605 -0.00652
C 15.88345 13.88828 -0.00865
C 14.92232 12.73688 0.00675
C 15.05646 11.33492 -0.00311
C 16.23286 10.50813 0.00742
C 15.94428 9.20789 -0.01594
C 14.71669 8.52334 0.0106
C 14.78021 7.08721 -0.01154
C 15.94051 6.33104 -0.01721
C 14.85405 15.41243 0.0058
C 13.55702 19.08756 -0.00289
C 14.6484 29.81768 0.00667
C 15.89609 32.00768 0.00755
C 12.32365 16.94612 -0.02213
C 12.34976 15.50485 0.03698
C 13.59868 14.77207 -0.00109
C 13.64079 13.39946 -0.00491
C 12.28907 12.76047 0.03338
C 12.32398 11.31428 -0.0258
C 13.67949 10.65364 -0.0331
C 13.56616 9.23754 -0.00316
C 15.88893 30.54345 -0.0054
C 12.33345 8.54281 0.02188
C 13.52427 6.37462 0.02691
C 13.42338 4.95031 -0.01581
C 12.22852 4.25616 0.01452
C 12.15118 2.85336 0.04892
C 13.46769 2.1352 -0.00111
C 13.46941 0.66216 -0.03557
C 12.23762 34.06912 0.03754
C 14.63438 32.63545 0.01739
C 12.33802 7.1001 -0.01979
C 15.85328 4.95343 -0.02422
C 7.21397 2.91843 0.00415
C 8.54612 5.12194 0.01363
C 2.43085 7.20926 -0.00095
C 3.69637 6.49927 0.01572
C 3.65987 5.01738 -0.04848
C 2.44222 4.3474 -0.00892
C 2.30931 2.87771 -0.01362
C 3.54063 2.13855 -0.0008
C 3.64235 0.65851 0.0288
C 2.42662 0.0714 0.00393
C 2.4388 8.57598 0.03007
C 4.83308 32.78194 0.00895
C 6.02711 30.57516 0.02888
C 4.87045 29.90037 -0.00482
C 4.91015 28.37918 -0.01384
C 6.10903 27.74248 0.03693
C 6.19254 26.33557 0.01745
C 4.98694 25.61987 0.00488
C 4.99078 24.10167 -0.01004
C 6.24437 23.48685 -0.02896
C 6.05557 32.03947 0.00685
C 6.17763 22.03557 -0.00131
C 3.74286 9.25271 0.00054
C 2.43893 11.38064 -0.00562
C 3.65685 30.56021 0.0276
C 2.4619 29.89768 0.01305
C 2.47612 28.45573 -0.00077
C 3.74967 27.70841 0.03368
C 3.7151 26.33958 -0.02929
C 2.40147 25.64488 -0.00966
C 2.41955 24.15673 -0.03337
C 3.60608 23.45523 0.01227
C 3.62677 10.71059 -0.00494
C 3.64899 22.06049 0.00873
C 2.34483 19.86951 0.00848
C 3.55622 19.16398 -0.01303
C 3.55156 17.75652 -0.01378
C 2.34035 17.12409 0.02635
C 2.29954 15.78015 0.0127
C 3.65009 14.99596 0.01396
C 3.68718 13.53989 0.01849
C 2.57019 12.81962 -0.01142
C 2.43391 21.25899 -0.00049
C 7.30347 4.31032 -0.02162
C 4.90757 21.30201 -0.01118
C 6.10061 19.13032 0.02147
C 7.29471 28.50588 -0.01111
C 8.48874 27.81775 -0.01275
C 8.61052 26.42525 0.00985
C 7.4688 25.65909 -0.02245
C 7.52847 24.2245 -0.00428
C 8.86738 23.53863 0.03101
C 8.71504 22.143 -0.01536
C 7.45776 21.39156 -0.02689
C 7.26893 29.97008 0.02841
C 7.38299 19.90148 -0.01046
C 8.68807 13.43927 0.02819
C 7.48211 12.84254 0.00165
C 7.3931 11.42687 -0.02971
C 8.64387 10.69541 0.02894
C 8.55615 9.24974 -0.01789
C 7.37736 8.6224 0.00444
C 7.38169 7.16853 -0.00925
C 8.63207 6.48384 0.01877
C 8.58979 19.20821 -0.00891
C 4.82478 19.89954 -0.014
C 8.53101 30.5901 0.00943
C 7.3351 32.71989 0.03592
C 6.00856 17.80822 0.00373
C 4.86532 17.03885 -0.00191
C 4.87215 15.62915 0.00438
C 6.07948 14.94888 0.01291
C 6.18439 13.59573 0.00093
C 4.93693 12.8855 0.00057
C 4.83952 11.47859 -0.01634
C 6.09383 10.75691 -0.00334
C 8.57602 32.03868 0.00406
C 6.14556 9.3722 0.02339
C 4.96601 7.13351 -0.00719
C 6.09544 6.43097 0.01364
C 6.07848 5.05756 -0.01062
C 4.92039 4.27857 -0.00033
C 4.85143 2.85361 0.03589
C 6.0202 2.0985 -0.02759
C 6.15844 0.72311 0.0402
C 4.85835 0.02453 0.00572
C 4.95805 8.57414 0.01641
C 14.64087 4.2655 0.01277
C 14.68717 2.78088 0.00096
C 15.94588 2.07804 -0.01527
C 31.89921 32.65254 -0.01694
C 33.16289 31.98744 0.01428
C 33.2021 30.53558 -0.02142
C 31.98121 29.80045 0.0544
C 31.9353 28.39463 0.00026
C 33.2085 27.72822 0.00682
C 33.16409 26.3269 -0.01779
C 31.93166 25.61177 0.03794
C 29.4998 0.01666 0.01713
C 31.96652 24.18952 0.01927
C 33.00038 22.01434 -0.02383
C 31.74975 21.26685 -0.01429
C 31.87782 19.83111 -0.0136
C 32.9261 18.99067 0.00594
C 33.09798 17.56424 -0.02474
C 32.0453 16.04812 0.00369
C 33.0596 15.03506 0.00455
C 33.11827 13.62282 -0.00644
C 33.09287 23.40913 0.01574
C 32.07 12.73348 -0.01839
C 30.76682 0.73064 0.00346
C 29.55505 2.78245 0.00716
C 29.46305 32.65984 -0.03039
C 30.69847 31.93714 0.01836
C 30.81274 30.57644 0.03531
C 29.54643 29.80637 -0.00669
C 29.41124 28.38524 0.0101
C 30.70431 27.72317 0.01705
C 30.699 26.33497 -0.0405
C 29.41275 25.67049 -0.01303
C 30.7801 2.15555 0.00307
C 29.30509 24.16187 -0.01461
C 30.69371 22.1534 -0.00944
C 30.6862 10.60817 -0.03735
C 30.76243 9.20254 -0.00971
C 29.50407 8.53464 0.01518
C 29.47541 7.05493 0.01908
C 30.71648 6.31962 0.07705
C 30.72127 5.00113 0.0103
C 29.4986 4.25587 0.02108
C 30.54055 23.50453 -0.02155
C 27.00435 0.0113 -0.01415
C 31.81778 11.40781 0.00137
C 33.18447 9.21421 0.04381
C 1.04762 19.18998 -0.01678
C 1.06261 17.7902 0.01223
C 34.33275 16.97463 0.00648
C 34.40959 15.63014 0.02114
C 1.21577 14.91244 -0.02957
C 1.27055 13.48261 0.00343
C 0.00742 12.79055 -0.02656
C 34.35706 11.36212 -0.02442
C 34.29197 19.89144 0.01951
C 1.14281 10.74465 -0.00027
C 0.00781 8.60859 -0.02302
C 34.38318 7.09374 -0.02849
C 1.15679 6.46155 0.02931
C 1.21291 5.05682 0.00628
C 0.03099 4.31637 -0.0345
C 34.39477 2.88325 -0.00931
C 1.17435 2.17515 -0.00939
C 1.20811 0.68482 -0.00468
C 1.19091 9.36908 -0.00583
C 33.0922 10.60861 0.00199
C 34.30597 21.28963 -0.02213
C 1.13699 23.33595 0.00723
C 31.99559 8.4789 0.02806
C 31.92871 7.03982 0.01504
C 33.21718 6.29749 -0.00069
C 33.24464 4.94602 0.04926
C 32.03626 4.22988 -0.03838
C 31.98596 2.86556 0.00349
C 33.1698 2.09415 -0.00323
C 33.15047 0.75616 -0.00841
C 1.15408 21.96288 0.02712
C 31.89708 34.04516 0.0001
C 1.13435 31.98652 -0.01404
C 1.23059 30.62167 0.01027
C 34.42958 29.855 0.01831
C 0.00744 28.48265 -0.01037
C 1.25135 27.72411 -0.00439
C 1.14609 26.33695 -0.00598
C 34.30572 25.6075 -0.05239
C 34.33781 24.09275 0.03076
C 34.36841 32.62701 -0.02927
C 28.29382 0.71862 -0.01854
C 28.32174 2.12656 -0.02049
C 27.12371 2.82898 0.03265
C 19.64711 32.66822 -0.01586
C 20.84148 31.96708 -0.01971
C 20.92803 30.5001 -0.02118
C 19.74417 29.83318 0.00733
C 19.70296 28.42336 -0.00178
C 20.98264 27.59388 0.00768
C 20.79422 26.20998 -0.0276
C 19.60197 25.67277 0.03005
C 17.19827 34.06161 -0.01107
C 19.5574 8.70085 -0.04078
C 20.76099 6.41188 0.02737
C 20.85275 5.03512 -0.00498
C 19.64681 4.33912 0.00135
C 19.66921 2.90199 0.03102
C 20.93644 2.09253 0.02555
C 20.87608 0.72441 0.01423
C 19.61241 0.05591 -0.00285
C 22.11571 32.65671 -0.009
C 19.55901 7.20077 0.02117
C 23.31651 31.97497 -0.01199
C 18.44423 0.80097 0.00071
C 17.13655 2.82855 0.01515
C 15.9501 0.67592 0.01087
C 14.72708 0.01793 0.00199
C 17.19903 32.6559 0.01511
C 18.41859 31.97919 -0.00478
C 18.48827 30.53332 -0.01662
C 17.16548 29.82595 -0.01185
C 17.17465 28.34418 0.01126
C 18.42516 27.73332 0.01852
C 18.43083 2.20791 -0.00225
C 18.36354 26.23498 -0.00381
C 17.08728 24.18872 0.0296
C 17.70254 10.51346 0.03374
C 18.34548 9.46943 -0.02845
C 17.19727 8.45181 -0.03213
C 17.15777 7.07642 0.02239
C 18.38444 6.36114 0.01153
C 18.39199 4.95037 0.02734
C 17.12076 4.26208 -0.0055
C 17.1203 25.55297 0.03046
C 23.39802 30.55821 -0.00229
C 22.22005 29.80946 -0.00938
C 22.15428 28.33018 -0.0264
C 24.60584 2.82757 0.00194
C 25.81478 2.11397 -0.00621
C 25.74313 0.7694 0.02611
C 24.59322 0.03046 0.02198
C 26.99787 32.69624 0.01094
C 28.19989 31.96902 0.00235
C 28.27194 30.46847 0.01495
C 27.0696 29.83131 0.01259
C 24.49326 4.28846 0.04185
C 26.92616 28.48229 0.01799
C 28.16497 26.37328 -0.00416
C 26.93563 25.74499 0.01177
C 28.27083 9.07817 0.04266
C 26.97252 8.43912 0.01324
C 26.95369 7.09436 0.0014
C 28.223 6.38804 0.00924
C 28.29865 4.92638 0.02326
C 27.05728 4.25274 0.00261
C 28.12498 27.77956 0.01699
C 25.80897 4.91071 0.02316
C 25.8326 6.36171 0.01257
C 24.5562 7.28362 0.00152
C 23.34952 27.51283 -0.01154
C 23.93448 26.2472 0.00684
C 21.68839 8.53355 -0.01052
C 22.00693 7.24724 -0.01679
C 23.27381 6.52608 0.00367
C 23.29062 5.04919 0.04306
C 22.02186 4.32747 0.00996
C 22.1226 2.89179 0.00195
C 23.36021 2.10641 -0.00802
C 23.38241 0.78171 -0.00218
C 22.12081 34.01156 -0.01654
C 24.54206 32.66687 -0.00037
C 25.80682 31.96623 -0.0032
C 25.88353 30.57973 0.00622
C 24.65497 29.8248 -0.02815
C 24.62408 28.41057 -0.00942
C 25.72217 27.65823 0.00487
C 25.62153 26.24326 0.00826
C 24.86376 8.57951 -0.00294
C 3.64607 32.05834 0.00988
C 2.45139 32.70565 -0.01343
