445
Graphene
C 0.01518 0.01664 0.01295
C 13.53685 17.74901 0.01291
C 12.29141 17.07795 0.00093
C 12.30166 15.63308 0.00057
C 13.54259 14.91664 -0.01634
C 13.58014 13.52746 -0.00334
C 12.32291 12.81094 0.02339
C 12.28164 11.36141 0.01641
C 13.53572 10.65364 -0.00719
C 13.50507 9.18983 0.01364
C 12.31046 8.5512 -0.01062
C 12.31835 7.12279 -0.00033
C 13.53129 6.36873 0.03589
C 13.54208 4.94841 -0.02759
C 12.32693 4.25807 0.0402
C 12.26835 2.88142 0.00572
C 13.50481 2.14095 0.03592
C 13.51686 0.68187 0.00406
C 12.25359 34.04874 0.00943
C 14.7766 32.63971 0.02841
C 15.94839 31.93248 -0.01111
C 15.97676 30.59081 -0.01275
C 14.76845 29.79984 0.00985
C 14.73562 28.43838 -0.02245
C 13.5189 19.19786 0.00438
C 12.31625 19.92793 -0.00191
C 12.31934 21.32128 0.00373
C 13.53267 22.02374 0.02147
C 11.08155 13.45949 -0.00494
C 9.8463 12.78134 0.00054
C 9.84421 11.33523 0.03007
C 11.08934 10.64718 -0.00095
C 11.04617 9.28675 0.01572
C 9.79247 8.51667 -0.04848
C 9.83728 7.12459 -0.00892
C 11.05463 6.36055 -0.01362
C 11.06614 4.99341 -0.0008
C 9.86718 4.27515 0.0288
C 9.89391 2.85714 0.00393
C 15.95386 27.67453 -0.00428
C 11.06934 2.15992 0.00895
C 9.85334 34.03924 0.02888
C 12.25786 32.65271 -0.00482
C 13.51901 31.91724 -0.01384
C 13.58221 30.52844 0.03693
C 12.28791 29.8133 0.01745
C 12.28758 28.41974 0.00488
C 13.46664 27.75129 -0.01004
C 13.50621 26.31901 -0.02896
C 12.29482 25.55137 -0.00131
C 12.31602 24.09744 -0.01118
C 13.51605 23.45857 -0.014
C 11.06636 0.71275 0.00685
C 15.96524 26.28084 0.03101
C 14.73085 25.55886 -0.01536
C 14.75876 24.12245 -0.02689
C 18.45574 27.71841 0.00052
C 18.47473 26.26658 -0.03682
C 17.23573 25.56671 0.01965
C 17.22982 24.11061 0.02058
C 18.45499 23.40636 -0.01957
C 18.41706 22.01806 -0.0108
C 17.21894 21.29003 -0.00368
C 17.23325 19.82607 -0.02696
C 18.46315 19.14593 -0.00114
C 18.43686 17.78864 0.00228
C 17.18918 17.03024 0.00798
C 17.20112 28.39256 0.00374
C 17.14432 15.67206 0.00422
C 18.4262 13.48449 -0.03113
C 17.20229 12.77652 0.02098
C 17.2385 11.31975 0.01848
C 18.46467 10.65789 -0.00619
C 18.44622 9.26295 -0.02162
C 17.21143 8.55347 0.00889
C 17.21793 7.1234 -0.00481
C 18.4272 6.38801 0.00979
C 18.46533 4.96603 0.01443
C 17.18843 4.22439 0.03505
C 17.20445 2.83052 -0.02815
C 18.47801 14.9015 0.0351
C 11.04185 14.89139 -0.00562
C 17.18412 29.81574 -0.02813
C 18.43776 31.94255 0.05265
C 16.00877 23.4476 -0.01046
C 15.9962 22.00532 -0.00891
C 14.7757 21.30584 0.02819
C 14.78692 19.88574 0.00165
C 15.97682 19.17867 -0.02971
C 15.9773 17.71089 0.02894
C 14.72553 17.05011 -0.01789
C 14.75522 15.60466 0.00444
C 15.95102 14.90079 -0.00925
C 16.00255 13.47949 0.01877
C 14.80539 12.78678 0.01363
C 18.41261 30.53589 -0.01952
C 14.77524 11.31691 -0.02162
C 15.98366 9.24407 -0.0014
C 14.75773 8.53389 0.02162
C 14.7641 7.10373 0.0076
C 15.99014 6.35243 0.01241
C 15.98498 4.9525 -0.01454
C 14.72906 4.28474 0.01945
C 14.72467 2.87101 0.01416
C 15.97129 2.1341 0.03542
C 16.02622 0.73918 0.02299
C 14.78136 34.04352 0.00244
C 17.23066 32.67877 -0.01717
C 15.97071 10.66498 0.00415
C 9.87169 15.63686 -0.01142
C 9.81553 17.10123 0.01849
C 11.08087 17.75663 0.01396
C 3.67627 0.6781 -0.01299
C 2.47252 34.07013 -0.00407
C 4.92891 32.66751 0.01138
C 6.21468 31.90424 0.03278
C 6.17136 30.51965 -0.00177
C 4.90201 29.82903 0.04421
C 4.95729 28.38617 0.00088
C 6.15916 27.69804 0.00828
C 6.10199 26.29526 -0.02375
C 4.92394 25.6008 0.00558
C 4.91018 24.15747 -0.0059
C 3.68723 2.11324 -0.0154
C 6.16804 23.42284 -0.01386
C 4.95517 21.29247 0.00081
C 4.9065 19.8523 0.00245
C 6.18467 19.16266 0.02728
C 6.07157 17.72998 -0.00039
C 4.88378 17.07156 0.0064
C 4.90529 15.62584 0.00211
C 6.15528 14.89748 -0.00449
C 6.18554 13.48426 -0.01979
C 4.89965 12.73756 0.02784
C 4.9133 11.3653 -0.01977
C 6.16079 10.66159 -0.00561
C 6.13512 22.01763 -0.02805
C 6.15553 9.23548 0.00208
C 2.44104 2.78131 0.00662
C 3.70225 4.93535 0.03345
C 3.69553 30.53301 -0.02419
C 2.47104 29.80165 -0.03951
C 2.46135 28.42189 -0.00141
C 3.68953 27.71309 -0.00374
C 3.66884 26.25172 -0.0213
C 2.50446 25.57579 0.01116
C 2.50949 24.14762 -0.0005
C 3.68819 23.45494 -0.00018
C 3.66436 21.93706 0.01073
C 2.45392 21.27706 0.01984
C 2.45111 19.88353 0.00535
C 2.44396 4.18965 0.00748
C 3.70568 19.16983 -0.00198
C 2.45979 17.03556 -0.04306
C 2.43509 15.61246 -0.03672
C 3.70395 14.88764 0.01913
C 3.68229 13.50382 0.00267
C 2.45418 12.83392 0.00787
C 2.4568 11.37086 0.02426
C 3.69863 10.65959 0.01218
C 3.69201 9.21764 -0.01471
C 2.4643 8.54099 -0.02827
C 2.46399 7.1001 0.01078
C 3.67813 6.4022 -0.00112
C 3.71759 17.78342 -0.00012
C 18.47 2.1788 -0.04147
C 4.9261 8.54858 0.01707
C 6.20702 6.39233 -0.03291
C 8.59835 9.26796 -0.03113
C 7.37434 8.54345 -0.02566
C 7.38169 7.11351 -0.00094
C 8.55369 6.36515 0.02322
C 8.63273 4.96057 -0.00725
C 7.38313 4.26484 -0.05697
C 7.38596 2.84867 0.01087
C 8.59875 2.14534 -0.01343
C 8.57958 0.74304 0.00988
C 7.35991 0.03268 0.0276
C 9.79954 32.6705 0.01305
C 8.57659 10.69766 0.017
C 11.05571 31.95309 -0.00077
C 9.8766 29.79273 -0.02929
C 9.81523 28.43817 -0.00966
C 11.03159 27.69813 -0.03337
C 11.09798 26.30797 0.01227
C 9.88483 25.56068 0.00873
C 9.84439 24.14293 -0.00049
C 11.03296 23.41954 0.00848
C 11.1024 22.01513 -0.01303
C 9.83049 21.35682 -0.01378
C 9.80591 19.87424 0.02635
C 11.04909 19.18953 0.0127
C 11.05675 30.51582 0.03368
C 4.94494 7.16869 0.02769
C 7.3424 11.35453 -0.00643
C 8.63513 13.51783 -0.00518
C 6.16667 4.94632 -0.04999
C 4.93381 4.2445 0.04505
C 4.9027 2.83071 0.03284
C 6.15443 2.11153 -0.04307
C 6.1391 0.71479 0.03189
C 4.91013 34.06648 0.00031
C 7.3669 32.68971 -0.003
C 8.57679 31.96362 0.01402
C 8.57253 30.58031 0.02379
C 7.41047 29.8467 0.00907
C 7.3838 28.38452 0.00643
C 7.44618 12.76922 0.0086
C 8.58239 27.70926 -0.01509
C 7.3916 25.59397 0.02374
C 7.42895 24.14346 0.00402
C 8.61025 23.42882 0.0073
C 8.59843 22.00565 0.0174
C 7.34835 21.3053 0.03828
C 7.41782 19.89142 0.01226
C 8.56608 19.16255 -0.00279
C 8.63876 17.73952 0.01996
C 7.38519 17.05136 -0.03996
C 7.38636 15.64235 0.01465
C 8.61141 14.88496 -0.00074
C 8.59363 26.26303 0.03267
C 3.72771 31.95186 0.02438
C 18.41968 0.71173 -0.05302
C 19.64815 32.66249 -0.00066
C 29.49638 15.59366 0.01705
C 30.7601 14.9385 -0.0405
C 30.73835 13.49873 -0.01303
C 29.51088 12.75965 -0.01461
C 29.5502 11.35529 -0.02155
C 30.7552 10.64493 -0.00944
C 30.77837 9.25739 -0.03735
C 29.49942 8.4774 -0.00971
C 29.53125 7.09969 0.01518
C 30.77634 6.39572 0.01908
C 30.73262 4.974 0.07705
C 29.49906 4.23542 0.0103
C 29.5213 2.86222 0.02108
C 30.73659 2.11782 0.00716
C 30.76311 0.73198 0.00307
C 29.50793 34.0585 0.00346
C 31.97109 32.6819 0.01713
C 33.18749 31.96384 -0.01694
C 33.21143 30.52999 0.01428
C 31.98164 29.80025 -0.02142
C 32.02501 28.42009 0.0544
C 33.22985 27.70204 0.00026
C 33.17215 26.24691 0.00682
C 29.49937 17.05579 0.0101
C 30.75816 17.73623 -0.00669
C 30.75466 19.19212 0.03531
C 29.49777 19.81499 0.01836
C 27.0417 11.3358 0.04185
C 28.28657 10.64759 0.00194
C 28.32108 9.24182 -0.00621
C 27.03555 8.51393 0.02611
C 27.02426 7.10398 0.02198
C 28.29956 6.35788 0.01094
C 28.27496 4.96792 0.00235
C 27.03353 4.22262 0.01495
C 27.06135 2.88834 0.01259
C 28.29519 2.14336 0.01799
C 28.27675 0.69878 0.01699
C 31.96892 25.5398 -0.01779
C 27.03333 34.05174 -0.00416
C 30.73466 31.93838 0.04266
C 30.74125 30.54159 0.01324
C 29.53928 29.78367 0.0014
C 29.52093 28.37675 0.00924
C 30.74843 27.68845 0.02326
C 30.72212 26.27457 0.00261
C 29.50121 25.57042 0.03265
C 29.50032 24.09531 -0.02049
C 30.73541 23.44153 -0.01854
C 30.74065 22.05536 -0.01415
C 29.55837 21.31805 -0.03039
C 29.49065 32.65916 0.01177
C 31.9689 24.1364 0.03794
C 33.21225 23.41094 0.01927
C 33.2058 22.00153 0.01574
C 34.42217 25.62957 -0.05239
C 34.42521 24.11972 0.03076
C 1.22876 23.4335 0.00723
C 1.17732 22.01969 0.02712
C 34.42353 21.31039 -0.02213
C 0.01837 19.8883 0.01951
C 1.20951 19.15263 -0.01678
C 1.20571 17.73568 0.01223
C 0.01339 17.01196 0.00648
C 34.41416 15.58324 0.02114
C 1.20748 14.91731 -0.02957
C 1.26082 26.25008 -0.00598
C 1.23929 13.49978 0.00343
C 34.43174 11.38181 -0.02442
C 1.20525 10.67382 -0.00027
C 1.24348 9.19127 -0.00583
C 34.41408 8.51093 -0.02302
C 34.40853 7.09465 -0.02849
C 1.21851 6.36532 0.02931
C 1.24625 4.93326 0.00628
C 34.4298 4.24808 -0.0345
C 34.39983 2.829 -0.00931
C 1.21872 2.12939 -0.00939
C 1.25822 0.67165 -0.00468
C 34.41616 12.75522 -0.02656
C 27.0579 12.74374 0.02316
C 1.24924 27.65493 -0.00439
C 34.3696 29.82037 0.01831
C 31.96976 21.27761 -0.02383
C 31.98548 19.88146 -0.01429
C 33.20874 19.16722 -0.0136
C 33.20271 17.73477 0.00594
C 32.0021 17.02639 -0.02474
C 32.01828 15.58674 0.00369
C 33.21058 14.88938 0.00455
C 33.24077 13.4379 -0.00644
C 31.93446 12.77017 -0.01839
C 31.95332 11.35127 0.00137
C 33.2095 10.61175 0.00199
C 0.05035 28.40362 -0.01037
C 33.16429 9.21733 0.04381
C 31.95111 7.11394 0.01504
C 33.2058 6.40022 -0.00069
C 33.20372 4.95935 0.04926
C 32.00134 4.27044 -0.03838
C 31.96197 2.86483 0.00349
C 33.19844 2.12703 -0.00323
C 33.22431 0.68086 -0.00841
C 32.00889 0.01163 0.0001
C 0.01074 32.67578 -0.02927
C 1.23449 31.9878 -0.01404
C 1.25326 30.48019 0.01027
C 31.97571 8.51154 0.02806
C 28.30275 13.51347 0.01257
C 28.27437 14.93433 0.00152
C 27.02749 17.05909 -0.00294
C 20.90425 2.1589 -0.04422
C 20.88399 0.75424 0.00654
C 19.65268 34.04276 -0.00703
C 22.17473 32.66422 -0.04076
C 23.3897 31.99958 -0.00652
C 23.36754 30.50293 0.0058
C 22.14724 29.84154 -0.00865
C 22.17548 28.40447 0.00675
C 23.38513 27.67718 -0.00311
C 23.33468 26.24531 0.00742
C 22.17759 25.53125 -0.01594
C 19.6697 2.84066 -0.02957
C 22.22555 24.14311 0.0106
C 23.3326 22.02949 -0.01721
C 22.10773 21.29357 -0.02422
C 22.14486 19.8576 0.01277
C 23.28623 19.14923 0.00096
C 23.31316 17.76443 -0.01527
C 22.12477 17.0088 0.01087
C 22.12923 15.60136 0.00199
C 23.37325 14.88494 0.01511
C 23.32433 13.46535 -0.00478
C 22.11725 12.77933 -0.01662
C 22.10353 11.36144 -0.01185
C 23.34067 23.42961 -0.01154
C 23.3747 10.63983 0.01126
C 19.69378 4.27308 -0.00831
C 20.90972 6.37425 -0.017
C 20.89977 31.95945 -0.00289
C 20.95594 30.48586 0.00028
C 19.7103 29.81475 -0.02213
C 19.66681 28.39801 0.03698
C 20.90161 27.6412 -0.00109
C 20.94825 26.28215 -0.00491
C 19.66002 25.55897 0.03338
C 19.66475 24.10858 -0.0258
C 20.89314 23.40131 -0.0331
C 20.87098 22.05461 -0.00316
C 19.64711 21.31533 0.02188
C 20.91888 4.99475 0.00364
C 19.73053 19.89364 -0.01979
C 20.931 17.76213 -0.01581
C 19.66983 17.05056 0.01452
C 19.66942 15.57008 0.04892
C 20.92647 14.94052 -0.00111
C 20.8971 13.47462 -0.03557
C 19.67871 12.77467 0.03754
C 19.67199 11.33364 0.01739
C 20.89002 10.62693 0.00755
C 20.90739 9.21438 -0.0054
C 19.67436 8.52673 0.00667
C 19.70022 7.07202 0.00143
C 20.90954 19.23187 0.02691
C 17.23566 0.00757 0.00213
C 23.32855 9.20357 0.01852
C 22.14613 7.06814 0.03046
C 24.60786 8.5119 -0.00285
C 24.60229 7.13018 -0.009
C 25.85374 6.34944 -0.01199
C 25.7904 4.96954 -0.00229
C 24.66599 4.28172 -0.00938
C 24.56358 2.88081 -0.0264
C 25.86268 2.15349 -0.01154
C 25.81582 0.73261 0.00684
C 24.58433 34.03696 -0.01052
C 27.09341 32.61172 -0.01679
C 28.24569 31.94241 0.00367
C 25.85663 9.2338 0.01423
C 28.30077 30.5326 0.04306
C 27.03001 28.41479 0.00195
C 28.28775 27.69938 -0.00802
C 28.26801 26.30178 -0.00218
C 27.0612 25.56047 -0.01654
C 27.02224 24.08094 -0.00037
C 28.28997 23.43803 -0.0032
C 28.27118 22.0247 0.00622
C 27.06602 21.30516 -0.02815
C 27.04568 19.81865 -0.00942
C 28.29124 19.15467 0.00487
C 28.26305 17.77369 0.00826
C 27.03251 29.82257 0.00996
C 22.1395 8.52753 -0.00381
C 25.8126 10.60579 0.02555
C 24.606 12.7798 0.00135
C 23.38537 6.38192 0.0296
C 23.35509 4.95158 0.03374
C 22.14082 4.23102 -0.02845
C 22.15139 2.8392 -0.03213
C 23.36797 2.17705 0.02239
C 23.39823 0.7262 0.01153
C 22.08124 34.04789 0.02734
C 24.56681 32.67515 -0.0055
C 25.80959 31.94185 0.01515
C 25.77524 30.52995 -0.00225
C 24.54311 29.8541 0.00071
C 24.5954 11.35219 0.03102
C 24.61208 28.42517 -0.01107
C 25.81093 26.27506 -0.01971
C 24.58718 25.5722 -0.02118
C 24.56293 24.13499 0.00733
C 25.83472 23.36205 -0.00178
C 25.7905 22.01827 0.00768
C 24.58145 21.35016 -0.0276
C 24.61414 19.89488 0.03005
C 25.83375 19.15271 -0.04078
C 25.83408 17.77262 0.02117
C 24.60168 17.02828 0.02737
C 24.68317 15.63634 -0.00498
C 25.86666 27.64298 -0.01586
C 2.49946 32.72459 0.00297
