305
Graphene
C 34.30656 0.06402 0.01295
C 11.25083 27.60925 -0.01581
C 11.01897 26.29657 0.01452
C 9.87847 25.66204 0.04892
C 9.85542 24.21763 -0.00111
C 11.04042 23.5015 -0.03557
C 10.95706 22.13422 0.03754
C 9.89022 21.29561 0.01739
C 9.90379 19.68143 0.00755
C 10.91208 18.76831 -0.0054
C 10.7441 17.42822 0.00667
C 9.68304 16.65139 0.00143
C 11.20714 4.8355 -0.017
C 9.9744 4.27045 0.00364
C 9.88008 2.86665 -0.00831
C 11.0712 2.12275 -0.02957
C 9.98623 28.35432 0.02691
C 11.11275 0.63135 -0.04422
C 9.89597 29.79717 -0.01979
C 11.03355 31.93721 -0.00316
C 7.30875 17.0933 0.03505
C 7.33188 15.67684 -0.02815
C 8.49355 14.87618 -0.04147
C 7.3031 12.8862 -0.05302
C 7.26393 11.72047 0.00213
C 7.3487 8.59519 -0.00066
C 7.48882 7.1813 -0.00289
C 8.68186 6.42283 0.00028
C 8.64642 5.03268 -0.02213
C 7.39434 4.21524 0.03698
C 7.37183 2.84962 -0.00109
C 8.6557 2.10669 -0.00491
C 8.67119 0.73155 0.03338
C 7.34158 0.03157 -0.0258
C 9.74328 32.66516 -0.0331
C 11.05558 30.53436 0.02188
C 8.58565 17.64522 0.01443
C 9.8813 33.98109 0.00654
C 13.52546 31.97947 -0.04076
C 18.55407 30.64684 -0.01185
C 17.26569 30.07764 0.01126
C 17.70199 4.27 0.01852
C 17.28027 2.93623 -0.00381
C 18.44671 1.98235 0.03046
C 18.40252 0.59851 0.0296
C 17.17565 34.05088 0.03374
C 19.73937 32.72488 -0.02845
C 20.91458 31.91457 -0.03213
C 20.86859 30.52754 0.02239
C 20.747 6.1957 0.01153
C 20.53239 4.82452 0.02734
C 19.27917 4.10501 -0.0055
C 19.61555 2.7671 0.01515
C 20.91105 2.18242 -0.00225
C 18.58031 32.09877 -0.01662
C 12.26312 32.65513 -0.00703
C 17.21631 32.66206 -0.00478
C 15.97859 0.71138 0.00199
C 13.49383 30.55185 -0.00652
C 12.28513 29.83932 0.0058
C 12.45296 28.42376 -0.00865
C 12.41391 4.18429 0.00675
C 12.36043 2.79817 -0.00311
C 13.57679 1.97269 0.00742
C 13.5917 0.64933 -0.01594
C 12.28845 34.04876 0.0106
C 14.75588 32.64678 -0.01154
C 15.91731 31.88292 -0.01721
C 15.91438 30.44283 -0.02422
C 14.63316 29.77958 0.01277
C 14.68042 4.26108 0.00096
C 14.84139 2.84411 -0.01527
C 16.077 2.18161 0.01087
C 14.83553 34.05238 0.01511
C 8.65595 19.19945 0.00979
C 7.43274 19.89126 -0.00481
C 7.47576 21.29511 0.00889
C 3.67708 10.68155 -0.01111
C 3.71827 9.24894 -0.01275
C 2.48234 8.52449 0.00985
C 2.43915 7.06256 -0.02245
C 3.72782 6.37842 -0.00428
C 3.66176 4.97016 0.03101
C 2.41173 4.25679 -0.01536
C 2.41501 2.83552 -0.02689
C 3.60006 2.07758 -0.01046
C 3.63282 0.73143 -0.00891
C 2.42596 0.03465 0.02819
C 4.96807 32.63895 0.00165
C 6.21889 31.93567 -0.02971
C 6.16816 30.50427 0.02894
C 4.94116 29.74053 -0.01789
C 2.50684 11.38586 0.02841
C 4.8904 28.36303 0.00444
C 2.41813 12.83531 0.00943
C 3.71126 14.95185 0.03592
C 3.72158 30.45988 0.01291
C 2.39627 29.80976 0.00093
C 2.41001 28.38478 0.00057
C 3.66251 27.61622 -0.01634
C 3.64038 26.17016 -0.00334
C 2.38985 25.53805 0.02339
C 2.37709 24.15429 0.01641
C 3.59582 23.42061 -0.00719
C 3.66605 22.06506 0.01364
C 2.3838 21.35363 -0.01062
C 2.46039 19.9798 -0.00033
C 3.67036 19.28615 0.03589
C 3.66945 17.8896 -0.02759
C 2.43444 17.07422 0.0402
C 2.47862 15.68609 0.00572
C 3.63347 13.56414 0.00406
C 6.13362 27.65349 -0.00925
C 6.08309 26.26114 0.01877
C 4.88917 25.51688 0.01363
C 4.89404 2.87146 0.02058
C 6.12387 2.1578 -0.01957
C 6.1169 0.75205 -0.0108
C 4.95806 0.00587 -0.00368
C 7.4862 32.63076 -0.02696
C 8.62115 31.82125 -0.00114
C 8.65577 30.42734 0.00228
C 7.42985 29.80956 0.00798
C 7.4449 28.32495 0.00422
C 8.68408 27.71005 0.0351
C 8.5863 26.29416 -0.03113
C 7.3539 25.45931 0.02098
C 7.36066 24.07519 0.01848
C 8.58279 23.42083 -0.00619
C 8.64994 22.02479 -0.02162
C 4.97822 4.30961 0.01965
C 6.18845 5.02261 -0.03682
C 6.20955 6.47132 0.00052
C 4.95115 7.16018 0.00374
C 4.87193 24.15075 -0.02162
C 6.16365 23.44828 0.00415
C 6.1605 22.04842 -0.0014
C 4.90385 21.39246 0.02162
C 4.89643 19.99965 0.0076
C 6.14483 19.19809 0.01241
C 6.11649 17.82626 -0.01454
C 20.86392 0.72724 0.00071
C 4.88589 17.18317 0.01945
C 6.08607 15.02469 0.03542
C 6.00925 13.59689 0.02299
C 4.8214 12.84064 0.00244
C 4.87576 11.47373 -0.01717
C 6.09678 10.87929 0.05265
C 6.17225 9.32551 -0.01952
C 4.98216 8.60813 -0.02813
C 4.90114 15.73771 0.01416
C 3.65394 31.94495 0.00438
C 19.6899 34.05533 -0.01107
C 23.32368 31.98145 -0.01971
C 33.12937 22.06072 0.01574
C 31.88286 21.29766 -0.02383
C 31.90806 19.91393 -0.01429
C 33.12229 19.25575 -0.0136
C 33.1512 17.821 0.00594
C 31.88504 17.03276 -0.02474
C 31.91162 15.69706 0.00369
C 33.14316 15.0165 0.00455
C 33.20966 13.61193 -0.00644
C 31.98367 12.84368 -0.01839
C 31.97188 11.43887 0.00137
C 33.23096 10.74391 0.00199
C 33.16869 9.27725 0.04381
C 31.91475 8.60068 0.02806
C 31.90507 7.1169 0.01504
C 33.10947 23.4726 0.01927
C 33.09629 6.4193 -0.00069
C 31.91191 24.13694 0.03794
C 33.07369 26.346 0.00682
C 29.53467 8.63068 -0.00971
C 29.53841 7.17517 0.01518
C 30.68373 6.38651 0.01908
C 30.63368 5.00511 0.07705
C 29.4165 4.34024 0.0103
C 29.44853 2.87405 0.02108
C 30.68968 2.18941 0.00716
C 30.66474 0.698 0.00307
C 29.41426 0.01242 0.00346
C 32.02476 32.74574 0.01713
C 33.17685 31.96073 -0.01694
C 33.12795 30.51998 0.01428
C 31.85937 29.87627 -0.02142
C 31.90252 28.46485 0.0544
C 33.12744 27.78829 0.00026
C 31.81774 25.55785 -0.01779
C 30.74556 9.25992 -0.03735
C 33.15327 4.98148 0.04926
C 31.90207 2.88537 0.00349
C 34.40821 15.67881 0.02114
C 1.20377 15.00756 -0.02957
C 1.21459 13.58701 0.00343
C 0.01453 12.89019 -0.02656
C 0.05936 11.42839 -0.02442
C 1.25423 10.71311 -0.00027
C 1.26153 9.29768 -0.00583
C 34.40049 8.62984 -0.02302
C 34.35406 7.16083 -0.02849
C 1.13625 6.41473 0.02931
C 1.1544 4.95068 0.00628
C 34.34408 4.29381 -0.0345
C 34.31037 2.93153 -0.00931
C 1.15896 2.13067 -0.00939
C 1.11375 0.73056 -0.00468
C 34.37496 17.12474 0.00648
C 31.88337 4.36013 -0.03838
C 1.19531 17.83563 0.01223
C 34.34935 19.93377 0.01951
C 33.10636 2.16242 -0.00323
C 33.11052 0.77378 -0.00841
C 31.91861 0.0513 0.0001
C 34.41741 32.71295 -0.02927
C 1.20927 31.94576 -0.01404
C 1.18444 30.53713 0.01027
C 34.41799 29.87564 0.01831
C 34.40834 28.41206 -0.01037
C 1.18422 27.70075 -0.00439
C 1.1319 26.26055 -0.00598
C 34.32529 25.61262 -0.05239
C 34.37711 24.21269 0.03076
C 1.14176 23.46167 0.00723
C 1.13592 22.0555 0.02712
C 34.32454 21.32112 -0.02213
C 1.16171 19.25361 -0.01678
C 30.70886 10.68804 -0.00944
C 29.41383 11.33745 -0.02155
C 29.50767 12.801 -0.01461
C 25.73965 10.6678 -0.0264
C 25.71265 9.21059 -0.01154
C 24.5947 8.48077 0.00684
C 24.49118 7.09767 -0.01052
C 25.6909 6.44119 -0.01679
C 25.72437 4.9606 0.00367
C 24.46474 4.24673 0.04306
C 24.57021 2.82235 0.00996
C 25.76443 2.13208 0.00195
C 25.77143 0.68812 -0.00802
C 24.55554 34.06542 -0.00218
C 27.0442 32.72102 -0.01654
C 28.22708 31.99757 -0.00037
C 28.19918 30.51433 -0.0032
C 27.00143 29.85093 0.00622
C 24.53967 11.32541 -0.00938
C 26.84874 28.43999 -0.02815
C 24.7395 12.7523 -0.00229
C 24.45029 29.98675 -0.009
C 23.39339 30.65463 -0.02118
C 23.38885 10.58096 0.00733
C 23.27672 9.13754 -0.00178
C 22.0825 8.45796 0.00768
C 21.93784 7.0428 -0.0276
C 23.15897 6.30442 0.03005
C 23.20201 4.95618 -0.04078
C 21.99196 4.21847 0.02117
C 22.10255 2.86848 0.02737
C 23.30692 2.1157 -0.00498
C 23.35605 0.72988 0.00135
C 22.09528 0.06684 0.03102
C 24.59625 32.69722 0.02555
C 25.78626 31.9821 0.01423
C 25.74748 30.56693 -0.00285
C 25.86603 13.53048 -0.01199
C 28.1469 27.69749 -0.00942
C 28.39181 26.38363 0.00487
C 28.22239 17.59065 0.00826
C 29.43112 28.39722 0.00924
C 30.69777 27.7224 0.02326
C 30.66566 26.30229 0.00261
C 29.44074 25.53553 0.03265
C 29.36795 24.08001 -0.02049
C 30.65459 23.51449 -0.01854
C 30.65438 22.02412 -0.01415
C 29.47132 21.07688 -0.03039
C 29.50325 19.83498 0.01836
C 30.73828 19.11162 0.03531
C 30.68851 17.74566 -0.00669
C 29.43012 17.15557 0.0101
C 29.46083 15.59764 0.01705
C 30.65207 14.94237 -0.0405
C 30.69007 13.56159 -0.01303
C 29.41579 29.80666 0.0014
C 30.66238 30.59913 0.01324
C 30.71446 32.07779 0.04266
C 29.48268 32.65256 0.01177
C 27.13519 15.78355 -0.00294
C 28.18076 14.96404 0.00152
C 28.2844 13.49626 0.01257
C 27.13696 12.7518 0.02316
C 26.93418 11.35881 0.04185
C 28.14618 10.65185 0.00194
C 28.21104 9.22816 -0.00621
C 22.0929 32.74585 -0.01586
C 26.9517 8.51049 0.02611
C 28.23559 6.43973 0.01094
C 28.10485 4.96082 0.00235
C 26.90998 4.24981 0.01495
C 26.96504 2.83856 0.01259
C 28.19752 2.20263 0.01799
C 28.19669 0.76056 0.01699
C 26.97393 0.02803 -0.00416
C 27.0093 7.15363 0.02198
C 2.45763 32.63392 -0.00191
