393
Graphene
C 34.36386 34.06009 0.01295
C 15.83755 10.76562 0.01877
C 15.91587 9.28688 0.01363
C 14.64918 8.564 -0.02162
C 14.63846 7.07568 0.00415
C 15.79871 6.43395 -0.0014
C 15.80125 5.03486 0.02162
C 14.6142 4.31821 0.0076
C 14.69575 2.77498 0.01241
C 15.9442 2.2109 -0.01454
C 14.72066 11.47904 -0.00925
C 15.95594 0.7172 0.01945
C 17.14607 32.60934 0.03542
C 18.37384 31.88767 0.02299
C 18.44557 30.50331 0.00244
C 17.26721 29.73938 -0.01717
C 17.21771 28.36639 0.05265
C 18.49785 27.68456 -0.01952
C 18.49504 26.25784 -0.02813
C 17.13972 25.61719 0.00374
C 17.18183 24.11589 0.00052
C 14.80227 0.00266 0.01416
C 14.70732 12.91763 0.00444
C 15.89454 13.63994 -0.01789
C 15.92756 15.10089 0.02894
C 12.1981 4.33059 0.03589
C 12.23377 2.91511 -0.02759
C 13.43439 2.11943 0.0402
C 13.50319 0.75954 0.00572
C 12.27755 0.09744 0.03592
C 14.78982 32.63139 0.00406
C 15.99657 31.85121 0.00943
C 16.02233 30.40139 0.02841
C 14.82048 29.81514 -0.01111
C 14.80744 28.3787 -0.01275
C 15.96105 27.71556 0.00985
C 15.94848 26.29059 -0.02245
C 14.69325 25.60106 -0.00428
C 14.53065 24.04749 0.03101
C 15.84767 23.26387 -0.01536
C 15.92645 21.78026 -0.02689
C 15.17154 20.43008 -0.01046
C 15.94507 19.46197 -0.00891
C 15.78848 18.0809 0.02819
C 14.85895 17.14146 0.00165
C 14.69127 15.78109 -0.02971
C 18.38076 23.43838 -0.03682
C 13.39396 5.00925 -0.00033
C 18.51975 22.02419 0.01965
C 17.30168 19.96343 -0.01957
C 20.8768 26.29235 -0.02213
C 19.6713 25.50133 0.03698
C 19.70227 24.18874 -0.00109
C 20.99744 23.36489 -0.00491
C 20.98428 21.94993 0.03338
C 19.73124 21.308 -0.0258
C 19.68313 19.88096 -0.0331
C 20.86938 19.16727 -0.00316
C 20.85084 17.75667 0.02188
C 20.89888 27.65096 0.00028
C 19.65263 17.07577 -0.01979
C 20.84117 14.88969 -0.01581
C 20.86341 13.48363 0.01452
C 19.6141 12.83686 0.04892
C 19.57412 11.41574 -0.00111
C 20.79315 10.59757 -0.03557
C 20.85453 9.21667 0.03754
C 19.65976 8.46927 0.01739
C 19.60035 7.06563 0.00755
C 20.78507 6.32677 -0.0054
C 19.65372 15.61033 0.02691
C 19.6972 28.3937 -0.00289
C 19.73242 29.77291 -0.00066
C 20.96251 30.42378 0.00213
C 18.50628 19.15531 -0.0108
C 18.39653 17.72402 -0.00368
C 17.08142 17.22258 -0.02696
C 17.16562 15.78762 -0.00114
C 18.41716 15.01877 0.00228
C 18.44383 13.59873 0.00798
C 17.13969 12.82817 0.00422
C 17.16271 11.39966 0.0351
C 18.42379 10.63743 -0.03113
C 18.47811 9.19191 0.02098
C 17.13205 8.57094 0.01848
C 17.09125 7.1418 -0.00619
C 18.28549 6.39645 -0.02162
C 18.34899 4.98791 0.00889
C 17.15062 4.28082 -0.00481
C 17.13836 2.83101 0.00979
C 18.44509 2.11277 0.01443
C 18.39369 0.68987 0.03505
C 17.18729 0.00651 -0.02815
C 19.66356 32.54658 -0.04147
C 20.9223 31.8118 -0.05302
C 17.27674 21.37475 0.02058
C 13.37959 6.39001 -0.01062
C 12.24141 7.16119 0.01364
C 12.28148 8.5911 -0.00719
C 4.90373 28.44859 -0.03996
C 6.19577 27.68474 0.01465
C 6.0684 26.33622 -0.00074
C 4.89507 25.63321 -0.00518
C 4.72396 12.84443 0.0086
C 4.76162 11.49506 -0.00643
C 6.13389 10.72976 0.017
C 6.05527 9.27355 -0.03113
C 4.78149 8.60424 -0.02566
C 4.92701 29.78402 0.01996
C 4.82824 7.19158 -0.00094
C 6.06352 5.00942 -0.00725
C 4.75313 4.26172 -0.05697
C 4.7767 2.88988 0.01087
C 6.07237 2.24125 -0.01343
C 6.09616 0.72995 0.00988
C 4.85528 0.03735 0.0276
C 7.27643 32.61091 0.01305
C 8.68398 31.98315 -0.00077
C 8.64454 30.63781 0.03368
C 6.08937 6.497 0.02322
C 6.1762 30.48481 -0.00279
C 6.1035 31.88403 0.01226
C 4.90617 32.68494 0.03828
C 3.70443 30.5597 0.00208
C 2.49634 29.87151 0.01707
C 2.3788 28.45088 0.02769
C 3.69788 27.81048 -0.03291
C 3.68994 26.30103 -0.04999
C 2.48422 25.72375 0.04505
C 2.47227 24.22204 0.03284
C 3.48843 13.53318 -0.04307
C 2.39329 12.85845 0.03189
C 2.37117 11.35745 0.00031
C 3.59672 10.72517 -0.003
C 3.58713 9.3071 0.01402
C 2.41793 8.59752 0.02379
C 2.40806 7.20105 0.00907
C 3.60812 6.40893 0.00643
C 3.59177 5.03677 -0.01509
C 2.40861 4.3324 0.03267
C 2.35507 2.96304 0.02374
C 3.50768 2.21148 0.00402
C 3.55756 0.73638 0.0073
C 2.39951 34.07741 0.0174
C 7.45818 29.87109 -0.02929
C 7.45157 28.2748 -0.00966
C 8.80201 27.59273 -0.03337
C 9.29414 26.26194 0.01227
C 10.99642 5.06361 -0.00482
C 9.73648 4.35737 -0.01384
C 9.73943 2.91073 0.03693
C 10.98472 2.24076 0.01745
C 11.00328 0.74894 0.00488
C 9.82362 0.03084 -0.01004
C 12.29662 32.6954 -0.02896
C 13.51784 31.93851 -0.00131
C 13.58757 30.50661 -0.01118
C 12.36985 29.8863 -0.014
C 12.3937 28.49564 0.02147
C 13.60994 27.74527 0.00373
C 13.43156 26.31477 -0.00191
C 12.11251 25.50805 0.00438
C 13.227 23.73047 0.01291
C 13.33677 15.03778 0.00093
C 13.34237 13.64819 0.00057
C 12.17105 12.75831 -0.01634
C 12.22141 11.40677 -0.00334
C 13.4711 10.74726 0.02339
C 13.49559 9.3083 0.01641
C 10.94243 6.51195 0.02888
C 20.78948 4.9049 0.00667
C 9.72073 7.23013 0.00685
C 10.99874 9.24217 0.00393
C 7.30128 11.51677 0.00873
C 8.58195 10.8575 -0.00049
C 8.56026 9.42193 0.00848
C 7.34063 8.55594 -0.01303
C 7.31665 7.15234 -0.01378
C 8.52064 6.49834 0.02635
C 8.53695 5.10089 0.0127
C 7.32971 4.33647 0.01396
C 7.3237 2.884 0.01849
C 8.55415 2.152 -0.01142
C 8.59825 0.80826 -0.00562
C 7.29636 0.00311 -0.00494
C 9.82748 32.77755 0.00054
C 11.02462 31.9626 0.03007
C 11.10579 30.54247 -0.00095
C 9.86893 29.86778 0.01572
C 9.87064 28.50825 -0.04848
C 11.07665 27.84396 -0.00892
C 10.90913 26.28994 -0.01362
C 9.8957 11.48528 -0.0008
C 11.022 10.72634 0.0288
C 9.76103 8.63359 0.00895
C 3.7264 31.94239 -0.00561
C 19.60139 4.25735 0.00143
C 20.85445 2.11741 0.00364
C 30.65922 4.98716 0.07705
C 29.44627 4.28313 0.0103
C 29.47206 2.78523 0.02108
C 30.77251 2.09127 0.00716
C 30.66402 0.68089 0.00307
C 29.44957 0.01254 0.00346
C 31.97865 32.65459 0.01713
C 33.14813 31.97208 -0.01694
C 33.1822 30.64051 0.01428
C 30.65654 6.41453 0.01908
C 31.98494 29.90147 -0.02142
C 33.23733 27.67623 0.00026
C 33.20817 26.29034 0.00682
C 32.00874 25.59742 -0.01779
C 32.0723 24.15999 0.03794
C 33.28189 23.39973 0.01927
C 33.1969 21.99784 0.01574
C 31.97371 21.30033 -0.02383
C 31.97869 19.87231 -0.01429
C 33.22091 19.12472 -0.0136
C 32.00618 28.46127 0.0544
C 29.46659 7.1324 0.01518
C 29.5057 8.51394 -0.00971
C 30.68516 9.22498 -0.03735
C 30.66863 32.00533 0.04266
C 30.70403 30.52241 0.01324
C 29.51682 29.85096 0.0014
C 29.49686 28.43583 0.00924
C 30.74114 27.77239 0.02326
C 30.72969 26.29381 0.00261
C 29.54055 25.50235 0.03265
C 29.57892 24.10134 -0.02049
C 30.83608 23.45736 -0.01854
C 30.80768 22.01702 -0.01415
C 29.6 21.23482 -0.03039
C 29.51035 19.87925 0.01836
C 30.80288 19.1982 0.03531
C 30.73328 17.76746 -0.00669
C 29.54357 17.06047 0.0101
C 29.47518 15.64822 0.01705
C 30.60175 14.83955 -0.0405
C 30.65886 13.4662 -0.01303
C 29.37138 12.75211 -0.01461
C 29.40334 11.3763 -0.02155
C 30.65314 10.72581 -0.00944
C 33.17626 17.69746 0.00594
C 29.45897 32.66461 0.01177
C 31.91788 16.9767 -0.02474
C 33.05959 14.87036 0.00455
C 0.04731 21.26973 -0.02213
C 0.02612 19.81436 0.01951
C 1.2498 19.1669 -0.01678
C 1.20077 17.76536 0.01223
C 34.40161 17.10898 0.00648
C 34.35219 15.51703 0.02114
C 1.156 14.86029 -0.02957
C 1.14297 13.49334 0.00343
C 34.31093 12.81062 -0.02656
C 1.29183 22.04965 0.02712
C 34.36832 11.37304 -0.02442
C 1.16926 9.2713 -0.00583
C 34.36757 8.51602 -0.02302
C 34.35976 7.12273 -0.02849
C 1.20219 6.46089 0.02931
C 1.20709 5.00699 0.00628
C 34.42869 4.30334 -0.0345
C 34.38674 2.8237 -0.00931
C 1.2124 2.12816 -0.00939
C 1.13615 0.73885 -0.00468
C 1.14898 10.62762 -0.00027
C 1.36023 23.4102 0.00723
C 0.03754 24.10209 0.03076
C 0.0068 25.48671 -0.05239
C 33.06925 13.47888 -0.00644
C 31.91318 12.78464 -0.01839
C 31.91663 11.41359 0.00137
C 33.1474 10.66664 0.00199
C 33.15986 9.26594 0.04381
C 31.96076 8.52457 0.02806
C 31.89947 7.11041 0.01504
C 33.1296 6.46031 -0.00069
C 33.17408 4.99 0.04926
C 31.90239 4.33676 -0.03838
C 31.94153 2.86196 0.00349
C 33.18602 2.15454 -0.00323
C 33.19954 0.77669 -0.00841
C 31.92919 0.04023 0.0001
C 0.04452 32.66636 -0.02927
C 1.24715 31.91788 -0.01404
C 1.17373 30.54952 0.01027
C 34.365 29.93848 0.01831
C 34.40327 28.5021 -0.01037
C 1.16179 27.81136 -0.00439
C 1.14289 26.36229 -0.00598
C 31.86089 15.58044 0.00369
C 27.02866 0.01731 -0.00416
C 28.16661 0.741 0.01699
C 28.19944 2.11907 0.01799
C 22.10578 8.44566 -0.01185
C 22.04982 7.01336 0.01126
C 23.28353 6.33759 0.01852
C 23.2761 4.93188 -0.00381
C 22.04486 4.23979 0.03046
C 22.10207 2.80768 0.0296
C 23.30265 2.13994 0.03374
C 23.34406 0.66344 -0.02845
C 22.04128 34.02174 -0.03213
C 23.32278 9.16875 -0.01662
C 24.58064 32.61895 0.02239
C 25.92816 30.50039 0.02734
C 24.60736 29.73651 -0.0055
C 24.6214 28.34506 0.01515
C 25.84963 27.7301 -0.00225
C 25.8614 26.27036 0.00071
C 24.66962 25.53854 -0.01107
C 24.72017 24.10098 -0.01586
C 25.93869 23.41469 -0.01971
C 25.87166 21.98474 -0.02118
C 25.77045 31.93548 0.01153
C 23.248 10.62517 -0.00478
C 21.98327 11.33382 0.01511
C 22.1003 12.75262 0.00199
C 20.88463 0.70561 -0.00831
C 19.68428 34.00916 -0.02957
C 22.1568 32.54335 -0.04422
C 23.32733 31.84222 0.00654
C 23.44069 30.5069 -0.00703
C 22.17896 29.6943 -0.04076
C 22.1665 28.26081 -0.00652
C 23.43072 27.61428 0.0058
C 23.49193 26.27718 -0.00865
C 22.20955 25.52567 0.00675
C 22.17327 24.12759 -0.00311
C 23.46702 23.41779 0.00742
C 23.42373 22.07277 -0.01594
C 22.22078 21.34777 0.0106
C 22.05048 19.87385 -0.01154
C 23.28833 19.15418 -0.01721
C 23.35263 17.65041 -0.02422
C 22.05066 17.03143 0.01277
C 22.01111 15.61435 0.00096
C 23.33041 14.86197 -0.01527
C 23.30827 13.45727 0.01087
C 24.60806 21.30611 0.00733
C 24.58437 19.95895 -0.00178
C 25.79242 19.18303 0.00768
C 25.8595 17.75982 -0.0276
C 27.16005 24.0552 -0.01654
C 28.43631 23.39214 -0.00037
C 28.28676 21.89982 -0.0032
C 27.05711 21.26707 0.00622
C 27.04231 19.87939 -0.02815
C 28.28971 19.13227 -0.00942
C 28.31406 17.70114 0.00487
C 27.0112 17.04192 0.00826
C 26.90935 15.64408 -0.00294
C 28.14374 14.95843 0.00152
C 28.13512 13.51353 0.01257
C 27.00711 12.77611 0.02316
C 26.97808 11.32556 0.04185
C 28.19836 10.61375 0.00194
C 28.24707 9.24494 -0.00621
C 27.05475 8.4292 0.02611
C 27.01165 7.0237 0.02198
C 28.22824 6.34645 0.01094
C 28.22526 4.88989 0.00235
C 27.0067 4.26182 0.01495
C 26.92982 2.81788 0.01259
C 27.15248 25.56387 -0.00218
C 19.62465 2.85634 -0.017
C 28.32673 26.23056 -0.00802
C 27.07363 28.3677 0.00996
C 24.61713 17.05287 0.03005
C 24.54904 15.67422 -0.04078
C 25.69374 14.88106 0.02117
C 25.75288 13.46371 0.02737
C 24.55285 12.70466 -0.00498
C 24.47714 11.25504 0.00135
C 25.76243 10.62355 0.03102
C 25.83491 9.19011 0.02555
C 24.55942 8.48178 0.01423
C 24.48365 7.0173 -0.00285
C 25.70229 6.36824 -0.009
C 25.79078 4.96161 -0.01199
C 24.52006 4.24745 -0.00229
C 24.51587 2.82667 -0.00938
C 25.75082 2.12426 -0.0264
C 25.76578 0.69651 -0.01154
C 24.54365 0.01687 0.00684
C 27.06404 32.67963 -0.01052
C 28.27054 31.96194 -0.01679
C 28.32322 30.53892 0.00367
C 27.11286 29.76879 0.04306
C 28.3204 27.68395 0.00195
C 2.51042 32.64017 -0.01977
