436
Graphene
C 0.05382 33.98906 0.01295
C 13.48224 22.05933 0.02339
C 12.30701 21.32183 0.01641
C 12.31077 19.92429 -0.00719
C 13.47019 19.19622 0.01364
C 13.50847 17.71794 -0.01062
C 12.31833 17.00044 -0.00033
C 12.34159 15.63588 0.03589
C 13.52709 14.83334 -0.02759
C 13.55117 13.48513 0.0402
C 12.2878 12.72864 0.00572
C 12.30789 11.25906 0.03592
C 13.57389 10.61109 0.00406
C 13.59412 9.21506 0.00943
C 12.35006 8.57013 0.02841
C 12.36262 7.0012 -0.01111
C 13.48711 6.30531 -0.01275
C 13.41471 4.90153 0.00985
C 12.26372 4.14606 -0.02245
C 12.1948 2.76306 -0.00428
C 13.54501 2.12837 0.03101
C 13.55138 0.71188 -0.01536
C 12.336 0.02451 -0.02689
C 14.79023 32.73955 -0.01046
C 13.53023 23.41911 -0.00334
C 15.91754 31.92343 -0.00891
C 12.24764 24.25041 -0.01634
C 13.48713 26.29309 0.00093
C 9.88655 17.09907 -0.00892
C 9.77964 15.66088 -0.01362
C 11.0337 14.97555 -0.0008
C 11.05857 13.49986 0.0288
C 9.80845 12.85892 0.00393
C 9.89994 11.49619 0.00895
C 11.10544 10.64442 0.00685
C 11.11105 9.33084 0.02888
C 9.91081 8.56803 -0.00482
C 9.85365 7.09486 -0.01384
C 11.04899 6.38975 0.03693
C 11.06681 4.96112 0.01745
C 9.76898 4.2643 0.00488
C 9.80638 2.84623 -0.01004
C 11.09593 2.05058 -0.02896
C 11.10086 0.68254 -0.00131
C 9.81134 0.02994 -0.01118
C 12.27351 32.69359 -0.014
C 13.50376 32.03714 0.02147
C 13.46654 30.56904 0.00373
C 12.22228 29.83618 -0.00191
C 12.29625 28.48095 0.00438
C 13.50126 27.74445 0.01291
C 12.24073 25.60927 0.00057
C 15.9503 30.56482 0.02819
C 14.68015 29.90481 0.00165
C 14.70493 28.47607 -0.02971
C 18.41446 31.98357 -0.0108
C 18.42133 30.46645 -0.00368
C 17.23277 29.83513 -0.02696
C 17.21272 28.38567 -0.00114
C 18.4264 27.6136 0.00228
C 18.41816 26.23894 0.00798
C 17.21276 25.53369 0.00422
C 17.19799 24.11998 0.0351
C 18.42083 23.42231 -0.03113
C 18.46354 21.99436 0.02098
C 17.19204 21.27229 0.01848
C 17.12507 19.88533 -0.00619
C 18.3417 19.18539 -0.02162
C 18.38985 17.75527 0.00889
C 17.17939 16.993 -0.00481
C 17.28701 15.61987 0.00979
C 18.50133 14.96905 0.01443
C 18.45263 13.52629 0.03505
C 17.22202 12.81569 -0.02815
C 17.18616 11.39898 -0.04147
C 18.35832 10.68715 -0.05302
C 18.35819 9.27601 0.00213
C 17.18688 8.56236 -0.00066
C 17.18162 32.66766 -0.01957
C 14.76095 0.07165 0.02058
C 15.91576 0.75304 0.01965
C 15.96163 2.19292 -0.03682
C 15.95376 27.74539 0.02894
C 15.96912 26.28663 -0.01789
C 14.7019 25.57437 0.00444
C 14.73287 24.13797 -0.00925
C 15.90402 23.42292 0.01877
C 15.92051 22.03943 0.01363
C 14.78289 21.28975 -0.02162
C 14.73199 19.9004 0.00415
C 15.94244 19.10798 -0.0014
C 15.93049 17.70385 0.02162
C 14.74177 16.99164 0.0076
C 11.13715 17.81093 -0.04848
C 14.67756 15.57315 0.01241
C 15.98444 13.45658 0.01945
C 14.7379 12.73683 0.01416
C 14.77459 11.30227 0.03542
C 16.02086 10.66214 0.02299
C 16.0023 9.21119 0.00244
C 14.81142 8.5338 -0.01717
C 14.74329 7.02867 0.05265
C 16.0117 6.39652 -0.01952
C 15.98242 5.01142 -0.02813
C 14.7089 4.28522 0.00374
C 14.69109 2.80939 0.00052
C 15.98394 14.97262 -0.01454
C 17.23183 7.0872 -0.00289
C 11.07364 19.20449 0.01572
C 9.81562 21.33169 0.03007
C 3.73003 2.12952 -0.02375
C 3.65285 0.72756 0.00558
C 2.52492 34.04212 -0.0059
C 4.91037 32.6919 -0.01386
C 6.18088 31.97863 -0.02805
C 6.13745 30.59382 0.00081
C 4.8998 29.76949 0.00245
C 5.01064 28.34569 0.02728
C 6.14919 27.61414 -0.00039
C 6.17274 26.17696 0.0064
C 4.95864 25.60405 0.00211
C 4.91122 24.1274 -0.00449
C 6.13898 23.44403 -0.01979
C 6.18774 22.04377 0.02784
C 5.01652 21.23585 -0.01977
C 4.86166 19.82958 -0.00561
C 6.14714 19.13002 0.00208
C 6.06518 17.71636 0.01707
C 4.88271 17.0779 0.02769
C 4.76286 15.55738 -0.03291
C 6.03671 14.98538 -0.04999
C 6.12941 13.59312 0.04505
C 4.86979 12.83383 0.03284
C 2.42796 2.86129 0.00828
C 4.96466 11.4447 -0.04307
C 2.44699 4.20006 0.00088
C 3.61231 6.4197 -0.00177
C 3.70383 30.44853 0.01984
C 2.51471 29.78312 0.00535
C 2.5153 28.34448 -0.00198
C 3.7121 27.68865 -0.00012
C 3.68519 26.3129 -0.04306
C 2.4128 25.59955 -0.03672
C 2.4339 24.18006 0.01913
C 3.69806 23.46296 0.00267
C 3.75654 22.06643 0.00787
C 2.4896 21.31627 0.02426
C 2.44438 19.86454 0.01218
C 3.66216 19.17632 -0.01471
C 3.56083 17.67366 -0.02827
C 2.32205 16.97103 0.01078
C 2.3242 15.62184 -0.00112
C 3.52312 14.94327 0.03345
C 3.66255 13.51208 0.00748
C 2.44701 12.7533 0.00662
C 2.3939 11.41389 -0.0154
C 3.74336 10.73056 -0.01299
C 3.67151 9.28615 -0.00407
C 2.40185 8.5396 0.01138
C 2.42249 7.16781 0.03278
C 3.66767 5.03437 0.04421
C 6.1609 10.71642 0.03189
C 6.14087 9.3334 0.00031
C 4.90112 8.5831 -0.003
C 7.39701 11.42984 -0.01343
C 8.67795 10.72648 0.00988
C 8.70049 9.30044 0.0276
C 7.36391 8.63194 0.01305
C 7.34181 7.17674 -0.00077
C 8.57693 6.48963 0.03368
C 8.48478 5.06679 -0.02929
C 7.35271 4.32601 -0.00966
C 7.36811 2.84339 -0.03337
C 8.58508 2.12925 0.01227
C 8.62471 0.74283 0.00873
C 7.39763 0.00148 -0.00049
C 9.87673 32.70783 0.00848
C 11.04865 31.95447 -0.01303
C 11.00092 30.54293 -0.01378
C 9.77865 29.81326 0.02635
C 9.78375 28.46795 0.0127
C 10.98873 27.76493 0.01396
C 11.05911 26.3215 0.01849
C 9.85344 25.61574 -0.01142
C 9.84735 24.19655 -0.00562
C 11.07089 23.55504 -0.00494
C 11.06695 22.08256 0.00054
C 7.39048 12.87119 0.01087
C 8.52876 13.592 -0.05697
C 8.52087 14.97096 -0.00725
C 7.3177 15.70799 0.02322
C 4.89512 7.18751 0.01402
C 6.1042 6.52413 0.02379
C 6.07151 5.00424 0.00907
C 4.91318 4.31342 0.00643
C 4.90559 2.8685 -0.01509
C 6.13297 2.20496 0.03267
C 6.12833 0.75029 0.02374
C 4.86631 0.02392 0.00402
C 7.35458 32.7143 0.0073
C 8.59593 31.98895 0.0174
C 8.54708 30.60827 0.03828
C 9.8448 19.91165 -0.00095
C 7.38951 29.78382 0.01226
C 8.69073 27.61705 0.01996
C 8.54695 26.27719 -0.03996
C 7.4154 25.53889 0.01465
C 7.38652 24.13613 -0.00074
C 8.72281 23.44176 -0.00518
C 8.63402 22.03936 0.0086
C 7.40259 21.28881 -0.00643
C 7.3564 19.87397 0.017
C 8.61666 19.21506 -0.03113
C 8.64616 17.77819 -0.02566
C 7.3441 17.05871 -0.00094
C 7.38579 28.4042 -0.00279
C 18.42431 6.415 0.00028
C 18.44729 4.96483 -0.02213
C 17.20751 4.286 0.03698
C 30.64791 22.0427 -0.0405
C 29.48618 21.22528 -0.01303
C 29.44687 19.85309 -0.01461
C 30.70735 19.11278 -0.02155
C 30.66057 17.63947 -0.00944
C 29.44693 16.97837 -0.03735
C 29.53111 15.45205 -0.00971
C 30.74914 14.93166 0.01518
C 29.46191 6.9509 0.01908
C 30.71795 6.38494 0.07705
C 30.75365 4.903 0.0103
C 29.49801 4.20773 0.02108
C 29.56158 2.83069 0.00716
C 30.76424 2.01227 0.00307
C 30.74125 0.61475 0.00346
C 29.49205 34.06966 0.01713
C 31.9074 32.61715 -0.01694
C 33.21287 31.96806 0.01428
C 33.26322 30.5752 -0.02142
C 31.97305 29.86764 0.0544
C 31.98264 28.5232 0.00026
C 33.1846 27.77476 0.00682
C 33.20862 26.37247 -0.01779
C 30.74972 23.42817 0.01705
C 31.98737 25.66645 0.03794
C 29.55139 24.16196 0.0101
C 30.76718 26.37559 0.03531
C 28.26942 22.01237 -0.00621
C 27.00062 21.31572 0.02611
C 27.03124 19.87736 0.02198
C 28.23165 19.11916 0.01094
C 28.21815 17.7715 0.00235
C 26.98659 17.01692 0.01495
C 27.05288 15.55356 0.01259
C 28.22063 14.91995 0.01799
C 26.94049 8.37233 0.01699
C 27.0421 6.97162 -0.00416
C 28.2529 6.33908 0.01177
C 28.33666 4.89143 0.04266
C 27.08246 4.29522 0.01324
C 27.05528 2.80013 0.0014
C 28.26635 2.09165 0.00924
C 28.2715 0.71543 0.02326
C 27.03117 34.06724 0.00261
C 29.41679 32.65472 0.03265
C 30.67268 31.95644 -0.02049
C 30.73029 30.57198 -0.01854
C 29.53477 29.77949 -0.01415
C 29.47577 28.37497 -0.03039
C 30.77855 27.7236 0.01836
C 29.58476 25.60287 -0.00669
C 31.98056 24.16116 0.01927
C 33.16812 23.45189 0.01574
C 33.10856 22.01063 -0.02383
C 34.39351 24.12904 0.03076
C 1.21357 23.45339 0.00723
C 1.25159 22.01834 0.02712
C 34.39107 21.33735 -0.02213
C 34.35254 19.89685 0.01951
C 1.20019 19.22431 -0.01678
C 1.1483 17.74958 0.01223
C 34.38268 17.05577 0.00648
C 34.29198 15.57107 0.02114
C 1.14557 14.83068 -0.02957
C 1.15865 13.41001 0.00343
C 34.34513 12.68945 -0.02656
C 34.42777 11.32954 -0.02442
C 1.2112 10.5969 -0.00027
C 1.19345 9.16641 -0.00583
C 0.0198 8.4905 -0.02302
C 34.43218 7.00882 -0.02849
C 1.18081 6.39989 0.02931
C 1.25927 4.97416 0.00628
C 0.03284 4.18957 -0.0345
C 0.03707 2.78688 -0.00931
C 1.20322 2.07044 -0.00939
C 1.31199 0.59139 -0.00468
C 34.39515 25.62113 -0.05239
C 1.1669 26.29316 -0.00598
C 1.19471 27.68829 -0.00439
C 0.065 28.44183 -0.01037
C 31.881 21.22486 -0.01429
C 31.94999 19.78682 -0.0136
C 33.13451 19.13715 0.00594
C 33.17998 17.6809 -0.02474
C 31.86148 17.03732 0.00369
C 31.86593 15.63749 0.00455
C 33.1535 14.79946 -0.00644
C 33.15489 13.40046 -0.01839
C 31.90178 12.61354 0.00137
C 33.1231 10.63893 0.00199
C 33.13844 9.2351 0.04381
C 28.32167 23.45031 0.00194
C 32.01066 8.41817 0.02806
C 33.20923 6.28163 -0.00069
C 33.20001 4.93557 0.04926
C 32.01975 4.20387 -0.03838
C 32.01407 2.72485 0.00349
C 33.19338 2.09398 -0.00323
C 33.18729 0.65002 -0.00841
C 32.03248 34.02986 0.0001
C 0.04318 32.61626 -0.02927
C 1.25847 31.91768 -0.01404
C 1.27007 30.52071 0.01027
C 0.00363 29.84225 0.01831
C 31.98874 7.03354 0.01504
C 27.128 24.15347 0.04185
C 27.08354 25.59699 0.02316
C 28.29501 26.32039 0.01257
C 19.63943 7.10025 -0.00652
C 20.91576 6.35466 0.0058
C 20.9358 4.9991 -0.00865
C 19.67962 4.25084 0.00675
C 19.57931 2.82443 -0.00311
C 20.87069 2.13111 0.00742
C 20.87696 0.78003 -0.01594
C 19.61878 0.01911 0.0106
C 22.09021 32.66738 -0.01154
C 23.31181 32.02791 -0.01721
C 23.28097 30.57503 -0.02422
C 22.12706 29.82411 0.01277
C 22.09536 28.46384 0.00096
C 23.3215 27.72186 -0.01527
C 23.35465 26.32489 0.01087
C 22.2063 25.57533 0.00199
C 22.29445 24.19549 0.01511
C 23.46869 23.44806 -0.00478
C 23.50452 22.08572 -0.01662
C 22.10632 21.35183 -0.01185
C 22.13225 19.9078 0.01126
C 23.27967 19.12757 0.01852
C 23.30165 17.68538 -0.00381
C 19.65718 8.56226 -0.04076
C 20.8367 9.28461 -0.00703
C 20.88826 10.69995 0.00654
C 19.65934 11.36961 -0.04422
C 17.12365 2.91281 -0.00109
C 18.4458 2.16459 -0.00491
C 18.36886 0.69233 0.03338
C 17.20583 34.04803 -0.0258
C 19.6498 32.71722 -0.0331
C 20.85527 31.97242 -0.00316
C 20.86421 30.56364 0.02188
C 19.6954 29.79682 -0.01979
C 19.70235 28.30134 0.02691
C 20.92553 27.67597 -0.01581
C 20.94227 26.16478 0.01452
C 22.06063 17.02625 0.03046
C 19.69269 25.52214 0.04892
C 20.8649 23.36537 -0.03557
C 20.9239 22.003 0.03754
C 19.74274 21.29038 0.01739
C 19.59321 19.86361 0.00755
C 20.87587 19.17083 -0.0054
C 20.87967 17.78419 0.00667
C 19.61208 17.13945 0.00143
C 19.65148 15.65766 -0.017
C 20.87094 14.90488 0.00364
C 20.85618 13.46814 -0.00831
C 19.65292 12.80558 -0.02957
C 19.67606 24.09601 -0.00111
C 3.70479 31.87531 0.01073
C 22.13601 15.6144 0.0296
C 23.3828 13.52153 -0.02845
C 24.52315 16.96336 -0.00229
C 24.63858 15.53013 -0.00938
C 25.82817 14.80879 -0.0264
C 25.84953 13.47705 -0.01154
C 24.63316 12.80069 0.00684
C 24.53577 11.43046 -0.01052
C 25.70214 10.63474 -0.01679
C 25.93622 9.35584 0.00367
C 24.63558 8.54315 0.04306
C 24.5935 7.08284 0.00996
C 25.76229 6.34783 0.00195
C 25.84045 4.9755 -0.00802
C 24.57247 4.26265 -0.00218
C 24.61078 2.82681 -0.01654
C 25.80403 2.1516 -0.00037
C 25.83399 0.69876 -0.0032
C 24.61555 0.03748 0.00622
C 27.01692 32.64323 -0.02815
C 28.24491 31.85328 -0.00942
C 28.27276 30.4021 0.00487
C 27.02514 29.78727 0.00826
C 26.99792 28.36337 -0.00294
C 28.19274 27.70747 0.00152
C 25.79431 17.70309 -0.01199
C 25.79056 19.17871 -0.009
C 24.60218 19.85554 -0.00285
C 24.65298 21.25371 0.01423
C 22.09404 12.77031 -0.03213
C 22.07903 11.31166 0.02239
C 23.35001 10.75612 0.01153
C 23.32232 9.26268 0.02734
C 22.05587 8.58232 -0.0055
C 22.13304 7.19212 0.01515
C 23.38557 6.41982 -0.00225
C 23.41374 5.04109 0.00071
C 22.21559 4.26227 -0.01107
C 22.13878 2.8245 -0.01586
C 23.38115 2.12607 -0.01971
C 23.32396 14.92302 0.03374
C 23.35857 0.69967 -0.02118
C 24.56486 32.69702 -0.00178
C 25.73306 31.90682 0.00768
C 25.81771 30.52938 -0.0276
C 24.56287 29.83327 0.03005
C 24.54107 28.46594 -0.04078
C 25.78112 27.70651 0.02117
C 25.87433 26.26619 0.02737
C 24.61116 25.59451 -0.00498
C 24.60335 24.15398 0.00135
C 25.8758 23.50742 0.03102
C 25.77088 22.00553 0.02555
C 22.11343 0.08674 0.00733
C 2.4812 32.6292 -0.00018
