433
Graphene
C 0.05916 34.03025 0.01295
C 13.51462 22.05503 0.01364
C 12.21404 21.34693 -0.01062
C 12.29664 19.88049 -0.00033
C 13.56133 19.08228 0.03589
C 13.51849 17.69855 -0.02759
C 12.24771 17.00091 0.0402
C 12.26632 15.56889 0.00572
C 13.53731 14.92373 0.03592
C 13.50906 13.44573 0.00406
C 12.28373 12.80799 0.00943
C 12.34666 11.39843 0.02841
C 13.57997 10.69616 -0.01111
C 13.52638 9.16785 -0.01275
C 12.30909 8.47169 0.00985
C 12.21542 7.09235 -0.02245
C 13.57257 6.40082 -0.00428
C 13.53296 4.9669 0.03101
C 12.21646 4.30716 -0.01536
C 12.28446 2.88284 -0.02689
C 13.4878 2.10816 -0.01046
C 13.48571 0.73801 -0.00891
C 12.22853 0.07374 0.02819
C 14.69022 32.60221 0.00165
C 13.48536 23.48671 -0.00719
C 15.94982 31.94926 -0.02971
C 12.29091 24.1473 0.01641
C 13.39257 26.38821 -0.00334
C 9.8251 17.10612 0.0288
C 9.82175 15.68344 0.00393
C 11.06109 14.88333 0.00895
C 11.0457 13.50674 0.00685
C 9.80785 12.86113 0.02888
C 9.8506 11.37865 -0.00482
C 11.0896 10.75884 -0.01384
C 11.10632 9.17638 0.03693
C 9.85591 8.60895 0.01745
C 9.80009 7.16037 0.00488
C 11.04082 6.42043 -0.01004
C 10.95873 4.96661 -0.02896
C 9.79213 4.27827 -0.00131
C 9.7573 2.87967 -0.01118
C 10.95678 2.19161 -0.014
C 10.9287 0.78367 0.02147
C 9.76408 34.07485 0.00373
C 12.31094 32.65107 -0.00191
C 13.50345 31.93524 0.00438
C 13.50015 30.59011 0.01291
C 12.23996 29.95753 0.00093
C 12.25717 28.52435 0.00057
C 13.48434 27.80699 -0.01634
C 12.20469 25.6295 0.02339
C 11.04676 17.71714 -0.0008
C 15.97513 30.50342 0.02894
C 14.80511 28.43139 0.00444
C 17.17042 32.71534 -0.02696
C 18.33926 31.99132 -0.00114
C 18.35497 30.47703 0.00228
C 17.20286 29.7393 0.00798
C 17.25429 28.32868 0.00422
C 18.55125 27.54263 0.0351
C 18.52488 26.02209 -0.03113
C 17.23132 25.54506 0.02098
C 17.07309 24.12177 0.01848
C 18.33518 23.47621 -0.00619
C 18.33128 22.06962 -0.02162
C 17.15268 21.24255 0.00889
C 17.2306 19.8175 -0.00481
C 18.45504 19.14851 0.00979
C 18.43217 17.7098 0.01443
C 17.19284 17.03893 0.03505
C 17.17418 15.58704 -0.02815
C 18.48087 14.99784 -0.04147
C 18.4617 13.53502 -0.05302
C 17.25457 12.76464 0.00213
C 17.24733 11.33499 -0.00066
C 18.45135 10.67596 -0.00289
C 18.42781 9.25416 0.00028
C 14.7397 34.02509 -0.00368
C 14.7607 29.79343 -0.01789
C 16.04984 0.72466 -0.0108
C 14.71699 2.84358 0.02058
C 16.00212 27.69587 -0.00925
C 15.93195 26.30127 0.01877
C 14.67893 25.59705 0.01363
C 14.69458 24.18696 -0.02162
C 15.96928 23.40202 0.00415
C 15.95224 21.99354 -0.0014
C 14.69237 21.3349 0.02162
C 14.70246 19.89087 0.0076
C 15.97982 19.182 0.01241
C 15.96555 17.76432 -0.01454
C 14.74688 17.01217 0.01945
C 14.77839 15.63704 0.01416
C 15.99991 14.85444 0.03542
C 15.96889 13.46078 0.02299
C 14.78603 12.75293 0.00244
C 14.81989 11.3297 -0.01717
C 15.99835 10.57754 0.05265
C 15.98335 9.20717 -0.01952
C 14.74648 8.46352 -0.02813
C 14.76354 7.07588 0.00374
C 16.00017 6.30494 0.00052
C 15.95374 4.86007 -0.03682
C 14.77243 4.17889 0.01965
C 15.96948 2.15534 -0.01957
C 11.09561 19.13579 -0.01362
C 9.85303 19.96736 -0.00892
C 9.91172 21.3573 -0.04848
C 3.67144 2.10067 -0.01386
C 3.66503 0.71176 -0.02805
C 2.51071 34.05316 0.00081
C 4.94094 32.64639 0.00245
C 6.1147 32.01646 0.02728
C 6.07579 30.56115 -0.00039
C 4.9346 29.81113 0.0064
C 4.9423 28.42703 0.00211
C 6.11943 27.74405 -0.00449
C 6.14407 26.349 -0.01979
C 4.9162 25.55894 0.02784
C 5.0217 24.15101 -0.01977
C 6.19714 23.43426 -0.00561
C 6.21426 21.93604 0.00208
C 4.93338 21.25146 0.01707
C 4.86766 19.89021 0.02769
C 6.11395 19.17922 -0.03291
C 6.05934 17.76522 -0.04999
C 4.84957 17.11423 0.04505
C 4.81744 15.63194 0.03284
C 6.05038 14.86521 -0.04307
C 6.08311 13.4449 0.03189
C 4.78603 12.85585 0.00031
C 2.4974 2.85026 -0.0059
C 4.81411 11.4022 -0.003
C 2.41207 4.27822 0.00558
C 3.73287 6.42024 0.00828
C 3.70051 30.52473 -0.00012
C 2.49475 29.78576 -0.04306
C 2.49453 28.28502 -0.03672
C 3.71758 27.64368 0.01913
C 3.68284 26.27743 0.00267
C 2.43756 25.49409 0.00787
C 2.52979 24.14352 0.02426
C 3.7882 23.46102 0.01218
C 3.66471 22.01398 -0.01471
C 2.4416 21.29286 -0.02827
C 2.42779 19.91484 0.01078
C 3.60394 19.29793 -0.00112
C 3.53039 17.72474 0.03345
C 2.33654 17.01799 0.00748
C 2.33965 15.62814 0.00662
C 3.57813 14.85415 -0.0154
C 3.60186 13.50376 -0.01299
C 2.30994 12.74146 -0.00407
C 2.35995 11.29594 0.01138
C 3.66626 10.64238 0.03278
C 3.64683 9.28901 -0.00177
C 2.4231 8.50426 0.04421
C 2.51215 7.10791 0.00088
C 3.66576 4.99585 -0.02375
C 6.06724 10.78683 0.01402
C 6.13554 9.29169 0.02379
C 4.843 8.5841 0.00907
C 7.3396 11.45236 0.01305
C 8.64195 10.68991 -0.00077
C 8.62252 9.3386 0.03368
C 7.39744 8.61959 -0.02929
C 7.4947 7.15329 -0.00966
C 8.61962 6.42994 -0.03337
C 8.5831 5.0076 0.01227
C 7.32082 4.31795 0.00873
C 7.29969 2.95635 -0.00049
C 8.52592 2.19219 0.00848
C 8.49473 0.77104 -0.01303
C 7.30025 0.04524 -0.01378
C 9.7492 32.6887 0.02635
C 11.02155 31.97986 0.0127
C 11.06894 30.57354 0.01396
C 9.78732 29.88659 0.01849
C 9.74254 28.5153 -0.01142
C 11.08 27.86088 -0.00562
C 11.048 26.42102 -0.00494
C 9.8163 25.64842 0.00054
C 9.80545 24.22995 0.03007
C 11.06959 23.46841 -0.00095
C 11.07283 22.01149 0.01572
C 7.36042 12.79057 0.0276
C 8.56577 13.53233 0.00988
C 8.55182 14.99512 -0.01343
C 7.24702 15.67705 0.01087
C 4.90077 7.19885 0.00643
C 6.16015 6.51388 -0.01509
C 6.14723 5.11565 0.03267
C 4.87015 4.3553 0.02374
C 4.8925 2.86179 0.00402
C 6.15388 2.19345 0.0073
C 6.11546 0.74465 0.0174
C 4.92026 34.07256 0.03828
C 7.30596 32.78828 0.01226
C 8.6079 31.96662 -0.00279
C 8.58334 30.60625 0.01996
C 17.24057 8.53199 -0.02213
C 7.35423 29.88185 -0.03996
C 8.61739 27.7283 -0.00074
C 8.6098 26.3502 -0.00518
C 7.38077 25.66099 0.0086
C 7.35454 24.21769 -0.00643
C 8.58206 23.45765 0.017
C 8.62186 22.09154 -0.03113
C 7.42013 21.31618 -0.02566
C 7.36738 19.87225 -0.00094
C 8.62262 19.24051 0.02322
C 8.57498 17.80749 -0.00725
C 7.30262 17.08805 -0.05697
C 7.39205 28.43948 0.01465
C 3.72036 31.92193 -0.00198
C 17.18671 7.04929 0.03698
C 18.40237 4.99635 -0.00491
C 30.61368 13.45554 -0.01303
C 29.36074 12.699 -0.01461
C 29.40461 11.29048 -0.02155
C 30.7746 10.61984 -0.00944
C 30.67936 9.1589 -0.03735
C 29.43861 8.48193 -0.00971
C 29.4731 6.95879 0.01518
C 30.688 6.25613 0.01908
C 30.713 4.85158 0.07705
C 29.47671 4.18687 0.0103
C 29.5267 2.79325 0.02108
C 30.73693 2.11738 0.00716
C 30.75961 0.63061 0.00307
C 29.46033 33.99263 0.00346
C 32.00742 32.63566 0.01713
C 33.18993 31.88155 -0.01694
C 33.18015 30.50121 0.01428
C 31.99707 29.77527 -0.02142
C 31.93855 28.39809 0.0544
C 33.15374 27.65273 0.00026
C 33.21849 26.27087 0.00682
C 31.9369 25.55121 -0.01779
C 31.9617 24.16478 0.03794
C 30.70989 14.88267 -0.0405
C 33.1565 23.47178 0.01927
C 29.49605 15.56751 0.01705
C 30.6795 17.82508 -0.00669
C 26.94346 8.49678 0.02611
C 26.98179 7.07788 0.02198
C 28.19051 6.32967 0.01094
C 28.17571 4.89071 0.00235
C 27.03171 4.20731 0.01495
C 27.04919 2.71104 0.01259
C 28.25532 2.10782 0.01799
C 28.24706 0.68689 0.01699
C 27.05661 34.02252 -0.00416
C 29.58963 32.61631 0.01177
C 30.75002 31.95316 0.04266
C 30.75578 30.49797 0.01324
C 29.42371 29.87315 0.0014
C 29.55026 28.46072 0.00924
C 30.74153 27.74217 0.02326
C 30.73523 26.27741 0.00261
C 29.48159 25.62774 0.03265
C 29.44705 24.23943 -0.02049
C 30.63048 23.48674 -0.01854
C 30.75942 22.10561 -0.01415
C 29.45942 21.46378 -0.03039
C 29.45998 19.92535 0.01836
C 30.67246 19.17468 0.03531
C 29.47931 16.99285 0.0101
C 28.2143 9.15946 -0.00621
C 33.22471 22.08851 0.01574
C 31.94819 19.87496 -0.01429
C 34.39518 24.12725 0.03076
C 1.19914 23.40386 0.00723
C 1.17913 21.97918 0.02712
C 34.40421 21.33799 -0.02213
C 34.40433 19.9221 0.01951
C 1.13977 19.18059 -0.01678
C 1.13839 17.76882 0.01223
C 34.34874 17.05826 0.00648
C 34.27993 15.55883 0.02114
C 1.07346 14.89786 -0.02957
C 1.03406 13.43878 0.00343
C 34.30263 12.77958 -0.02656
C 34.35991 11.28046 -0.02442
C 1.08256 10.54326 -0.00027
C 1.1218 9.17669 -0.00583
C 34.38848 8.48394 -0.02302
C 34.33506 7.04784 -0.02849
C 1.17508 6.3821 0.02931
C 1.18755 4.93455 0.00628
C 0.00607 4.24384 -0.0345
C 0.01905 2.8299 -0.00931
C 1.21318 2.09282 -0.00939
C 1.26729 0.63004 -0.00468
C 0.03715 25.55784 -0.05239
C 31.98539 21.29959 -0.02383
C 1.27603 26.30468 -0.00598
C 0.0084 28.33093 -0.01037
C 33.23122 19.2097 -0.0136
C 33.17851 17.78603 0.00594
C 31.91393 17.09418 -0.02474
C 31.88901 15.66927 0.00369
C 33.01907 14.92407 0.00455
C 33.07431 13.4592 -0.00644
C 31.9143 12.69828 -0.01839
C 31.92306 11.27683 0.00137
C 33.12099 10.5127 0.00199
C 33.14935 9.12967 0.04381
C 31.87313 8.44951 0.02806
C 31.9383 7.00093 0.01504
C 33.1584 6.29091 -0.00069
C 33.21896 4.91963 0.04926
C 31.98399 4.18553 -0.03838
C 31.98417 2.6595 0.00349
C 33.20336 2.03816 -0.00323
C 33.2035 0.65615 -0.00841
C 32.00393 33.9812 0.0001
C 0.01726 32.56824 -0.02927
C 1.22105 31.89052 -0.01404
C 1.26001 30.4831 0.01027
C 0.04685 29.8014 0.01831
C 1.23401 27.7165 -0.00439
C 28.26416 10.588 0.00194
C 27.02401 11.35171 0.04185
C 27.07531 12.78744 0.02316
C 20.8087 4.94063 0.0058
C 19.57963 4.22604 -0.00865
C 19.62044 2.86113 0.00675
C 20.89785 2.21047 -0.00311
C 20.90991 0.66828 0.00742
C 19.62178 0.00831 -0.01594
C 22.14646 32.604 0.0106
C 23.32365 31.87743 -0.01154
C 23.27003 30.38539 -0.01721
C 22.00698 29.83154 -0.02422
C 23.47562 22.24577 0.01277
C 22.13433 21.56411 0.00096
C 22.15154 20.06374 -0.01527
C 23.3548 19.32906 0.01087
C 23.35409 17.74764 0.00199
C 22.13762 17.12511 0.01511
C 22.14129 15.7113 -0.00478
C 23.34457 14.95557 -0.01662
C 23.40607 13.54768 -0.01185
C 22.12716 12.89258 0.01126
C 22.04736 11.41254 0.01852
C 23.28328 10.6445 -0.00381
C 23.3302 9.26037 0.03046
C 20.85026 6.36752 -0.00652
C 22.06694 8.51742 0.0296
C 19.61514 7.09731 -0.04076
C 20.83886 9.22698 0.00654
C 17.20157 4.25549 0.03338
C 17.13343 2.87388 -0.0258
C 18.38951 2.18855 -0.0331
C 18.41473 0.7622 -0.00316
C 17.21786 0.09093 0.02188
C 19.534 32.6702 -0.01979
C 20.84847 31.94218 0.02691
C 20.80714 30.62168 -0.01581
C 19.59078 29.82101 0.01452
C 19.73379 28.36948 0.04892
C 19.41618 24.36182 -0.00111
C 20.81512 22.10381 -0.03557
C 19.66957 21.34769 0.03754
C 19.66909 19.81286 0.01739
C 20.92556 19.18442 0.00755
C 20.94271 17.84802 -0.0054
C 19.72628 17.0675 0.00667
C 19.68678 15.66473 0.00143
C 20.90906 14.9679 -0.017
C 20.9216 13.58204 0.00364
C 19.63603 12.78022 -0.00831
C 19.63773 11.3148 -0.02957
C 20.84234 10.63622 -0.04422
C 19.68811 8.56516 -0.00703
C 22.13839 7.10187 0.03374
C 23.29524 6.34769 -0.02845
C 23.30535 5.02497 -0.03213
C 24.60028 2.80384 -0.00938
C 25.86504 2.12679 -0.0264
C 25.78843 0.71382 -0.01154
C 24.55956 34.07618 0.00684
C 27.04344 32.63275 -0.01052
C 28.31143 31.98173 -0.01679
C 28.25258 30.56273 0.00367
C 27.00219 29.73257 0.04306
C 26.95535 28.27983 0.00996
C 28.27343 27.75948 0.00195
C 28.24813 26.32811 -0.00802
C 27.06974 25.66284 -0.00218
C 26.98409 24.2732 -0.01654
C 28.21959 23.57042 -0.00037
C 28.21036 22.16852 -0.0032
C 27.11721 21.3335 0.00622
C 27.0334 19.93006 -0.02815
C 28.25851 19.14589 -0.00942
C 28.24884 17.74067 0.00487
C 27.02394 17.08099 0.00826
C 27.03545 15.63553 -0.00294
C 28.23197 14.9052 0.00152
C 28.21332 13.51853 0.01257
C 24.6072 4.2193 -0.00229
C 25.76797 4.95327 -0.01199
C 25.7701 6.3437 -0.009
C 24.50871 7.12421 -0.00285
C 22.06382 4.27545 0.02239
C 22.08834 2.83237 0.01153
C 23.38416 2.03047 0.02734
C 23.2493 0.65653 -0.0055
C 22.08153 33.99319 0.01515
C 24.49859 32.60858 -0.00225
C 25.74001 31.92384 0.00071
C 25.78742 30.54568 -0.01107
C 24.58807 29.81329 -0.01586
C 25.76398 23.42761 -0.01971
C 25.85066 22.04478 -0.02118
C 18.43341 6.4343 -0.00109
C 24.61066 21.28731 0.00733
C 25.86202 19.21165 0.00768
C 25.84892 17.79781 -0.0276
C 24.6487 17.10506 0.03005
C 24.61985 15.66272 -0.04078
C 25.83522 14.94038 0.02117
C 25.8195 13.49008 0.02737
C 24.54771 12.78729 -0.00498
C 24.5383 11.29684 0.00135
C 25.73402 10.64766 0.03102
C 25.76957 9.30515 0.02555
C 24.54051 8.54895 0.01423
C 24.66188 19.95791 -0.00178
C 2.44691 32.62422 0.00535
