351
Graphene
C 34.42477 0.00277 0.01295
C 9.88315 15.64919 0.00228
C 11.16713 14.88684 0.00798
C 11.11367 13.47395 0.00422
C 9.87719 12.77733 0.0351
C 9.83615 11.3802 -0.03113
C 11.02768 10.63828 0.02098
C 11.01083 9.19097 0.01848
C 9.84748 8.4889 -0.00619
C 9.877 17.0787 -0.00114
C 9.8181 7.08485 -0.02162
C 11.03132 4.98046 -0.00481
C 9.78992 4.27991 0.00979
C 9.82712 2.91942 0.01443
C 11.06045 2.12187 0.03505
C 11.03105 0.6958 -0.02815
C 9.80052 0.04681 -0.04147
C 12.22486 32.69772 -0.05302
C 13.47575 31.90803 0.00213
C 11.06002 6.368 0.00889
C 13.61078 30.4611 -0.00066
C 11.12424 17.74862 -0.02696
C 9.8434 19.86463 -0.0108
C 8.6428 4.98158 0.0076
C 7.3638 4.33531 0.01241
C 7.39484 2.90543 -0.01454
C 8.57293 2.18587 0.01945
C 8.56856 0.82246 0.01416
C 7.35126 0.10634 0.03542
C 9.79408 32.67986 0.02299
C 11.00993 31.93721 0.00244
C 11.05058 19.12839 -0.00368
C 11.07631 30.50915 -0.01717
C 9.85274 28.44118 -0.01952
C 11.04029 27.74638 -0.02813
C 11.0245 26.32611 0.00374
C 9.86323 25.5197 0.00052
C 9.90032 24.1352 -0.03682
C 11.01174 23.41391 0.01965
C 11.1184 21.9927 0.02058
C 9.86064 21.2881 -0.01957
C 9.8159 29.87511 0.05265
C 8.58228 6.38868 0.02162
C 12.33479 29.75499 -0.00289
C 13.61509 27.76211 -0.02213
C 14.65066 32.7662 0.00364
C 15.9 32.00069 -0.00831
C 16.12512 30.62837 -0.02957
C 14.94015 29.78971 -0.04422
C 14.65742 28.40746 0.00654
C 14.7564 15.59788 -0.00703
C 15.9417 14.83597 -0.04076
C 15.97331 13.48975 -0.00652
C 12.28659 34.04625 -0.017
C 14.70405 12.79497 0.0058
C 15.99401 10.5974 0.00675
C 16.00659 9.17906 -0.00311
C 14.75908 8.4776 0.00742
C 14.75639 7.0515 -0.01594
C 15.93372 6.34839 0.0106
C 15.93765 4.98778 -0.01154
C 14.73264 4.27334 -0.01721
C 14.66926 2.86567 -0.02422
C 14.78189 11.39816 -0.00865
C 12.33661 28.3567 0.00028
C 13.48495 0.70398 0.00143
C 12.32568 2.8615 -0.0054
C 12.25126 25.61297 0.03698
C 12.17467 24.26619 -0.00109
C 12.24346 21.18524 -0.00491
C 12.20405 19.8696 0.03338
C 13.69269 17.57812 -0.0258
C 12.33497 17.08462 -0.0331
C 12.36519 15.70419 -0.00316
C 13.53907 14.8927 0.02188
C 13.51794 2.12826 0.00667
C 13.526 13.46417 -0.01979
C 12.32335 11.32245 -0.01581
C 13.56786 10.64923 0.01452
C 13.52661 9.19864 0.04892
C 12.27978 8.5359 -0.00111
C 12.24483 7.08622 -0.03557
C 13.54483 6.40514 0.03754
C 13.58022 4.97377 0.01739
C 12.32726 4.27461 0.00755
C 12.33538 12.74714 0.02691
C 15.92948 2.15115 0.01277
C 7.37096 7.13161 -0.0014
C 8.67893 9.19741 -0.02162
C 2.46779 7.1372 0.01572
C 3.65264 6.42601 -0.04848
C 3.68072 5.02185 -0.00892
C 2.43878 4.28945 -0.01362
C 2.43419 2.88237 -0.0008
C 3.73689 2.19348 0.0288
C 3.70758 0.7764 0.00393
C 2.45142 0.02506 0.00895
C 2.52784 8.48157 -0.00095
C 4.92056 32.69965 0.00685
C 6.17157 30.59068 -0.00482
C 4.9017 29.84037 -0.01384
C 4.87689 28.44671 0.03693
C 6.08789 27.7057 0.01745
C 6.2117 26.2607 0.00488
C 4.9479 25.53614 -0.01004
C 4.90505 24.12177 -0.02896
C 6.20733 23.44963 -0.00131
C 6.17935 31.98188 0.02888
C 6.12856 22.01993 -0.01118
C 3.62173 9.2753 0.03007
C 2.43583 11.34691 -0.00494
C 3.64611 30.50585 0.01305
C 2.42057 29.8065 -0.00077
C 2.36643 28.41026 0.03368
C 3.64125 27.70222 -0.02929
C 3.7049 26.25902 -0.00966
C 2.44523 25.56347 -0.03337
C 2.4206 24.15093 0.01227
C 3.70511 23.45559 0.00873
C 3.64854 10.66932 0.00054
C 3.68235 22.0169 -0.00049
C 2.39516 19.88746 -0.01303
C 3.64365 19.27994 -0.01378
C 3.63635 17.79059 0.02635
C 2.41743 17.0541 0.0127
C 2.44807 15.5651 0.01396
C 3.70698 14.93359 0.01849
C 3.69968 13.51914 -0.01142
C 2.41436 12.77957 -0.00562
C 2.42806 21.30196 0.00848
C 7.33161 8.57501 0.00415
C 4.91031 21.31549 -0.014
C 6.10594 19.13756 0.00373
C 7.35907 28.48458 -0.01275
C 8.64541 27.69715 0.00985
C 8.66778 26.20206 -0.02245
C 7.42891 25.54135 -0.00428
C 7.4308 24.18277 0.03101
C 8.64745 23.44386 -0.01536
C 8.61659 22.00246 -0.02689
C 7.35074 21.33409 -0.01046
C 7.36707 29.82977 -0.01111
C 7.38995 19.84095 -0.00891
C 8.61987 17.77087 0.00165
C 7.38044 16.99325 -0.02971
C 7.38859 15.54497 0.02894
C 8.58959 14.85874 -0.01789
C 8.62839 13.44028 0.00444
C 7.38625 12.78683 -0.00925
C 7.38681 11.38794 0.01877
C 8.65805 10.68007 0.01363
C 8.60958 19.14823 0.02819
C 4.9 19.89281 0.02147
C 8.5528 30.59203 0.02841
C 7.3412 32.75362 0.00406
C 6.12597 17.73858 -0.00191
C 4.89732 17.04974 0.00438
C 4.93683 15.59211 0.01291
C 6.20162 14.89661 0.00093
C 6.16635 13.51151 0.00057
C 4.8922 12.75947 -0.01634
C 4.90193 11.35133 -0.00334
C 6.12124 10.62568 0.02339
C 8.53214 31.94235 0.00943
C 6.1022 9.18666 0.01641
C 4.86691 7.1596 0.01364
C 6.08879 6.49867 -0.01062
C 6.11907 5.05705 -0.00033
C 4.84847 4.36852 0.03589
C 4.92941 2.94572 -0.02759
C 6.17185 2.29089 0.0402
C 6.14713 0.84771 0.00572
C 4.9498 0.0651 0.03592
C 4.81631 8.54254 -0.00719
C 3.67318 31.92606 0.0276
C 15.86658 0.73676 0.00096
C 17.15647 32.71251 0.01087
C 29.50159 0.14044 -0.01694
C 31.94287 32.61365 0.01428
C 33.18891 31.96046 -0.02142
C 33.17032 30.58012 0.0544
C 31.90519 29.87109 0.00026
C 31.91203 28.45625 0.00682
C 33.13698 27.71683 -0.01779
C 33.12592 26.32489 0.03794
C 30.76395 0.6477 0.01713
C 31.8698 25.6299 0.01927
C 33.1246 23.53545 -0.02383
C 33.11113 22.06309 -0.01429
C 31.84811 21.34974 -0.0136
C 31.90969 19.89711 0.00594
C 33.15635 19.24314 -0.02474
C 33.10467 17.77906 0.00369
C 31.87829 17.04304 0.00455
C 31.97045 15.58177 -0.00644
C 31.8559 24.2257 0.01574
C 33.16969 14.95638 -0.01839
C 29.56166 8.50234 0.00346
C 30.80366 10.5943 0.00716
C 29.44472 29.73115 -0.03039
C 29.51583 28.33192 0.01836
C 30.73499 27.7539 0.03531
C 30.72123 26.41208 -0.00669
C 29.55056 25.59114 0.0101
C 29.50896 24.33249 0.01705
C 30.62092 23.52715 -0.0405
C 30.6156 22.14304 -0.01303
C 30.80536 9.19024 0.00307
C 29.52891 21.29566 -0.01461
C 30.69288 19.15405 -0.00944
C 30.61356 17.79884 -0.03735
C 29.41006 17.08873 -0.00971
C 29.50499 15.65058 0.01518
C 30.71368 14.92152 0.01908
C 30.73071 13.45828 0.07705
C 29.54527 12.7238 0.0103
C 29.59363 11.34834 0.02108
C 29.47839 19.93582 -0.02155
C 30.58211 30.53302 -0.01415
C 33.1649 13.47373 0.00137
C 32.02806 11.33479 0.04381
C 1.13467 19.20711 -0.01678
C 1.20005 17.76922 0.01223
C 34.37934 17.0785 0.00648
C 34.37981 15.64459 0.02114
C 1.17582 14.90808 -0.02957
C 1.23069 13.52333 0.00343
C 0.00333 12.73747 -0.02656
C 34.42482 11.34361 -0.02442
C 34.34743 19.88992 0.01951
C 1.23884 10.59634 -0.00027
C 0.01968 8.46679 -0.02302
C 34.33633 7.039 -0.02849
C 1.19767 6.36499 0.02931
C 1.24109 4.94261 0.00628
C 0.00865 4.22972 -0.0345
C 34.41658 2.83517 -0.00931
C 1.21773 2.12982 -0.00939
C 1.20474 0.68045 -0.00468
C 1.2987 9.14408 -0.00583
C 31.95288 12.74089 0.00199
C 34.33069 21.30688 -0.02213
C 1.20094 23.53263 0.00723
C 33.26352 10.58085 0.02806
C 33.21298 9.20391 0.01504
C 31.99182 8.49696 -0.00069
C 31.94187 7.12142 0.04926
C 33.04377 6.2791 -0.03838
C 33.19327 4.94956 0.00349
C 33.15187 2.13199 -0.00323
C 33.21987 0.72746 -0.00841
C 1.14302 22.10703 0.02712
C 32.02534 34.055 0.0001
C 1.18601 31.9754 -0.01404
C 1.22097 30.51377 0.01027
C 34.38859 29.85859 0.01831
C 34.36042 28.46262 -0.01037
C 1.16293 27.69992 -0.00439
C 1.23342 26.27109 -0.00598
C 34.3919 25.61474 -0.05239
C 34.38052 24.18875 0.03076
C 34.37854 32.68285 -0.02927
C 14.65909 0.04253 -0.01527
C 30.6748 31.95764 -0.01854
C 27.0114 33.99251 0.03265
C 20.90373 9.22421 -0.01971
C 19.69643 8.51543 -0.02118
C 19.64602 7.13886 0.00733
C 20.91315 6.37016 -0.00178
C 20.87497 4.95364 0.00768
C 19.67358 4.22922 -0.0276
C 19.62067 2.81938 0.03005
C 20.82612 2.19303 -0.04078
C 20.94066 10.66355 -0.01586
C 20.80533 0.76482 0.02117
C 22.17168 32.6532 -0.00498
C 23.40591 31.94572 0.00135
C 23.52493 30.46258 0.03102
C 23.3913 13.53856 0.02555
C 22.11842 12.97443 0.01423
C 22.13417 11.51259 -0.00285
C 23.35273 10.71869 -0.009
C 23.34751 9.20321 -0.01199
C 19.63238 34.05504 0.02737
C 22.11887 8.5344 -0.00229
C 19.63492 11.34332 -0.01107
C 20.81904 13.35293 -0.00225
C 18.35715 31.87817 0.00199
C 18.04192 30.49043 0.01511
C 18.36462 13.53062 -0.00478
C 17.15616 12.80338 -0.01662
C 17.17492 11.31568 -0.01185
C 18.49217 10.58921 0.01126
C 18.45884 9.18209 0.01852
C 17.27616 8.44187 -0.00381
C 19.55544 12.81739 0.00071
C 17.16383 7.06216 0.03046
C 18.45379 4.94946 0.03374
C 17.18577 4.26792 -0.02845
C 17.19215 2.82722 -0.03213
C 18.43106 2.15744 0.02239
C 18.45153 0.71443 0.01153
C 17.13698 0.05213 0.02734
C 19.60409 32.60154 -0.0055
C 20.85712 32.03387 0.01515
C 18.44178 6.40631 0.0296
C 29.44406 32.66959 -0.02049
C 22.22782 7.08909 -0.00938
C 23.36056 4.9945 -0.01154
C 24.57356 0.05279 0.00194
C 27.02444 32.63394 -0.00621
C 28.23543 31.91539 0.02611
C 28.16399 30.41542 0.02198
C 26.89627 29.69072 0.01094
C 27.24053 28.34216 0.00235
C 28.27256 27.67748 0.01495
C 28.24941 17.83657 0.01259
C 25.83151 0.72078 0.04185
C 27.1949 15.49546 0.01799
C 28.38653 13.44505 -0.00416
C 27.10294 12.74887 0.01177
C 27.09652 11.30475 0.04266
C 28.30809 10.60373 0.01324
C 28.37022 9.21376 0.0014
C 27.1011 8.602 0.00924
C 27.25025 7.16924 0.02326
C 28.20972 0.65364 0.00261
C 28.38045 14.83245 0.01699
C 23.40709 6.38787 -0.0264
C 25.87875 2.13377 0.02316
C 24.55298 4.28521 0.00152
C 22.1047 4.33042 0.00684
C 22.06652 2.92884 -0.01052
C 23.34581 2.1579 -0.01679
C 23.29828 0.75098 0.00367
C 22.09262 0.00375 0.04306
C 24.60217 32.67343 0.00996
C 25.81489 31.91254 0.00195
C 25.67543 30.51865 -0.00802
C 24.61724 2.86014 0.01257
C 26.03465 14.82924 -0.00218
C 24.58033 12.72798 -0.00037
C 24.59669 11.36896 -0.0032
C 25.79626 10.65814 0.00622
C 25.83705 9.25006 -0.02815
C 24.6396 8.49124 -0.00942
C 24.69695 7.01074 0.00487
C 26.08286 6.40195 0.00826
C 25.78033 5.00602 -0.00294
C 25.83063 13.45095 -0.01654
C 2.4485 32.65946 0.00988
