420
Graphene
C 34.42151 34.021 0.01295
C 12.2929 15.60146 0.00406
C 13.59803 14.98343 0.00943
C 12.13725 4.36743 0.02841
C 12.24321 2.93776 -0.01111
C 13.4781 2.22492 -0.01275
C 13.51897 0.69844 0.00985
C 12.32939 34.06796 -0.02245
C 14.71091 32.56919 -0.00428
C 15.94848 31.87211 0.03101
C 15.9457 30.41588 -0.01536
C 12.27752 17.02952 0.03592
C 14.73534 29.69004 -0.02689
C 15.96224 27.6605 -0.00891
C 16.03302 26.23258 0.02819
C 14.81025 25.49382 0.00165
C 14.7874 24.12289 -0.02971
C 15.98232 23.35396 0.02894
C 15.97621 21.9927 -0.01789
C 14.72523 21.30173 0.00444
C 14.7209 19.89206 -0.00925
C 15.95519 19.11256 0.01877
C 15.98028 17.76362 0.01363
C 14.72935 28.3149 -0.01046
C 14.79396 17.06795 -0.02162
C 13.5045 17.75491 0.00572
C 12.2515 20.01282 -0.02759
C 11.06393 19.27775 0.00488
C 11.08739 17.81563 -0.01004
C 9.89618 17.11959 -0.02896
C 9.80028 15.7374 -0.00131
C 11.02776 15.03264 -0.01118
C 10.02601 4.30668 -0.014
C 9.84284 2.91581 0.02147
C 11.04949 2.11501 0.00373
C 11.03417 0.77379 -0.00191
C 9.7979 0.03833 0.00438
C 13.47832 19.24786 0.0402
C 12.25843 32.6504 0.01291
C 13.54142 30.43605 0.00057
C 12.26784 29.79549 -0.01634
C 12.21645 28.38843 -0.00334
C 13.48087 27.69203 0.02339
C 13.51385 26.26863 0.01641
C 12.24071 25.63762 -0.00719
C 12.28845 24.21227 0.01364
C 13.55852 23.50585 -0.01062
C 13.5572 22.02115 -0.00033
C 12.28266 21.42415 0.03589
C 13.52741 31.86633 0.00093
C 14.82072 15.75168 0.00415
C 15.99505 14.89343 -0.0014
C 15.96353 13.55814 0.02162
C 18.38907 10.50652 0.02098
C 18.38941 9.08585 0.01848
C 17.28927 7.22257 -0.00619
C 18.42605 6.40963 -0.02162
C 18.41892 5.01497 0.00889
C 17.2121 4.27718 -0.00481
C 17.17408 2.83147 0.00979
C 18.38447 2.10551 0.01443
C 18.31346 0.60914 0.03505
C 17.09713 34.0058 -0.02815
C 17.26139 11.3486 -0.03113
C 19.5713 32.62035 -0.04147
C 20.86399 30.50564 0.00213
C 19.61041 29.85648 -0.00066
C 19.61057 28.43464 -0.00289
C 20.87537 27.70558 0.00028
C 20.87819 26.28066 -0.02213
C 19.70083 25.59472 0.03698
C 19.72032 24.15383 -0.00109
C 20.96392 23.43854 -0.00491
C 20.90081 21.98895 0.03338
C 19.67014 21.33614 -0.0258
C 20.8459 31.97818 -0.05302
C 17.0191 12.67957 0.0351
C 18.36511 13.43192 0.00422
C 18.49068 14.82619 0.00798
C 16.06488 4.99507 0.0076
C 14.83573 4.37128 0.01241
C 14.74612 2.88874 -0.01454
C 15.97113 2.17399 0.01945
C 15.89396 0.70709 0.01416
C 14.69507 33.99184 0.03542
C 17.14278 32.62332 0.02299
C 18.2984 31.90722 0.00244
C 18.37692 30.55059 -0.01717
C 17.24299 29.74765 0.05265
C 17.17544 28.3413 -0.01952
C 18.39238 27.62586 -0.02813
C 18.46883 26.1713 0.00374
C 17.22275 25.47574 0.00052
C 17.21378 24.06583 -0.03682
C 18.46368 23.44806 0.01965
C 18.44853 22.00272 0.02058
C 17.19986 21.27887 -0.01957
C 17.17227 19.84895 -0.0108
C 18.44437 19.22092 -0.00368
C 18.41921 17.73241 -0.02696
C 17.19165 17.04831 -0.00114
C 17.27 15.60195 0.00228
C 9.86927 19.95805 0.01745
C 19.67829 19.91721 -0.0331
C 9.80911 21.45659 0.03693
C 11.03588 23.53411 -0.00482
C 2.38365 2.88602 -0.00561
C 3.65399 2.18324 0.00208
C 3.6551 0.69925 0.01707
C 2.43126 0.0101 0.02769
C 4.87471 32.65679 -0.03291
C 6.0457 31.99938 -0.04999
C 6.12648 30.60716 0.04505
C 4.91405 29.84364 0.03284
C 4.98692 28.41121 -0.04307
C 6.11862 27.66541 0.03189
C 2.40339 4.33065 -0.01977
C 6.09657 26.2646 0.00031
C 4.85348 24.09122 0.01402
C 6.13904 23.41426 0.02379
C 6.15352 22.01932 0.00907
C 4.90552 21.27419 0.00643
C 4.90614 19.90613 -0.01509
C 6.12818 19.21183 0.03267
C 6.05675 17.80798 0.02374
C 4.86727 17.04162 0.00402
C 4.93251 15.63184 0.0073
C 6.2097 14.96119 0.0174
C 4.88803 25.53691 -0.003
C 6.20091 13.42275 0.03828
C 3.66751 5.05903 0.02784
C 2.33932 7.15404 -0.00449
C 3.6734 30.53614 0.00748
C 2.47846 29.82039 0.00662
C 2.50511 28.40414 -0.0154
C 3.72528 27.59772 -0.01299
C 3.64384 26.17382 -0.00407
C 2.38224 25.49605 0.01138
C 2.43601 24.14171 0.03278
C 3.60818 23.42806 -0.00177
C 3.63415 22.04976 0.04421
C 2.40519 21.34258 0.00088
C 3.61764 6.48138 -0.01979
C 2.48168 19.88507 0.00828
C 3.71762 17.78324 0.00558
C 2.45585 17.07618 -0.0059
C 2.48332 15.58931 -0.01386
C 3.67404 14.83574 -0.02805
C 3.66544 13.50229 0.00081
C 2.36057 12.717 0.00245
C 2.37147 11.26325 0.02728
C 3.66256 10.64605 -0.00039
C 3.65347 9.21224 0.0064
C 2.42767 8.54573 0.00211
C 3.71778 19.21465 -0.02375
C 4.92596 12.73932 0.01226
C 4.85982 11.36518 -0.00279
C 6.16164 10.67767 0.01996
C 8.6296 15.02011 -0.01303
C 8.61318 13.64874 -0.01378
C 7.51274 12.77514 0.02635
C 7.33185 11.40051 0.0127
C 7.32076 8.61906 0.01396
C 7.44599 7.22778 0.01849
C 8.57378 6.51648 -0.01142
C 8.79795 5.10325 -0.00562
C 7.4099 4.3468 -0.00494
C 7.3063 2.9197 0.00054
C 7.41831 15.67119 0.00848
C 8.55535 2.21582 0.03007
C 7.34293 0.07872 0.01572
C 9.81173 32.67017 -0.04848
C 11.08284 31.95777 -0.00892
C 11.06092 30.57081 -0.01362
C 9.84334 29.93304 -0.0008
C 9.848 28.42267 0.0288
C 11.02054 27.67846 0.00393
C 11.02687 26.31221 0.00895
C 9.85771 25.65464 0.00685
C 9.84059 24.20325 0.02888
C 8.57169 0.79975 -0.00095
C 7.34301 17.09304 -0.00049
C 8.68304 17.80141 0.00873
C 8.65412 19.22026 0.01227
C 6.09599 9.29658 -0.03996
C 4.92626 8.60244 0.01465
C 4.90667 7.17554 -0.00074
C 6.18482 6.45435 -0.00518
C 6.15326 5.06087 0.0086
C 4.89265 4.30903 -0.00643
C 4.88716 2.91294 0.017
C 6.13311 2.21146 -0.03113
C 6.16016 0.80447 -0.02566
C 4.91631 0.04803 -0.00094
C 7.29304 32.65969 0.02322
C 8.59248 31.92554 -0.00725
C 8.54736 30.56412 -0.05697
C 7.34206 29.84132 0.01087
C 7.35046 28.38782 -0.01343
C 8.56431 27.72098 0.00988
C 8.55095 26.3154 0.0276
C 7.33662 25.59522 0.01305
C 7.33214 24.18832 -0.00077
C 8.59912 23.50772 0.03368
C 8.57559 22.02538 -0.02929
C 7.33931 21.3422 -0.00966
C 7.32267 19.93883 -0.03337
C 11.00601 22.17445 -0.01384
C 20.92699 19.21908 -0.00316
C 20.87362 17.74968 0.02188
C 19.64861 17.01108 -0.01979
C 29.445 11.32719 -0.02155
C 30.69058 10.59564 -0.00944
C 30.71974 9.23816 -0.03735
C 29.51868 8.43025 -0.00971
C 29.5225 7.1061 0.01518
C 30.73228 6.37587 0.01908
C 30.75152 4.91783 0.07705
C 29.49332 4.24742 0.0103
C 29.45889 2.90863 0.02108
C 30.66366 2.08115 0.00716
C 29.50597 12.76267 -0.01461
C 30.65926 0.68792 0.00307
C 31.90988 32.63848 0.01713
C 33.20561 31.94825 -0.01694
C 33.23965 30.46197 0.01428
C 31.98324 29.79463 -0.02142
C 31.98463 28.41042 0.0544
C 33.21601 27.67278 0.00026
C 33.22077 26.2165 0.00682
C 31.97532 25.53357 -0.01779
C 31.91948 24.18255 0.03794
C 33.16211 23.43261 0.01927
C 29.4086 34.05929 0.00346
C 33.20088 21.97974 0.01574
C 30.77749 13.43204 -0.01303
C 29.53503 15.5744 0.01705
C 28.32384 4.99484 0.00235
C 27.02052 4.31747 0.01495
C 27.03707 2.93659 0.01259
C 28.24126 2.17085 0.01799
C 28.245 0.7419 0.01699
C 27.04894 0.0321 -0.00416
C 29.40931 32.62727 0.01177
C 30.71113 31.89003 0.04266
C 30.71511 30.53404 0.01324
C 29.53025 29.85104 0.0014
C 30.7939 14.81184 -0.0405
C 29.56394 28.40379 0.00924
C 30.75825 26.22781 0.00261
C 29.57679 25.61045 0.03265
C 29.51045 24.11062 -0.02049
C 30.69294 23.37263 -0.01854
C 30.61917 21.91952 -0.01415
C 29.46687 21.24695 -0.03039
C 29.47814 19.77086 0.01836
C 30.67754 19.14957 0.03531
C 30.72931 17.72925 -0.00669
C 29.47333 17.03375 0.0101
C 30.77913 27.60958 0.02326
C 31.96331 21.24171 -0.02383
C 31.9229 19.84745 -0.01429
C 33.16345 19.17833 -0.0136
C 1.17646 23.42832 0.00723
C 1.18167 22.00212 0.02712
C 34.40853 21.26814 -0.02213
C 34.36278 19.88935 0.01951
C 1.26388 19.2035 -0.01678
C 1.30204 17.75983 0.01223
C 0.04532 17.08202 0.00648
C 0.01974 15.67506 0.02114
C 1.24878 14.93963 -0.02957
C 1.17612 13.51001 0.00343
C 34.37161 24.10423 0.03076
C 34.38131 12.72279 -0.02656
C 1.0938 10.58606 -0.00027
C 1.16807 9.16789 -0.00583
C 34.39531 8.45812 -0.02302
C 34.36795 7.03808 -0.02849
C 1.13534 6.33589 0.02931
C 1.18237 5.01873 0.00628
C 34.39301 4.27221 -0.0345
C 34.408 2.8503 -0.00931
C 1.19673 2.12985 -0.00939
C 1.20877 0.64794 -0.00468
C 34.37323 11.36168 -0.02442
C 0.01406 25.5301 -0.05239
C 1.21913 26.24452 -0.00598
C 1.30316 27.61501 -0.00439
C 33.15694 17.78298 0.00594
C 31.92702 17.05373 -0.02474
C 31.95788 15.57632 0.00369
C 33.22345 14.91978 0.00455
C 33.21908 13.49697 -0.00644
C 31.97486 12.79692 -0.01839
C 31.93243 11.32126 0.00137
C 33.17169 10.60286 0.00199
C 33.15681 9.20217 0.04381
C 31.94483 8.48312 0.02806
C 31.93217 7.06446 0.01504
C 33.18848 6.32952 -0.00069
C 33.1479 4.91809 0.04926
C 31.92765 4.15097 -0.03838
C 31.9341 2.74565 0.00349
C 33.14547 2.08154 -0.00323
C 33.16709 0.65626 -0.00841
C 31.97887 0.03903 0.0001
C 0.02072 32.64122 -0.02927
C 1.19488 31.90128 -0.01404
C 1.24455 30.49232 0.01027
C 34.42198 29.76565 0.01831
C 0.04052 28.39495 -0.01037
C 28.32503 6.38108 0.01094
C 27.04008 7.04836 0.02198
C 27.09705 8.50324 0.02611
C 28.29929 9.15407 -0.00621
C 22.18914 21.25588 0.0106
C 22.18285 19.88814 -0.01154
C 23.33451 19.11649 -0.01721
C 23.32661 17.70141 -0.02422
C 22.11979 17.03156 0.01277
C 22.10642 15.60232 0.00096
C 23.396 14.95695 -0.01527
C 23.32826 13.51302 0.01087
C 22.16093 12.80661 0.00199
C 22.21696 11.41119 0.01511
C 23.37393 22.03558 -0.01594
C 23.43542 10.67259 -0.00478
C 22.17078 8.56174 -0.01185
C 22.15083 7.1383 0.01126
C 23.30183 6.44964 0.01852
C 23.37224 4.98195 -0.00381
C 22.04733 4.26964 0.03046
C 22.03425 2.85399 0.0296
C 23.28875 2.18472 0.03374
C 23.29518 0.77019 -0.02845
C 22.07593 0.03298 -0.03213
C 24.54299 32.72983 0.02239
C 23.39942 9.2564 -0.01662
C 23.40572 23.46574 0.00742
C 22.17211 24.23039 -0.00311
C 22.0956 25.62336 0.00675
C 19.65205 15.61161 0.02691
C 20.89455 14.88509 -0.01581
C 20.90056 13.465 0.01452
C 19.62618 12.65913 0.04892
C 19.69026 11.28239 -0.00111
C 20.91221 10.6664 -0.03557
C 21.01881 9.29996 0.03754
C 19.74148 8.61627 0.01739
C 19.68372 7.20157 0.00755
C 20.95084 6.45075 -0.0054
C 20.83584 5.01106 0.00667
C 19.63978 4.2276 0.00143
C 19.58268 2.79219 -0.017
C 20.81752 2.14767 0.00364
C 20.82729 0.70841 -0.00831
C 19.56972 34.02494 -0.02957
C 22.11178 32.70342 -0.04422
C 23.35082 32.0253 0.00654
C 23.329 30.53722 -0.00703
C 22.12129 29.80875 -0.04076
C 22.07249 28.44299 -0.00652
C 23.37532 27.72532 0.0058
C 23.36717 26.36032 -0.00865
C 25.81041 32.04598 0.01153
C 3.61797 31.98109 0.03345
C 25.78634 30.60503 0.02734
C 24.5673 28.42624 0.01515
C 27.0047 32.69757 -0.01052
C 28.28502 31.92767 -0.01679
C 28.23944 30.5359 0.00367
C 27.07439 29.81603 0.04306
C 27.11843 28.39746 0.00996
C 28.34288 27.69232 0.00195
C 28.27809 26.25292 -0.00802
C 27.08849 25.50744 -0.00218
C 26.99728 24.10153 -0.01654
C 28.23179 23.414 -0.00037
C 24.5035 34.05822 0.00684
C 28.22348 21.95354 -0.0032
C 27.04854 19.79765 -0.02815
C 28.24294 19.10305 -0.00942
C 28.19856 17.7027 0.00487
C 26.99828 16.93993 0.00826
C 27.01308 15.57726 -0.00294
C 28.2816 14.87922 0.00152
C 28.34513 13.4705 0.01257
C 27.04871 12.75793 0.02316
C 27.07726 11.36242 0.04185
C 28.23969 10.5956 0.00194
C 26.98846 21.20555 0.00622
C 25.81815 0.70285 -0.01154
C 25.80425 2.15942 -0.0264
C 24.64139 2.85123 -0.00938
C 25.85926 27.72079 -0.00225
C 25.91931 26.32019 0.00071
C 24.66197 25.59686 -0.01107
C 24.63852 24.12586 -0.01586
C 25.81105 23.41128 -0.01971
C 25.81469 21.98997 -0.02118
C 24.5909 21.34996 0.00733
C 24.58564 19.78933 -0.00178
C 25.79284 19.08728 0.00768
C 25.80024 17.67043 -0.0276
C 24.57661 16.9431 0.03005
C 24.64114 15.52046 -0.04078
C 25.82749 14.86381 0.02117
C 25.82725 13.49579 0.02737
C 24.59572 12.78818 -0.00498
C 24.67357 11.33279 0.00135
C 25.91022 10.61426 0.03102
C 25.86307 9.27191 0.02555
C 24.64742 8.56654 0.01423
C 24.58912 7.11297 -0.00285
C 25.80581 6.38549 -0.009
C 25.79832 4.96171 -0.01199
C 24.55645 4.25674 -0.00229
C 24.5863 29.92174 -0.0055
C 2.37926 32.63997 -0.00112
