409
Graphene
C 34.39702 34.0589 0.01295
C 13.54543 17.73644 -0.01536
C 12.35961 17.03952 -0.02689
C 12.35058 15.66517 -0.01046
C 13.5458 14.95136 -0.00891
C 13.76413 13.5181 0.02819
C 13.53242 0.66182 0.00165
C 12.3872 0.02803 -0.02971
C 14.73858 32.6167 0.02894
C 15.94658 31.95535 -0.01789
C 15.95502 30.46809 0.00444
C 14.73816 29.69629 -0.00925
C 14.76815 28.37041 0.01877
C 16.00708 27.70903 0.01363
C 16.0483 26.25218 -0.02162
C 14.84332 25.52426 0.00415
C 14.76282 24.15335 -0.0014
C 15.91927 23.39669 0.02162
C 15.93529 21.90172 0.0076
C 14.60342 21.30188 0.01241
C 14.73226 19.81183 -0.01454
C 15.96783 19.07279 0.01945
C 13.47818 19.16455 0.03101
C 12.32344 19.90924 -0.00428
C 12.31531 21.34388 -0.02245
C 13.47621 22.04849 0.00985
C 9.73626 19.82667 0.00438
C 10.98686 19.23862 0.01291
C 11.08413 17.81263 0.00093
C 9.82639 17.08991 0.00057
C 9.87762 15.68415 -0.01634
C 11.11981 14.9633 -0.00334
C 10.99313 13.62856 0.02339
C 9.86684 12.93611 0.01641
C 9.84555 2.87866 -0.00719
C 10.91695 2.03372 0.01364
C 16.01076 17.73229 0.01416
C 11.11071 0.71341 -0.01062
C 12.21386 32.66808 0.03589
C 13.50877 31.90497 -0.02759
C 13.53726 30.41691 0.0402
C 12.2379 29.8115 0.00572
C 12.32751 28.39012 0.03592
C 13.54905 27.72778 0.00406
C 13.56312 26.27675 0.00943
C 12.32101 25.63932 0.02841
C 12.27669 24.1728 -0.01111
C 13.52457 23.46383 -0.01275
C 9.82141 0.17239 -0.00033
C 9.73742 21.33649 -0.00191
C 14.82424 17.0083 0.03542
C 16.03519 14.80313 0.00244
C 18.42397 2.24804 0.01443
C 18.46551 0.73577 0.03505
C 17.17973 0.00936 -0.02815
C 19.63869 32.6845 -0.04147
C 20.86214 31.911 -0.05302
C 20.92417 30.54798 0.00213
C 19.65796 29.81105 -0.00066
C 19.72646 28.41751 -0.00289
C 20.92647 27.70434 0.00028
C 20.86906 26.23089 -0.02213
C 19.63678 25.53907 0.03698
C 19.56293 24.09941 -0.00109
C 20.79626 23.42476 -0.00491
C 20.79232 21.98592 0.03338
C 19.61397 21.31722 -0.0258
C 19.65379 19.90704 -0.0331
C 20.89471 19.20512 -0.00316
C 20.85698 17.77171 0.02188
C 19.67699 17.05238 -0.01979
C 19.67708 15.65946 0.02691
C 20.96185 14.90864 -0.01581
C 17.20535 2.73711 0.00979
C 18.30568 10.84352 -0.00481
C 17.24863 12.77173 0.00889
C 18.44193 13.53708 -0.02162
C 16.03158 13.47291 -0.01717
C 16.05352 2.05709 0.05265
C 15.9136 0.70871 -0.01952
C 14.69075 34.04115 -0.02813
C 17.13458 32.65914 0.00374
C 18.37855 31.96611 0.00052
C 18.4714 30.53436 -0.03682
C 17.21971 29.79798 0.01965
C 17.29055 28.34449 0.02058
C 18.49229 27.66149 -0.01957
C 14.81166 15.58994 0.02299
C 18.4488 26.21881 -0.0108
C 17.15968 24.05924 -0.02696
C 18.39132 23.36178 -0.00114
C 18.32055 21.98344 0.00228
C 17.16189 21.20258 0.00798
C 17.10859 19.84512 0.00422
C 18.40793 19.18131 0.0351
C 18.44949 17.75513 -0.03113
C 17.24771 17.09715 0.02098
C 17.25429 15.63858 0.01848
C 18.46735 14.93518 -0.00619
C 17.22479 25.4576 -0.00368
C 10.97253 22.07697 0.00373
C 11.03861 23.49417 0.02147
C 9.84944 24.20235 -0.014
C 2.3884 2.86241 -0.003
C 3.5899 2.14975 0.01402
C 3.58317 0.71231 0.02379
C 2.39489 34.06533 0.00907
C 4.84727 32.72685 0.00643
C 6.06935 32.06448 -0.01509
C 6.01607 30.61598 0.03267
C 4.84963 29.86211 0.02374
C 4.82823 28.47095 0.00402
C 6.08406 27.76116 0.0073
C 6.15302 26.3285 0.0174
C 4.93245 25.59377 0.03828
C 4.99123 24.19459 0.01226
C 6.17369 23.48324 -0.00279
C 6.17602 22.03289 0.01996
C 4.83995 21.33841 -0.03996
C 4.80877 19.93408 0.01465
C 6.05725 19.20154 -0.00074
C 6.13461 17.70353 -0.00518
C 4.91996 17.04175 0.0086
C 4.92256 15.62661 -0.00643
C 2.4254 4.2767 0.00031
C 3.66493 4.95575 0.03189
C 3.71384 6.40594 -0.04307
C 2.40305 7.09435 0.03284
C 3.56452 30.57487 -0.02375
C 2.27596 29.81873 0.00558
C 2.34857 28.46689 -0.0059
C 3.61946 27.80758 -0.01386
C 3.63497 26.33829 -0.02805
C 2.49644 25.6175 0.00081
C 2.45405 24.09913 0.00245
C 3.74303 23.39706 0.02728
C 3.70811 21.99452 -0.00039
C 2.46444 21.35105 0.0064
C 6.17029 14.88233 0.017
C 2.38847 19.9522 0.00211
C 3.66232 17.77314 -0.01979
C 2.45965 17.11022 0.02784
C 2.41922 15.64118 -0.01977
C 3.69494 14.94602 -0.00561
C 3.71054 13.5608 0.00208
C 2.4537 12.80484 0.01707
C 2.44161 11.40312 0.02769
C 3.66728 10.56226 -0.03291
C 3.64366 9.25671 -0.04999
C 2.37701 8.51126 0.04505
C 3.62007 19.19195 -0.00449
C 6.18359 13.4012 -0.03113
C 4.85549 12.74047 -0.02566
C 4.8906 11.28331 -0.00094
C 7.34121 17.02525 0.00054
C 7.31865 15.63694 0.03007
C 8.63301 14.92003 -0.00095
C 8.63713 13.48879 0.01572
C 7.39524 12.73495 -0.04848
C 7.45395 11.3301 -0.00892
C 8.59696 10.62278 -0.01362
C 7.45553 8.66449 -0.0008
C 7.30639 7.2304 0.0288
C 7.36049 4.38486 0.00393
C 8.52005 17.78241 -0.00494
C 7.34428 2.98924 0.00895
C 8.59884 0.95543 0.02888
C 7.33833 0.12625 -0.00482
C 9.82011 32.75623 -0.01384
C 11.01282 32.02995 0.03693
C 11.01008 30.60811 0.01745
C 9.85162 29.8837 0.00488
C 9.83419 28.40988 -0.01004
C 11.05645 27.67957 -0.02896
C 11.03599 26.30918 -0.00131
C 9.80261 25.60343 -0.01118
C 8.62155 2.38064 0.00685
C 20.93242 13.45778 0.01452
C 8.49319 19.18803 -0.00562
C 7.34754 21.29397 0.01849
C 6.16069 10.66777 0.02322
C 6.15371 9.23779 -0.00725
C 4.9297 8.49098 -0.05697
C 4.96463 7.08201 0.01087
C 6.14428 6.43705 -0.01343
C 6.12841 5.1302 0.00988
C 4.93128 4.28766 0.0276
C 4.92936 2.85875 0.01305
C 6.12899 2.22282 -0.00077
C 6.13149 0.80274 0.03368
C 7.32496 19.92231 -0.01142
C 4.90517 0.0727 -0.02929
C 8.59135 32.11298 -0.03337
C 8.50277 30.53738 0.01227
C 7.27998 29.88127 0.00873
C 7.31385 28.39417 -0.00049
C 8.57769 27.77913 0.00848
C 8.54881 26.35737 -0.01303
C 7.33713 25.60817 -0.01378
C 7.43558 24.15355 0.02635
C 8.6403 23.45367 0.0127
C 8.55499 22.02103 0.01396
C 7.37749 32.81252 -0.00966
C 3.67636 31.95382 0.00828
C 19.71439 12.80272 0.04892
C 20.85164 10.68294 -0.03557
C 29.45804 8.42736 -0.00971
C 29.42918 6.99505 0.01518
C 30.7639 6.30346 0.01908
C 30.77575 4.8913 0.07705
C 29.47274 4.22603 0.0103
C 29.46741 2.85587 0.02108
C 30.7144 2.11502 0.00716
C 30.77853 0.66792 0.00307
C 29.54129 34.03476 0.00346
C 31.98587 32.63688 0.01713
C 33.21889 31.94295 -0.01694
C 33.15864 30.46345 0.01428
C 31.92935 29.78353 -0.02142
C 31.93293 28.43742 0.0544
C 33.13757 27.5962 0.00026
C 33.17141 26.21947 0.00682
C 31.97662 25.57848 -0.01779
C 31.96233 24.17356 0.03794
C 33.18278 23.47027 0.01927
C 33.16609 22.06363 0.01574
C 31.97109 21.3182 -0.02383
C 30.69399 9.17896 -0.03735
C 30.7005 10.55333 -0.00944
C 29.51623 11.29042 -0.02155
C 29.48835 12.75067 -0.01461
C 28.27171 2.11022 0.01799
C 28.29072 0.67517 0.01699
C 27.05115 0.02854 -0.00416
C 29.55874 32.66096 0.01177
C 30.80033 31.93168 0.04266
C 30.7115 30.54743 0.01324
C 29.52502 29.82421 0.0014
C 29.46281 28.41219 0.00924
C 30.70118 27.7488 0.02326
C 30.73592 26.31035 0.00261
C 31.93762 19.90566 -0.01429
C 29.51223 25.64055 0.03265
C 30.71546 23.43352 -0.01854
C 30.63754 21.96394 -0.01415
C 29.49787 21.23704 -0.03039
C 29.47799 19.86616 0.01836
C 30.69367 19.16797 0.03531
C 30.74171 17.74326 -0.00669
C 29.48132 16.98664 0.0101
C 29.43908 15.67053 0.01705
C 30.64084 14.87958 -0.0405
C 30.75893 13.42244 -0.01303
C 29.50909 24.18512 -0.02049
C 27.02306 2.75229 0.01259
C 33.15416 19.17876 -0.0136
C 31.95514 17.06877 -0.02474
C 1.22834 22.04039 0.02712
C 34.37858 21.39114 -0.02213
C 34.33221 19.8604 0.01951
C 1.15554 19.15757 -0.01678
C 1.24026 17.76825 0.01223
C 34.43223 17.08185 0.00648
C 34.36411 15.65248 0.02114
C 1.23913 14.9064 -0.02957
C 1.25275 13.48173 0.00343
C 34.41273 12.78072 -0.02656
C 0.04587 11.37225 -0.02442
C 1.30343 10.64001 -0.00027
C 1.21084 9.21156 -0.00583
C 34.41339 8.54756 -0.02302
C 0.00455 7.16206 -0.02849
C 1.19834 6.44064 0.02931
C 1.19366 5.00713 0.00628
C 34.43098 4.24084 -0.0345
C 34.38963 2.82258 -0.00931
C 1.18853 2.09836 -0.00939
C 1.21462 0.64752 -0.00468
C 1.23179 23.39595 0.00723
C 34.41576 24.06145 0.03076
C 0.00472 25.54602 -0.05239
C 1.23532 26.27852 -0.00598
C 31.85722 15.5637 0.00369
C 33.06867 14.85233 0.00455
C 33.16381 13.44948 -0.00644
C 32.03784 12.76209 -0.01839
C 31.97227 11.29075 0.00137
C 33.19099 10.63194 0.00199
C 33.17688 9.25477 0.04381
C 32.01263 8.43788 0.02806
C 31.97304 7.06149 0.01504
C 33.24126 6.36755 -0.00069
C 33.13397 17.75438 0.00594
C 33.21616 4.94395 0.04926
C 31.9531 2.84529 0.00349
C 33.20123 2.08279 -0.00323
C 33.20012 0.65605 -0.00841
C 31.97875 34.01345 0.0001
C 34.38202 32.67808 -0.02927
C 1.15431 31.9396 -0.01404
C 1.05771 30.50311 0.01027
C 34.31576 29.72022 0.01831
C 34.35473 28.33678 -0.01037
C 1.21784 27.62557 -0.00439
C 31.95119 4.1824 -0.03838
C 27.00823 4.12149 0.01495
C 28.31595 4.91093 0.00235
C 28.24868 6.38956 0.01094
C 22.15446 15.66024 0.00096
C 23.41043 14.9682 -0.01527
C 23.35054 13.51351 0.01087
C 22.14711 12.7796 0.00199
C 22.20391 11.31281 0.01511
C 23.46198 10.5157 -0.00478
C 23.35799 9.16516 -0.01662
C 22.07749 8.53334 -0.01185
C 22.07978 7.05203 0.01126
C 23.27089 6.34357 0.01852
C 23.37902 4.90032 -0.00381
C 22.17081 4.25157 0.03046
C 22.09095 2.83354 0.0296
C 23.27976 2.10303 0.03374
C 23.39392 0.73694 -0.02845
C 22.1375 0.00234 -0.03213
C 24.62817 32.63284 0.02239
C 25.8937 32.00183 0.01153
C 25.85919 30.60747 0.02734
C 24.68901 29.87651 -0.0055
C 24.70579 28.41758 0.01515
C 22.11388 17.08678 0.01277
C 23.34494 17.82519 -0.02422
C 23.3827 19.19877 -0.01721
C 22.10841 19.87524 -0.01154
C 20.8509 9.27225 0.03754
C 19.6399 8.59507 0.01739
C 19.74843 7.23546 0.00755
C 20.83975 6.36811 -0.0054
C 20.93302 5.01313 0.00667
C 19.69082 4.30973 0.00143
C 19.63204 2.88151 -0.017
C 20.84296 2.19298 0.00364
C 20.88474 0.66017 -0.00831
C 19.64902 0.01796 -0.02957
C 25.86193 27.61751 -0.00225
C 22.20522 32.69247 -0.04422
C 23.42244 30.48513 -0.00703
C 22.23903 29.85555 -0.04076
C 22.11102 28.37961 -0.00652
C 23.48836 27.68022 0.0058
C 23.29457 26.29642 -0.00865
C 22.03848 25.59153 0.00675
C 22.04906 24.15819 -0.00311
C 23.28181 23.46441 0.00742
C 23.28168 22.06245 -0.01594
C 22.08024 21.28657 0.0106
C 23.37781 31.97968 0.00654
C 25.84261 26.2192 0.00071
C 24.51131 25.49827 -0.01107
C 24.51044 24.07871 -0.01586
C 27.10448 29.80589 0.04306
C 27.08163 28.33936 0.00996
C 28.29683 27.67616 0.00195
C 28.24682 26.27874 -0.00802
C 27.054 25.45528 -0.00218
C 27.05783 24.10034 -0.01654
C 28.34998 23.42679 -0.00037
C 28.3719 22.01928 -0.0032
C 27.09483 21.33621 0.00622
C 27.02117 19.83797 -0.02815
C 28.25931 30.51048 0.00367
C 28.28695 19.1769 -0.00942
C 27.02509 17.01207 0.00826
C 26.998 15.56472 -0.00294
C 28.26212 14.88152 0.00152
C 28.34273 13.52508 0.01257
C 27.0578 12.77667 0.02316
C 27.09945 11.37498 0.04185
C 28.32011 10.59054 0.00194
C 28.29804 9.2134 -0.00621
C 27.02578 8.49836 0.02611
C 26.97604 7.08383 0.02198
C 28.28874 17.71955 0.00487
C 19.65845 11.46105 -0.00111
C 28.33817 31.94419 -0.01679
C 24.59286 33.99716 0.00684
C 25.76449 23.43069 -0.01971
C 25.83219 22.018 -0.02118
C 24.52845 21.36271 0.00733
C 24.56804 19.91335 -0.00178
C 25.84192 19.22159 0.00768
C 25.82855 17.81484 -0.0276
C 24.60197 17.01651 0.03005
C 24.62012 15.54249 -0.04078
C 25.78837 14.88295 0.02117
C 25.85241 13.47283 0.02737
C 27.02767 32.68722 -0.01052
C 24.63096 12.71045 -0.00498
C 25.87233 10.70149 0.03102
C 25.8061 9.2212 0.02555
C 24.62043 8.44949 0.01423
C 24.62386 7.03329 -0.00285
C 25.85713 6.34185 -0.009
C 25.845 4.86884 -0.01199
C 24.61274 4.19394 -0.00229
C 24.63117 2.76315 -0.00938
C 25.74169 2.00932 -0.0264
C 25.85113 0.63939 -0.01154
C 24.60731 11.31293 0.00135
C 2.43558 32.63645 0.00088
