342
Graphene
C 34.40381 0.09504 0.01295
C 11.07445 19.08293 0.01848
C 11.03908 17.62343 -0.00619
C 9.8007 16.97576 -0.02162
C 9.77894 15.62727 0.00889
C 10.99888 14.8683 -0.00481
C 11.0379 13.52274 0.00979
C 9.75265 12.73437 0.01443
C 9.87901 11.35344 0.03505
C 11.04139 10.66982 -0.02815
C 11.04949 9.26301 -0.04147
C 9.81293 8.57868 -0.05302
C 9.78088 7.17681 0.00213
C 10.99818 6.39017 -0.00066
C 11.10333 4.95308 -0.00289
C 9.81084 4.2691 0.00028
C 9.80532 2.9322 -0.02213
C 11.08623 2.17978 0.03698
C 9.94192 19.824 0.02098
C 11.01439 0.7899 -0.00109
C 9.84959 21.25934 -0.03113
C 11.09204 23.4599 0.00422
C 7.31303 7.06375 0.00244
C 8.58536 6.36587 -0.01717
C 8.5848 4.97981 0.05265
C 7.35596 4.265 -0.01952
C 7.35118 2.88476 -0.02813
C 8.59476 2.21866 0.00374
C 8.68603 0.83662 0.00052
C 7.45642 0.1025 -0.03682
C 9.84044 32.74005 0.01965
C 10.99933 31.95932 0.02058
C 10.98105 30.49376 -0.01957
C 9.72671 29.91742 -0.0108
C 9.82906 28.4228 -0.00368
C 11.05312 27.73967 -0.02696
C 11.03032 26.27283 -0.00114
C 9.79191 25.52133 0.00228
C 9.71473 24.18461 0.00798
C 11.10824 22.09192 0.0351
C 9.88202 0.07508 -0.00491
C 12.18325 32.7175 0.03338
C 13.52315 32.01906 -0.0258
C 13.57159 4.95502 -0.00703
C 12.32667 4.27749 -0.04076
C 12.2907 2.85833 -0.00652
C 13.524 2.16008 0.0058
C 13.51331 0.631 -0.00865
C 12.22947 34.06925 0.00675
C 14.81466 32.61345 -0.00311
C 16.00075 31.87492 0.00742
C 15.89338 30.43739 -0.01594
C 14.71032 29.79736 0.0106
C 14.78295 28.3029 -0.01154
C 16.0243 27.61444 -0.01721
C 16.05894 26.28429 -0.02422
C 14.78235 25.45536 0.01277
C 14.82597 24.05421 0.00096
C 16.04004 23.32553 -0.01527
C 15.94461 21.82211 0.01087
C 13.43783 6.34801 0.00654
C 12.22529 7.09648 -0.04422
C 12.18522 8.53572 -0.02957
C 13.38565 9.2524 -0.00831
C 13.50406 30.6126 -0.0331
C 12.32565 29.81317 -0.00316
C 12.37307 28.39598 0.02188
C 13.55989 27.61472 -0.01979
C 13.58872 26.20333 0.02691
C 12.28187 25.63488 -0.01581
C 12.30586 24.26309 0.01452
C 13.47714 23.46766 0.04892
C 7.28499 8.51031 0.02299
C 13.49806 21.98884 -0.00111
C 12.26111 19.88 0.03754
C 13.45543 19.14598 0.01739
C 13.48884 17.76551 0.00755
C 12.42862 16.87075 -0.0054
C 12.27726 15.51757 0.00667
C 12.2285 12.83745 0.00143
C 12.34264 11.4157 -0.017
C 13.43258 10.575 0.00364
C 12.3272 21.32732 -0.03557
C 8.6274 9.33006 0.03542
C 8.61112 10.73944 0.01416
C 7.39886 11.34034 0.01945
C 2.40555 7.13496 0.02888
C 3.67217 6.39161 -0.00482
C 3.70362 4.95227 -0.01384
C 2.41465 4.35097 0.03693
C 2.52857 2.96359 0.01745
C 3.67563 2.22898 0.00488
C 3.68702 0.77479 -0.01004
C 2.41686 0.09535 -0.02896
C 4.87034 32.69145 -0.00131
C 6.20041 31.9787 -0.01118
C 6.13669 30.6279 -0.014
C 4.92845 29.86792 0.02147
C 4.83882 28.46642 0.00373
C 6.07671 27.71378 -0.00191
C 6.11733 26.35581 0.00438
C 4.92598 25.57349 0.01291
C 4.91631 24.15697 0.00093
C 2.37409 8.61978 0.00685
C 3.64301 9.27526 0.00895
C 3.66931 10.66553 0.00393
C 2.37665 11.45044 0.0288
C 3.56907 30.53584 0.00848
C 2.33568 29.77436 -0.01303
C 2.39171 28.41957 -0.01378
C 3.639 27.68111 0.02635
C 3.65424 26.30927 0.0127
C 2.43616 25.52385 0.01396
C 2.45598 24.08655 0.01849
C 3.68002 23.41658 -0.01142
C 6.16982 23.50482 0.00057
C 3.65879 22.05106 -0.00562
C 2.53914 19.84579 0.00054
C 3.69463 19.107 0.03007
C 3.66146 17.69096 -0.00095
C 2.48879 17.01414 0.01572
C 2.4503 15.52126 -0.04848
C 3.6383 14.85133 -0.00892
C 3.59067 13.45552 -0.01362
C 2.32317 12.77853 -0.0008
C 2.41256 21.3329 -0.00494
C 14.75792 21.32776 0.00199
C 6.12327 22.04501 -0.01634
C 5.03437 19.90892 0.02339
C 7.35343 29.85746 -0.00891
C 7.3746 28.46453 0.02819
C 8.60411 27.74755 0.00165
C 8.58127 26.26346 -0.02971
C 7.35687 25.6476 0.02894
C 7.38277 24.17595 -0.01789
C 8.54834 23.4465 0.00444
C 8.5723 22.01899 -0.00925
C 7.3703 21.28622 0.01877
C 7.3984 19.90788 0.01363
C 8.6448 19.19822 -0.02162
C 8.64338 17.75336 0.00415
C 7.43803 17.03857 -0.0014
C 7.34539 15.56928 0.02162
C 8.58256 14.87588 0.0076
C 8.52322 13.46022 0.01241
C 7.25473 12.71879 -0.01454
C 8.46714 30.64525 -0.01046
C 8.59641 32.00155 -0.02689
C 7.41151 32.85307 -0.01536
C 4.89858 0.05947 0.03101
C 6.19197 19.11891 0.01641
C 6.21284 17.7519 -0.00719
C 4.88793 17.05143 0.01364
C 4.84687 15.60659 -0.01062
C 6.08617 14.83906 -0.00033
C 6.04205 13.46549 0.03589
C 4.85038 12.68106 -0.02759
C 4.88968 11.32753 0.0402
C 4.89582 21.30949 -0.00334
C 6.13343 10.72163 0.00572
C 4.87446 8.55677 0.00406
C 4.87202 7.1253 0.00943
C 6.09098 6.43275 0.02841
C 6.20328 5.01809 -0.01111
C 4.93182 4.32378 -0.01275
C 4.89142 2.8464 0.00985
C 6.15485 2.21235 -0.02245
C 6.11596 0.76988 -0.00428
C 6.11807 9.21177 0.03592
C 14.75382 19.86373 0.01511
C 16.01762 19.59831 -0.00478
C 15.87531 9.18545 -0.01662
C 30.68668 2.16536 -0.02142
C 30.72291 0.74166 0.0544
C 29.47123 0.05428 0.00026
C 31.92291 32.73053 0.00682
C 33.12683 32.03899 -0.01779
C 33.15312 30.61959 0.03794
C 31.99201 29.92696 0.01927
C 31.96954 28.40878 0.01574
C 33.16811 27.70695 -0.02383
C 33.10026 26.33078 -0.01429
C 31.77639 25.58324 -0.0136
C 31.93522 24.19551 0.00594
C 33.10763 23.33385 -0.02474
C 33.20154 21.9635 0.00369
C 33.19566 14.99502 0.00455
C 33.07282 13.59515 -0.00644
C 31.86356 12.74474 -0.01839
C 29.49445 2.94776 0.01428
C 29.52266 4.32991 -0.01694
C 30.72089 4.99297 0.01713
C 30.72511 6.42318 0.00346
C 28.23625 4.9163 0.03531
C 27.06126 4.24206 -0.00669
C 26.97953 2.81862 0.0101
C 28.26043 2.24137 0.01705
C 28.22371 0.77748 -0.0405
C 27.00499 0.01878 -0.01303
C 29.47986 32.737 -0.01461
C 30.70649 32.06558 -0.02155
C 31.92577 11.38914 0.00137
C 30.74101 30.70585 -0.00944
C 29.56662 28.48192 -0.00971
C 30.75633 27.71509 0.01518
C 30.55502 26.42276 0.01908
C 29.52137 11.27364 0.07705
C 30.65838 10.66847 0.0103
C 30.70359 9.18408 0.02108
C 29.44087 8.48198 0.00716
C 29.39812 7.07405 0.00307
C 29.53623 29.92785 -0.03735
C 28.20921 6.30374 0.01836
C 33.23355 10.60353 0.00199
C 31.97073 8.48845 0.02806
C 1.22567 17.81115 0.01223
C 0.02286 17.24075 0.00648
C 34.30439 15.83229 0.02114
C 1.12696 14.99761 -0.02957
C 1.02865 13.60765 0.00343
C 34.299 12.82088 -0.02656
C 34.33869 11.3858 -0.02442
C 1.21229 10.73049 -0.00027
C 1.15629 9.306 -0.00583
C 0.03561 8.54056 -0.02302
C 34.40916 7.09453 -0.02849
C 1.17782 6.4028 0.02931
C 1.20667 5.01329 0.00628
C 34.39643 4.34093 -0.0345
C 34.40933 2.88009 -0.00931
C 1.19932 2.21641 -0.00939
C 1.24715 0.84141 -0.00468
C 1.2451 19.10715 -0.01678
C 34.42253 19.7554 0.01951
C 0.01033 21.14283 -0.02213
C 1.20888 22.05667 0.02712
C 31.97601 7.07368 0.01504
C 33.19294 6.38237 -0.00069
C 33.16924 4.96341 0.04926
C 31.94759 4.32495 -0.03838
C 31.88306 2.86202 0.00349
C 33.1801 2.19216 -0.00323
C 33.16257 0.7977 -0.00841
C 31.96963 0.02932 0.0001
C 33.23134 9.17716 0.04381
C 34.35202 32.74998 -0.02927
C 1.18615 30.56741 0.01027
C 34.37261 29.84964 0.01831
C 34.39267 28.45484 -0.01037
C 1.15688 27.73207 -0.00439
C 1.12057 26.2537 -0.00598
C 34.27311 25.54244 -0.05239
C 34.37003 24.18032 0.03076
C 1.15107 23.48609 0.00723
C 1.2467 31.99268 -0.01404
C 3.71949 31.98543 -0.00049
C 26.97992 7.01015 -0.03039
C 28.26352 9.21698 -0.01854
C 17.1573 4.36607 0.00768
C 17.19453 2.81506 -0.0276
C 18.37449 2.05869 0.03005
C 18.42993 0.62358 -0.04078
C 17.18402 34.02195 0.02117
C 19.69386 32.63696 0.02737
C 20.9489 31.87469 -0.00498
C 20.88354 30.46689 0.00135
C 19.65366 29.86084 0.03102
C 19.66536 28.42526 0.02555
C 20.82292 27.59668 0.01423
C 20.76843 9.30326 -0.00285
C 19.53053 8.58725 -0.009
C 19.59535 7.20499 -0.01199
C 20.90692 6.47508 -0.00229
C 20.8407 5.0016 -0.00938
C 19.62573 4.33465 -0.0264
C 18.41658 4.97898 -0.00178
C 18.42861 6.43179 0.00733
C 17.22249 7.19316 -0.02118
C 17.0969 8.50601 -0.01971
C 14.69542 8.52866 -0.01185
C 14.72014 7.05465 0.01126
C 15.98837 6.3502 0.01852
C 15.90775 4.90153 -0.00381
C 14.69769 4.19505 0.03046
C 14.73938 2.81087 0.0296
C 16.0404 2.2005 0.03374
C 16.04154 0.73043 -0.02845
C 19.54028 2.87707 -0.01154
C 14.79103 0.01039 -0.03213
C 18.4495 31.95449 0.01153
C 18.39768 30.56873 0.02734
C 17.12651 29.76527 -0.0055
C 17.17 28.32527 0.01515
C 18.47406 27.66772 -0.00225
C 18.59448 26.3527 0.00071
C 17.36258 25.59392 -0.01107
C 17.094 24.24809 -0.01586
C 17.18302 32.59013 0.02239
C 26.99236 8.42822 -0.01415
C 20.82184 2.12586 0.00684
C 19.69235 34.00298 -0.01679
C 25.93122 9.19569 0.02198
C 24.49398 8.67306 0.01094
C 24.44482 7.15428 0.00235
C 25.63907 6.41146 0.01495
C 25.69179 4.96392 0.01259
C 24.49387 4.27203 0.01799
C 24.51097 2.88073 0.01699
C 25.72888 2.11807 -0.00416
C 25.75573 0.69734 0.01177
C 24.49589 34.03572 0.04266
C 26.93279 32.72872 0.01324
C 28.20535 32.04898 0.0014
C 28.29024 30.56951 0.00924
C 27.10135 29.74082 0.02326
C 27.20684 28.23514 0.00261
C 28.47299 27.72281 0.03265
C 28.27543 10.56895 -0.02049
C 25.88106 27.57576 0.02611
C 24.6704 28.21359 -0.00621
C 24.61554 29.75813 0.00194
C 25.86763 30.40727 0.04185
C 22.17062 32.64437 0.00367
C 23.32915 31.88137 0.04306
C 23.3763 30.46677 0.00996
C 22.10271 29.75855 0.00195
C 22.06619 28.18885 -0.00802
C 23.31264 27.71708 -0.00218
C 23.29088 9.35385 -0.01654
C 22.05933 8.69548 -0.00037
C 20.81086 0.78063 -0.01052
C 22.03624 7.21342 -0.0032
C 23.186 5.06548 -0.02815
C 22.03379 4.29428 -0.00942
C 22.09007 2.90223 0.00487
C 23.28068 2.06864 0.00826
C 23.35402 0.6514 -0.00294
C 22.11391 0.02157 0.00152
C 24.50103 32.59293 0.01257
C 25.80328 31.87973 0.02316
C 23.21689 6.51416 0.00622
C 2.42876 32.68897 0.00873
