376
Graphene
C 34.32944 0.05359 0.01295
C 15.95474 0.71626 0.03542
C 14.76767 0.0207 0.02299
C 17.20323 32.65406 0.00244
C 18.40284 31.98756 -0.01717
C 18.43795 30.53525 0.05265
C 17.22325 29.84532 -0.01952
C 17.22904 28.4373 -0.02813
C 18.40005 27.59559 0.00374
C 18.47218 26.2243 0.00052
C 17.28694 25.52246 -0.03682
C 17.26422 24.08389 0.01965
C 18.51438 23.44488 0.02058
C 18.46383 22.06249 -0.01957
C 17.24266 21.30539 -0.0108
C 17.27285 19.85853 -0.00368
C 18.23331 19.00077 -0.02696
C 18.40889 17.66011 -0.00114
C 18.4361 14.81735 0.00228
C 18.38993 13.47544 0.00798
C 16.01324 2.16745 0.01416
C 14.77208 2.8563 0.01945
C 14.78837 4.29852 -0.01454
C 16.05177 4.98631 0.01241
C 12.29914 2.94258 -0.00428
C 13.48598 2.23508 0.03101
C 13.48479 0.835 -0.01536
C 12.30827 0.05381 -0.02689
C 14.67215 32.7012 -0.01046
C 15.97113 32.00111 -0.00891
C 16.00125 30.61631 0.02819
C 14.72017 29.89299 0.00165
C 14.71954 28.43691 -0.02971
C 17.33003 12.73875 0.00422
C 15.9638 27.69407 0.02894
C 14.79921 25.52649 0.00444
C 14.81087 24.04743 -0.00925
C 16.06482 23.38836 0.01877
C 16.16956 22.08523 0.01363
C 16.04073 10.56094 -0.02162
C 16.02212 9.15824 0.00415
C 14.78476 8.50997 -0.0014
C 14.7126 7.07677 0.02162
C 15.95152 6.43429 0.0076
C 15.95033 26.28095 -0.01789
C 12.22436 4.36125 -0.02245
C 16.98795 11.44598 0.0351
C 18.49371 9.27641 0.02098
C 19.60868 16.90238 -0.01979
C 19.61372 15.51899 0.02691
C 20.91734 14.88103 -0.01581
C 20.95869 13.41437 0.01452
C 19.72369 12.77777 0.04892
C 19.72329 11.39746 -0.00111
C 20.94411 10.62136 -0.03557
C 20.92968 9.27545 0.03754
C 19.66955 8.54452 0.01739
C 19.70255 7.1843 0.00755
C 20.91376 6.36215 -0.0054
C 20.91698 4.93386 0.00667
C 19.69616 4.23931 0.00143
C 19.62882 2.76336 -0.017
C 20.84847 2.07646 0.00364
C 20.8839 0.67037 -0.00831
C 19.68822 34.03154 -0.02957
C 22.08015 32.63075 -0.04422
C 23.26593 31.88205 0.00654
C 20.83614 17.73477 0.02188
C 20.86435 19.15675 -0.00316
C 19.55775 19.79719 -0.0331
C 19.70868 21.22464 -0.0258
C 17.27084 8.55052 0.01848
C 17.2446 7.12401 -0.00619
C 18.50914 6.40074 -0.02162
C 18.51845 4.96226 0.00889
C 17.23386 4.26675 -0.00481
C 17.18713 2.83793 0.00979
C 18.38124 2.12082 0.01443
C 18.48887 0.65572 0.03505
C 17.25296 34.07027 -0.02815
C 18.3481 10.73075 -0.03113
C 19.68928 32.63237 -0.04147
C 20.86057 30.5118 0.00213
C 19.64248 29.79407 -0.00066
C 19.52684 28.38514 -0.00289
C 20.78412 27.65026 0.00028
C 20.82782 26.19982 -0.02213
C 19.66069 25.4751 0.03698
C 19.76289 24.06208 -0.00109
C 20.93463 23.32255 -0.00491
C 20.9453 21.91454 0.03338
C 20.86571 31.96557 -0.05302
C 23.29765 30.45705 -0.00703
C 13.47569 5.00123 0.00985
C 12.10528 7.16123 -0.01111
C 3.70023 0.70205 0.0276
C 2.43983 0.05361 0.01305
C 4.87874 32.69833 -0.00077
C 6.07905 32.01914 0.03368
C 6.14893 30.59886 -0.02929
C 4.93078 29.88413 -0.00966
C 4.89685 28.4089 -0.03337
C 6.13611 27.72243 0.01227
C 6.15524 26.33143 0.00873
C 4.90387 25.5825 -0.00049
C 4.93905 24.04283 0.00848
C 6.12879 23.42757 -0.01303
C 5.04361 8.53162 -0.01378
C 4.94894 7.13555 0.02635
C 6.22605 6.54094 0.0127
C 6.18079 5.04083 0.01396
C 4.88837 4.29697 0.01849
C 4.93516 2.9005 -0.01142
C 6.16699 2.18965 -0.00562
C 3.72022 2.12434 0.00988
C 2.43037 2.83893 -0.01343
C 2.40465 4.26181 0.01087
C 3.68927 5.03277 -0.05697
C 3.63367 30.51388 0.02374
C 2.41701 29.84713 0.00402
C 2.39423 28.44689 0.0073
C 3.63613 27.70299 0.0174
C 3.64486 26.34413 0.03828
C 2.43737 25.56428 0.01226
C 2.48432 24.06759 -0.00279
C 3.6769 23.34212 0.01996
C 3.47406 22.01128 -0.03996
C 6.08597 0.7413 -0.00494
C 2.48619 21.182 0.01465
C 2.34973 17.1918 -0.00518
C 2.20464 15.86542 0.0086
C 2.39892 12.82858 -0.00643
C 2.65275 11.51396 0.017
C 3.59456 10.57356 -0.03113
C 3.82265 9.22661 -0.02566
C 2.49168 8.5569 -0.00094
C 2.46328 7.14715 0.02322
C 3.71547 6.4653 -0.00725
C 2.36014 19.81412 -0.00074
C 13.46401 6.40316 -0.01275
C 4.86159 0.02323 0.00054
C 8.58054 31.98329 -0.00095
C 10.96498 6.49403 0.01291
C 10.99002 5.06647 0.00093
C 9.83068 4.30899 0.00057
C 9.78678 2.88757 -0.01634
C 11.04006 2.14459 -0.00334
C 11.01507 0.65296 0.02339
C 9.83792 0.0357 0.01641
C 12.32125 32.72482 -0.00719
C 13.49629 31.94672 0.01364
C 13.51725 30.60976 -0.01062
C 12.22658 29.83585 -0.00033
C 12.32348 28.43405 0.03589
C 13.55448 27.69726 -0.02759
C 13.54431 26.32061 0.0402
C 12.28482 25.61237 0.00572
C 12.29106 24.26607 0.03592
C 13.52106 23.63468 0.00406
C 13.57736 9.10175 0.00943
C 12.41649 8.49514 0.02841
C 10.04261 24.256 0.00438
C 9.80234 25.65102 -0.00191
C 11.07659 26.34549 0.00373
C 11.05127 27.79769 0.02147
C 8.57865 30.59997 0.01572
C 7.32454 29.93373 -0.04848
C 7.30344 28.52252 -0.00892
C 8.63678 27.79347 -0.01362
C 8.59314 26.38323 -0.0008
C 7.34129 25.62436 0.0288
C 7.20367 24.30451 0.00393
C 7.49303 7.13909 0.00895
C 8.60669 6.3953 0.00685
C 7.32322 32.67039 0.03007
C 8.6093 4.98545 0.02888
C 7.39914 2.84352 -0.01384
C 8.58719 2.1492 0.03693
C 8.6298 0.70101 0.01745
C 7.37561 34.07702 0.00488
C 9.80443 32.63673 -0.01004
C 11.07045 31.96227 -0.02896
C 11.0731 30.53192 -0.00131
C 9.85182 29.88983 -0.01118
C 9.82877 28.52352 -0.014
C 7.33791 4.392 -0.00482
C 22.0435 29.78075 -0.04076
C 21.99911 28.39362 -0.00652
C 23.21804 27.65425 0.0058
C 30.69969 2.14222 0.00716
C 30.73634 0.77477 0.00307
C 29.53975 34.0718 0.00346
C 31.86639 32.74428 0.01713
C 33.13473 31.97773 -0.01694
C 33.23977 30.57551 0.01428
C 31.96416 29.78664 -0.02142
C 31.96045 28.43782 0.0544
C 33.19417 27.72711 0.00026
C 33.24129 26.27854 0.00682
C 32.007 25.60313 -0.01779
C 31.94109 24.16422 0.03794
C 33.16391 23.44968 0.01927
C 33.10359 22.02645 0.01574
C 31.92876 21.27052 -0.02383
C 31.95473 19.79934 -0.01429
C 33.09522 19.16656 -0.0136
C 33.19948 17.78133 0.00594
C 31.95818 17.01748 -0.02474
C 29.51877 2.92621 0.02108
C 29.51567 4.25623 0.0103
C 30.77967 4.89749 0.07705
C 30.75163 6.32887 0.01908
C 30.75614 27.6659 0.02326
C 30.79314 26.25387 0.00261
C 29.51459 25.49672 0.03265
C 29.51064 24.17327 -0.02049
C 30.73741 23.46127 -0.01854
C 30.64473 21.99511 -0.01415
C 29.42815 21.27878 -0.03039
C 29.46473 19.9252 0.01836
C 30.74574 19.11928 0.03531
C 31.89235 15.58255 0.00369
C 30.80235 17.72952 -0.00669
C 29.43948 15.60408 0.01705
C 30.6639 14.92434 -0.0405
C 30.69504 13.47792 -0.01303
C 29.47765 12.76452 -0.01461
C 29.5193 11.39423 -0.02155
C 30.78733 10.68194 -0.00944
C 30.77489 9.23157 -0.03735
C 29.54332 8.45471 -0.00971
C 29.52197 7.07601 0.01518
C 29.49178 17.02716 0.0101
C 29.45933 28.30952 0.00924
C 33.25431 14.95433 0.00455
C 31.90603 12.88527 -0.01839
C 34.30068 19.91108 0.01951
C 1.11469 19.24305 -0.01678
C 1.18386 17.84205 0.01223
C 0.08095 17.11649 0.00648
C 0.01272 15.66617 0.02114
C 1.30336 14.94911 -0.02957
C 1.21209 13.57897 0.00343
C 34.4085 12.84118 -0.02656
C 0.08801 11.40188 -0.02442
C 1.32714 10.69162 -0.00027
C 1.30672 9.29471 -0.00583
C 34.41886 8.55809 -0.02302
C 34.39074 7.11812 -0.02849
C 1.19012 6.38532 0.02931
C 1.23561 5.05483 0.00628
C 0.02513 4.28581 -0.0345
C 0.03138 2.85562 -0.00931
C 1.18896 2.11355 -0.00939
C 1.25398 0.72382 -0.00468
C 34.35249 21.31018 -0.02213
C 1.15617 21.97596 0.02712
C 1.24514 23.3641 0.00723
C 34.39909 24.12769 0.03076
C 32.02482 11.40866 0.00137
C 33.28666 10.70257 0.00199
C 33.20014 9.31316 0.04381
C 32.00182 8.51944 0.02806
C 31.94834 7.10632 0.01504
C 33.2087 6.39828 -0.00069
C 33.17249 4.96513 0.04926
C 31.96111 4.24245 -0.03838
C 31.93921 2.86515 0.00349
C 33.21537 13.51824 -0.00644
C 33.1921 2.15993 -0.00323
C 31.88515 0.03016 0.0001
C 34.36304 32.73121 -0.02927
C 1.19708 32.04676 -0.01404
C 1.22353 30.57582 0.01027
C 0.00537 29.87066 0.01831
C 34.38767 28.44707 -0.01037
C 1.16874 27.66674 -0.00439
C 1.19355 26.22254 -0.00598
C 34.41537 25.48642 -0.05239
C 33.1106 0.72599 -0.00841
C 29.53579 29.73094 0.0014
C 30.71683 30.48383 0.01324
C 30.73856 31.88403 0.04266
C 23.41981 0.67549 -0.02845
C 22.13533 34.07026 -0.03213
C 24.51409 32.57185 0.02239
C 25.79174 31.95251 0.01153
C 25.811 30.52727 0.02734
C 24.59432 29.84951 -0.0055
C 24.56445 28.35035 0.01515
C 25.8301 27.72073 -0.00225
C 25.7811 26.29611 0.00071
C 24.50703 25.54852 -0.01107
C 24.56882 24.14001 -0.01586
C 25.72833 23.44625 -0.01971
C 25.78068 21.97112 -0.02118
C 24.56421 21.26697 0.00733
C 24.61269 19.79342 -0.00178
C 25.78531 19.17873 0.00768
C 25.76348 17.7211 -0.0276
C 24.57872 16.99286 0.03005
C 24.58546 15.57892 -0.04078
C 23.3234 2.15475 0.03374
C 22.11063 2.77355 0.0296
C 22.13022 4.21701 0.03046
C 23.36162 4.95997 -0.00381
C 23.30222 26.21508 -0.00865
C 22.08438 25.50519 0.00675
C 22.08245 24.02835 -0.00311
C 23.35745 23.37991 0.00742
C 23.3461 21.96732 -0.01594
C 22.11441 21.23579 0.0106
C 22.11196 19.81436 -0.01154
C 23.3641 19.10066 -0.01721
C 23.27051 17.74571 -0.02422
C 25.81446 14.98169 0.02117
C 22.06677 17.03333 0.01277
C 23.33004 14.8867 -0.01527
C 23.35343 13.41821 0.01087
C 22.20869 12.74771 0.00199
C 22.16219 11.36353 0.01511
C 23.37926 10.66069 -0.00478
C 23.39663 9.26468 -0.01662
C 22.12147 8.53337 -0.01185
C 22.14168 7.10577 0.01126
C 23.30628 6.38979 0.01852
C 22.08493 15.58478 0.00096
C 25.83008 13.52362 0.02737
C 24.66001 12.73397 -0.00498
C 24.63185 11.31401 0.00135
C 28.24366 19.24922 -0.00942
C 28.27709 17.76068 0.00487
C 26.97997 17.05804 0.00826
C 26.99566 15.66454 -0.00294
C 28.19648 14.95813 0.00152
C 28.28919 13.52385 0.01257
C 27.0855 12.76029 0.02316
C 27.07209 11.33523 0.04185
C 28.26753 10.57616 0.00194
C 27.06785 19.84159 -0.02815
C 28.34915 9.20122 -0.00621
C 27.03278 7.02501 0.02198
C 28.23907 6.35352 0.01094
C 28.22673 4.96759 0.00235
C 27.03936 4.26695 0.01495
C 27.00595 2.78594 0.01259
C 28.29038 2.19301 0.01799
C 28.21829 0.71934 0.01699
C 27.11596 34.06878 -0.00416
C 29.44483 32.64372 0.01177
C 27.07678 8.51384 0.02611
C 3.73827 31.8888 0.03267
C 27.03842 21.2896 0.00622
C 28.25929 23.45616 -0.00037
C 25.84742 10.61661 0.03102
C 25.7924 9.20855 0.02555
C 24.64887 8.53063 0.01423
C 24.58329 7.06876 -0.00285
C 25.82123 6.39763 -0.009
C 25.82385 5.00453 -0.01199
C 24.56459 4.20184 -0.00229
C 24.60749 2.78257 -0.00938
C 25.7756 2.02049 -0.0264
C 28.2055 22.03592 -0.0032
C 25.82824 0.6701 -0.01154
C 26.99228 32.6688 -0.01052
C 28.26878 31.9326 -0.01679
C 28.33285 30.48704 0.00367
C 27.07259 29.77303 0.04306
C 27.07202 28.4071 0.00996
C 28.30815 27.64911 0.00195
C 28.27952 26.20542 -0.00802
C 27.02358 25.48525 -0.00218
C 27.00666 24.07618 -0.01654
C 24.56194 33.94063 0.00684
C 2.38563 32.66209 -0.01509
