314
Graphene
C 34.39442 0.04098 0.01295
C 11.09386 27.64303 -0.0258
C 11.12523 26.2587 -0.0331
C 9.85119 25.61234 -0.00316
C 9.82779 24.14534 0.02188
C 11.02273 23.40051 -0.01979
C 10.98493 22.04696 0.02691
C 9.88996 21.14303 -0.01581
C 9.9078 19.67103 0.01452
C 10.55325 18.28702 0.04892
C 9.93282 17.2935 -0.00111
C 9.92602 15.82628 -0.03557
C 11.10751 15.00966 0.03754
C 11.14038 13.55977 0.01739
C 9.86785 12.81 0.00755
C 9.96126 11.44612 -0.0054
C 9.77047 28.41632 0.03338
C 9.77817 29.81753 -0.00491
C 11.039 30.50278 -0.00109
C 11.01096 31.96693 0.03698
C 8.73751 15.052 0.01848
C 8.6422 13.64921 -0.00619
C 7.33978 12.80457 -0.02162
C 7.40988 11.40251 0.00889
C 8.64469 10.66216 -0.00481
C 8.60023 9.22674 0.00979
C 7.39716 8.58007 0.01443
C 11.12431 10.7114 0.00667
C 7.34563 7.11521 0.03505
C 8.65467 4.95596 -0.04147
C 7.34583 4.28047 -0.05302
C 7.36872 2.81594 0.00213
C 8.65705 2.10247 -0.00066
C 8.59332 0.6106 -0.00289
C 7.35562 34.04542 0.00028
C 9.76327 32.63743 -0.02213
C 8.61821 6.39918 -0.02815
C 7.39082 15.60451 0.02098
C 11.06637 9.27622 0.00143
C 9.81924 7.17792 0.00364
C 13.52373 9.17606 0.01087
C 12.24938 8.49744 0.00199
C 12.24358 7.08758 0.01511
C 13.58278 6.41645 -0.00478
C 13.53531 4.99643 -0.01662
C 12.26165 4.28646 -0.01185
C 12.35636 2.81027 0.01126
C 13.52734 2.14727 0.01852
C 13.49325 0.7081 -0.00381
C 12.23844 0.00985 0.03046
C 14.72708 32.70504 0.0296
C 15.96367 32.09109 0.03374
C 15.96025 30.57216 -0.02845
C 14.76708 29.84514 -0.03213
C 14.72637 28.50551 0.02239
C 13.70688 10.52106 -0.01527
C 12.45916 11.37678 0.00096
C 12.32605 12.73017 0.01277
C 13.63493 23.59225 -0.02422
C 11.07206 6.44303 -0.00831
C 11.08738 4.97629 -0.02957
C 9.87465 4.25565 -0.04422
C 9.8492 2.8343 0.00654
C 11.0778 2.11549 -0.00703
C 11.01865 0.72596 -0.04076
C 9.82561 34.07712 -0.00652
C 9.79723 8.55704 -0.017
C 12.19478 32.70071 0.0058
C 13.53127 30.48998 0.00675
C 12.32913 29.82212 -0.00311
C 12.25931 28.38839 0.00742
C 13.56568 27.72847 -0.01594
C 13.56748 26.34249 0.0106
C 12.39419 25.52827 -0.01154
C 12.20408 24.0792 -0.01721
C 13.54778 31.91205 -0.00865
C 7.30902 17.00354 -0.03113
C 8.50505 17.74326 0.0351
C 8.55704 19.1814 0.00422
C 3.62163 9.1835 0.03589
C 2.4238 8.54639 -0.02759
C 2.45919 7.11553 0.0402
C 3.70829 6.34685 0.00572
C 3.67162 4.9482 0.03592
C 2.47566 4.23942 0.00406
C 2.47533 2.78942 0.00943
C 3.69603 2.11965 0.02841
C 3.67327 0.70347 -0.01111
C 2.39766 0.04882 -0.01275
C 4.92051 32.6859 0.00985
C 6.10815 31.94961 -0.02245
C 6.1491 30.55054 -0.00428
C 4.87851 29.8356 0.03101
C 4.90396 28.38055 -0.01536
C 3.63282 10.66057 -0.00033
C 2.34487 11.40992 -0.01062
C 2.40784 12.73911 0.01364
C 3.63674 13.52296 -0.00719
C 3.63347 30.49639 -0.01004
C 2.43055 29.82597 -0.02896
C 2.43144 28.36836 -0.00131
C 3.64519 27.69793 -0.01118
C 3.63642 26.26392 -0.014
C 2.46141 25.54711 0.02147
C 2.46406 24.15156 0.00373
C 6.10337 27.7323 -0.02689
C 3.71794 23.37538 -0.00191
C 2.43129 21.287 0.01291
C 2.39662 19.8549 0.00093
C 3.62457 19.14952 0.00057
C 3.63797 17.79392 -0.01634
C 2.49316 17.0456 -0.00334
C 2.36594 15.60435 0.02339
C 3.6198 14.94262 0.01641
C 3.67386 22.0135 0.00438
C 6.10626 26.22353 -0.01046
C 4.91304 25.53593 -0.00891
C 4.88594 24.1213 0.02819
C 6.09344 2.20432 -0.01717
C 6.16175 0.76364 0.05265
C 4.84868 0.02483 -0.01952
C 7.36033 32.5945 -0.02813
C 8.55264 31.88698 0.00374
C 8.53624 30.52918 0.00052
C 7.33779 29.81405 -0.03682
C 4.87045 2.8876 0.00244
C 7.37683 28.31355 0.01965
C 8.63453 26.23123 -0.01957
C 7.29114 25.52629 -0.0108
C 7.41239 24.16258 -0.00368
C 8.62347 23.36804 -0.02696
C 8.65836 21.93234 -0.00114
C 7.41671 21.34111 0.00228
C 7.38451 19.82862 0.00798
C 8.61723 27.64216 0.02058
C 15.94389 27.76531 0.01153
C 4.92244 4.26761 0.02299
C 6.11755 6.43423 0.01416
C 6.12501 23.39257 0.00165
C 6.13741 22.00238 -0.02971
C 4.94673 21.31714 0.02894
C 4.85314 19.86164 -0.01789
C 6.12842 19.17777 0.00444
C 6.08759 17.78354 -0.00925
C 4.84854 17.07011 0.01877
C 6.11646 4.99853 0.03542
C 4.89796 15.6661 0.01363
C 6.10565 13.58323 0.00415
C 4.88173 12.79266 -0.0014
C 4.82301 11.4111 0.02162
C 6.06404 10.68773 0.0076
C 6.12326 9.21471 0.01241
C 4.94442 8.49602 -0.01454
C 4.94631 7.11075 0.01945
C 6.06004 14.94782 -0.02162
C 16.01008 26.33492 0.02734
C 14.77024 25.73012 -0.0055
C 14.61052 24.22802 0.01515
C 31.89971 32.71463 0.03794
C 33.13779 31.95819 0.01927
C 33.13173 30.52815 0.01574
C 31.93473 29.84214 -0.02383
C 31.96451 28.39496 -0.01429
C 33.183 27.71658 -0.0136
C 33.21954 26.26163 0.00594
C 31.92922 25.67358 -0.02474
C 31.96466 24.21959 0.00369
C 33.15952 23.4169 0.00455
C 33.15984 22.0566 -0.00644
C 31.86815 21.34284 -0.01839
C 31.86978 19.84794 0.00137
C 33.10431 19.25114 0.00199
C 33.21056 17.84577 0.04381
C 29.50575 0.03091 -0.01779
C 30.6627 0.8163 0.00682
C 30.72593 2.18712 0.00026
C 29.4512 2.83588 0.0544
C 27.0011 34.01944 -0.02155
C 29.50364 32.69715 -0.00944
C 30.65039 31.96617 -0.03735
C 30.66876 30.47601 -0.00971
C 29.52662 29.74832 0.01518
C 29.49302 28.40452 0.01908
C 30.72149 27.73158 0.07705
C 31.89187 17.1616 0.02806
C 30.69266 26.27777 0.0103
C 29.49322 24.12931 0.00716
C 30.72103 23.49457 0.00307
C 30.68463 22.06522 0.00346
C 29.37489 21.2426 0.01713
C 29.41832 19.77015 -0.01694
C 30.68052 19.1101 0.01428
C 30.79965 17.71149 -0.02142
C 29.47581 25.58701 0.02108
C 33.08537 15.04271 0.01504
C 33.37427 6.43779 -0.00069
C 33.05789 5.07442 0.04926
C 0.00085 17.03252 0.00648
C 34.36852 15.6559 0.02114
C 1.16075 14.94465 -0.02957
C 1.18742 13.59274 0.00343
C 34.43208 12.76086 -0.02656
C 0.09615 11.55312 -0.02442
C 1.15981 10.65606 -0.00027
C 1.16094 17.80955 0.01223
C 1.19766 9.25795 -0.00583
C 34.39834 7.23558 -0.02849
C 1.20691 6.46682 0.02931
C 1.17654 5.0249 0.00628
C 34.36933 4.31595 -0.0345
C 34.38995 2.92312 -0.00931
C 1.22695 2.16716 -0.00939
C 1.18599 0.73544 -0.00468
C 0.03086 8.59403 -0.02302
C 28.2321 0.65738 -0.01461
C 1.14479 19.19665 -0.01678
C 34.39746 21.35932 -0.02213
C 31.97969 4.2312 -0.03838
C 31.94449 2.87712 0.00349
C 33.1637 2.14195 -0.00323
C 33.1187 0.76324 -0.00841
C 31.90908 0.0473 0.0001
C 34.35564 32.64409 -0.02927
C 1.17962 31.9461 -0.01404
C 34.34773 19.99971 0.01951
C 1.17946 30.5102 0.01027
C 34.38098 28.45291 -0.01037
C 1.2189 27.68273 -0.00439
C 1.30786 26.26457 -0.00598
C 0.01996 25.59767 -0.05239
C 34.39157 24.12369 0.03076
C 1.19251 23.39201 0.00723
C 1.19087 22.03839 0.02712
C 34.4058 29.82597 0.01831
C 3.62093 31.9072 0.00488
C 28.51093 2.10685 -0.01303
C 27.16699 19.85389 0.01705
C 18.37175 5.30046 -0.009
C 17.28937 4.40341 -0.01199
C 17.1533 2.99552 -0.00229
C 18.32925 2.1888 -0.00938
C 18.34678 0.76233 -0.0264
C 17.19317 0.07664 -0.01154
C 19.66587 32.76756 0.00684
C 20.88122 32.00036 -0.01052
C 20.90944 30.56246 -0.01679
C 19.67793 29.80247 0.00367
C 19.64302 28.37835 0.04306
C 20.83014 27.60675 0.00996
C 20.78652 26.19347 0.00195
C 19.56467 25.65474 -0.00802
C 19.55975 2.84873 -0.00218
C 17.35718 6.88903 -0.00285
C 17.29795 8.43017 0.01423
C 17.083 25.58339 0.02555
C 18.36668 26.09688 0.03102
C 16.09523 8.89372 -0.00225
C 14.712 8.53147 0.00071
C 14.78754 7.07417 -0.01107
C 16.00945 6.4467 -0.01586
C 16.01009 5.05206 -0.01971
C 14.74514 4.33142 -0.02118
C 14.80058 2.87467 0.00733
C 20.66934 2.23985 -0.01654
C 15.98989 2.20378 -0.00178
C 14.75507 0.10373 -0.0276
C 17.25298 32.72472 0.03005
C 18.46208 32.024 -0.04078
C 18.4451 30.58861 0.02117
C 17.19728 29.86223 0.02737
C 17.17523 28.39347 -0.00498
C 18.36152 27.60146 0.00135
C 15.95287 0.77181 0.00768
C 20.85597 0.74076 -0.00037
C 19.64813 0.1023 -0.0032
C 22.12746 32.61788 0.00622
C 25.84088 23.35446 0.01177
C 25.62666 22.02108 0.04266
C 25.83663 0.67368 0.01324
C 24.59265 0.1585 0.0014
C 26.96117 32.62901 0.00924
C 28.2716 32.01629 0.02326
C 28.22336 30.55861 0.00261
C 24.64105 24.09048 -0.00416
C 27.04353 29.79033 0.03265
C 28.19634 27.61641 -0.01854
C 28.19044 26.23959 -0.01415
C 27.01871 25.50293 -0.03039
C 27.04481 24.04969 0.01836
C 28.23579 23.41308 0.03531
C 28.20958 21.95 -0.00669
C 26.88466 21.33248 0.0101
C 26.99454 28.32844 -0.02049
C 28.08792 19.18797 -0.0405
C 24.52919 25.43093 0.01699
C 25.72357 27.58928 0.01259
C 23.42105 31.99791 -0.02815
C 23.33783 30.54714 -0.00942
C 22.09501 29.79975 0.00487
C 22.10474 28.34343 0.00826
C 23.32524 27.579 -0.00294
C 23.24688 26.14953 0.00152
C 22.00754 25.52088 0.01257
C 25.71168 26.19637 0.01799
C 22.32108 24.0746 0.02316
C 23.35879 0.71662 0.00194
C 22.05261 0.00795 -0.00621
C 24.60244 32.80108 0.02611
C 25.76811 31.96167 0.02198
C 25.77074 30.48941 0.01094
C 24.55365 29.74173 0.00235
C 24.55708 28.30517 0.01495
C 23.29579 23.43813 0.04185
C 2.40784 32.6646 0.01745
