376
Graphene
C 34.41769 0.01402 0.01295
C 15.98432 0.75519 0.03542
C 14.67795 0.06098 0.02299
C 17.15536 32.69906 0.00244
C 18.40625 31.91521 -0.01717
C 18.35374 30.51854 0.05265
C 17.10027 29.83634 -0.01952
C 17.14874 28.38882 -0.02813
C 18.39153 27.7579 0.00374
C 18.41481 26.28683 0.00052
C 17.14107 25.57348 -0.03682
C 17.2631 24.19641 0.01965
C 18.45902 23.38204 0.02058
C 18.52293 21.9254 -0.01957
C 17.24558 21.22695 -0.0108
C 17.15928 19.86984 -0.00368
C 18.32908 18.97057 -0.02696
C 18.37318 17.51098 -0.00114
C 18.45831 14.99621 0.00228
C 18.49413 13.52536 0.00798
C 15.96903 2.1384 0.01416
C 14.78044 2.94626 0.01945
C 14.74174 4.37397 -0.01454
C 15.9901 5.00386 0.01241
C 12.17061 2.85828 -0.00428
C 13.55402 2.18724 0.03101
C 13.50641 0.7301 -0.01536
C 12.23394 0.0592 -0.02689
C 14.75357 32.73022 -0.01046
C 15.90988 31.99999 -0.00891
C 15.88269 30.53831 0.02819
C 14.74513 29.80614 0.00165
C 14.81156 28.39485 -0.02971
C 17.30641 12.71587 0.00422
C 16.00415 27.65246 0.02894
C 14.69846 25.61231 0.00444
C 14.7611 24.23095 -0.00925
C 15.99485 23.42862 0.01877
C 15.96431 21.96389 0.01363
C 15.89111 10.55294 -0.02162
C 16.09193 9.18537 0.00415
C 14.85067 8.48052 -0.0014
C 14.75847 7.12787 0.02162
C 16.06144 6.38483 0.0076
C 16.00754 26.23648 -0.01789
C 12.22349 4.30702 -0.02245
C 17.03556 11.37738 0.0351
C 18.40484 9.29159 0.02098
C 19.61471 16.96269 -0.01979
C 19.70565 15.54321 0.02691
C 20.86333 14.81237 -0.01581
C 20.92851 13.44903 0.01452
C 19.70219 12.77966 0.04892
C 19.60538 11.3488 -0.00111
C 20.91112 10.71389 -0.03557
C 20.90667 9.24344 0.03754
C 19.68518 8.56465 0.01739
C 19.6762 7.07127 0.00755
C 20.88448 6.42835 -0.0054
C 20.87032 4.98386 0.00667
C 19.66493 4.21688 0.00143
C 19.71878 2.8384 -0.017
C 20.90805 2.0948 0.00364
C 20.90587 0.67837 -0.00831
C 19.63192 0.00982 -0.02957
C 22.11287 32.58563 -0.04422
C 23.35428 31.86132 0.00654
C 20.81728 17.58452 0.02188
C 20.80711 18.9561 -0.00316
C 19.61897 19.67566 -0.0331
C 19.599 21.16243 -0.0258
C 17.29296 8.48694 0.01848
C 17.2588 7.09543 -0.00619
C 18.43213 6.38011 -0.02162
C 18.43134 4.95224 0.00889
C 17.25287 4.26616 -0.00481
C 17.25862 2.85305 0.00979
C 18.48768 2.1114 0.01443
C 18.4065 0.75478 0.03505
C 17.16539 0.04144 -0.02815
C 18.40924 10.67408 -0.03113
C 19.58257 32.64237 -0.04147
C 20.83899 30.47625 0.00213
C 19.59847 29.79608 -0.00066
C 19.6723 28.37261 -0.00289
C 20.81123 27.58599 0.00028
C 20.88461 26.19785 -0.02213
C 19.65339 25.50539 0.03698
C 19.69168 24.08379 -0.00109
C 20.91708 23.35038 -0.00491
C 20.85994 21.88269 0.03338
C 20.84148 31.86267 -0.05302
C 23.32759 30.45675 -0.00703
C 13.45803 5.07856 0.00985
C 12.05766 7.16693 -0.01111
C 3.61436 0.75241 0.0276
C 2.39792 0.00242 0.01305
C 4.88784 32.67101 -0.00077
C 6.15259 31.9985 0.03368
C 6.01489 30.59556 -0.02929
C 4.78286 29.85682 -0.00966
C 4.88089 28.49237 -0.03337
C 6.11939 27.7891 0.01227
C 6.05522 26.32248 0.00873
C 4.85784 25.48473 -0.00049
C 4.84261 24.1045 0.00848
C 6.19093 23.57999 -0.01303
C 5.06596 8.56796 -0.01378
C 5.0186 7.19028 0.02635
C 6.24054 6.40774 0.0127
C 6.16094 5.07534 0.01396
C 4.94134 4.39746 0.01849
C 4.92905 2.9353 -0.01142
C 6.14093 2.19922 -0.00562
C 3.64408 2.182 0.00988
C 2.45047 2.86936 -0.01343
C 2.46211 4.37007 0.01087
C 3.66024 5.03403 -0.05697
C 3.59365 30.58276 0.02374
C 2.36151 29.8639 0.00402
C 2.4453 28.40078 0.0073
C 3.68385 27.71238 0.0174
C 3.65644 26.16387 0.03828
C 2.40428 25.5045 0.01226
C 2.38332 24.16273 -0.00279
C 3.61352 23.41995 0.01996
C 3.57076 22.06888 -0.03996
C 6.15171 0.78655 -0.00494
C 2.48695 21.19542 0.01465
C 2.39618 17.20243 -0.00518
C 2.30858 15.93503 0.0086
C 2.4944 12.95281 -0.00643
C 2.56295 11.49757 0.017
C 3.68282 10.65012 -0.03113
C 3.79201 9.25674 -0.02566
C 2.52449 8.5112 -0.00094
C 2.48435 7.12538 0.02322
C 3.70103 6.4169 -0.00725
C 2.31422 19.84727 -0.00074
C 13.37238 6.5141 -0.01275
C 4.91995 0.01804 0.00054
C 8.54298 32.07138 -0.00095
C 10.63555 6.37937 0.01291
C 10.97595 5.04024 0.00093
C 9.79334 4.24943 0.00057
C 9.78849 2.87466 -0.01634
C 10.97515 2.20281 -0.00334
C 11.10817 0.8648 0.02339
C 9.8219 0.0415 0.01641
C 12.23557 32.72455 -0.00719
C 13.51985 32.06802 0.01364
C 13.53686 30.56651 -0.01062
C 12.42297 29.86343 -0.00033
C 12.29973 28.43886 0.03589
C 13.52285 27.76374 -0.02759
C 13.53172 26.29499 0.0402
C 12.30529 25.73925 0.00572
C 12.30262 24.24454 0.03592
C 13.39289 23.65468 0.00406
C 13.59499 9.17966 0.00943
C 12.41911 8.50984 0.02841
C 10.12104 24.28454 0.00438
C 9.94989 25.63148 -0.00191
C 11.09784 26.45608 0.00373
C 11.04299 27.7809 0.02147
C 8.57085 30.60021 0.01572
C 7.33805 29.85534 -0.04848
C 7.37149 28.42376 -0.00892
C 8.53238 27.7384 -0.01362
C 8.60801 26.34002 -0.0008
C 7.41585 25.69633 0.0288
C 7.19788 24.30921 0.00393
C 7.52204 7.14331 0.00895
C 8.71939 6.44606 0.00685
C 7.34303 32.78173 0.03007
C 8.64194 5.04095 0.02888
C 7.37184 2.95417 -0.01384
C 8.57966 2.16108 0.03693
C 8.57447 0.77922 0.01745
C 7.33626 0.10533 0.00488
C 9.82987 32.78416 -0.01004
C 11.04902 32.03679 -0.02896
C 11.10971 30.62216 -0.00131
C 9.79917 29.90072 -0.01118
C 9.77294 28.4346 -0.014
C 7.44142 4.27385 -0.00482
C 22.07242 29.71872 -0.04076
C 22.02846 28.27596 -0.00652
C 23.30261 27.66036 0.0058
C 30.75855 2.17275 0.00716
C 30.6885 0.71614 0.00307
C 29.45147 0.04889 0.00346
C 31.959 32.63968 0.01713
C 33.12096 32.00394 -0.01694
C 33.14302 30.57946 0.01428
C 31.9948 29.8604 -0.02142
C 31.95721 28.35944 0.0544
C 33.18061 27.67811 0.00026
C 33.19972 26.24873 0.00682
C 31.95773 25.51427 -0.01779
C 31.91088 24.11589 0.03794
C 33.14903 23.41215 0.01927
C 33.10494 22.00279 0.01574
C 31.83162 21.28027 -0.02383
C 31.84775 19.9036 -0.01429
C 33.1451 19.13676 -0.0136
C 33.12289 17.71192 0.00594
C 31.92104 17.07997 -0.02474
C 29.45948 2.77034 0.02108
C 29.45998 4.27825 0.0103
C 30.66269 5.04404 0.07705
C 30.76472 6.43191 0.01908
C 30.72986 27.68128 0.02326
C 30.70613 26.26206 0.00261
C 29.49161 25.63345 0.03265
C 29.44578 24.151 -0.02049
C 30.62157 23.40259 -0.01854
C 30.66387 22.02687 -0.01415
C 29.45731 21.32623 -0.03039
C 29.49689 19.85667 0.01836
C 30.64509 19.19198 0.03531
C 31.94766 15.69024 0.00369
C 30.63097 17.77582 -0.00669
C 29.47628 15.65813 0.01705
C 30.69832 14.9187 -0.0405
C 30.71882 13.51899 -0.01303
C 29.48437 12.81419 -0.01461
C 29.50349 11.33235 -0.02155
C 30.73705 10.66828 -0.00944
C 30.75617 9.2423 -0.03735
C 29.50316 8.53993 -0.00971
C 29.50446 7.05986 0.01518
C 29.46127 17.08593 0.0101
C 29.54842 28.41281 0.00924
C 33.10491 14.99439 0.00455
C 32.04307 12.7768 -0.01839
C 34.26769 19.925 0.01951
C 1.06725 19.30103 -0.01678
C 1.08457 17.89649 0.01223
C 34.27544 17.05542 0.00648
C 34.40674 15.66417 0.02114
C 1.15815 15.00244 -0.02957
C 1.27411 13.48626 0.00343
C 0.04134 12.8378 -0.02656
C 0.05974 11.43445 -0.02442
C 1.332 10.81448 -0.00027
C 1.31936 9.31712 -0.00583
C 0.11092 8.59534 -0.02302
C 0.03587 7.17963 -0.02849
C 1.23604 6.5265 0.02931
C 1.23822 5.03079 0.00628
C 0.01058 4.32773 -0.0345
C 34.34312 2.91881 -0.00931
C 1.17741 2.20222 -0.00939
C 1.10857 0.75798 -0.00468
C 34.32393 21.31415 -0.02213
C 1.22493 21.94271 0.02712
C 1.22048 23.38628 0.00723
C 0.02248 24.0649 0.03076
C 32.00662 11.38521 0.00137
C 33.24289 10.70138 0.00199
C 33.29569 9.24527 0.04381
C 32.02121 8.56576 0.02806
C 32.0596 7.11296 0.01504
C 33.22425 6.36357 -0.00069
C 33.24873 4.96898 0.04926
C 31.95875 4.29896 -0.03838
C 31.96834 2.84221 0.00349
C 33.20052 13.58377 -0.00644
C 33.13517 2.13242 -0.00323
C 31.93652 34.07717 0.0001
C 34.36046 32.68635 -0.02927
C 1.13527 31.97443 -0.01404
C 1.1359 30.61248 0.01027
C 34.36688 29.87337 0.01831
C 34.41147 28.43868 -0.01037
C 1.21108 27.73857 -0.00439
C 1.22633 26.30937 -0.00598
C 0.02703 25.57086 -0.05239
C 33.19351 0.72236 -0.00841
C 29.46726 29.84393 0.0014
C 30.76908 30.54539 0.01324
C 30.6757 31.99703 0.04266
C 23.27054 0.62765 -0.02845
C 22.07973 33.99848 -0.03213
C 24.59303 32.60798 0.02239
C 25.79375 31.8533 0.01153
C 25.80929 30.46267 0.02734
C 24.51433 29.73892 -0.0055
C 24.4761 28.39777 0.01515
C 25.70446 27.62747 -0.00225
C 25.76248 26.20121 0.00071
C 24.54612 25.5538 -0.01107
C 24.49424 24.12893 -0.01586
C 25.79591 23.37709 -0.01971
C 25.77635 22.01861 -0.02118
C 24.58065 21.25435 0.00733
C 24.47792 19.89293 -0.00178
C 25.76817 19.0978 0.00768
C 25.78681 17.71025 -0.0276
C 24.53291 17.03177 0.03005
C 24.5613 15.62369 -0.04078
C 23.37212 2.0116 0.03374
C 22.1 2.79998 0.0296
C 22.07256 4.21569 0.03046
C 23.33246 4.8708 -0.00381
C 23.30723 26.26216 -0.00865
C 22.10023 25.50872 0.00675
C 22.16434 24.13449 -0.00311
C 23.30204 23.39727 0.00742
C 23.31904 21.95671 -0.01594
C 22.13991 21.2084 0.0106
C 22.06407 19.79605 -0.01154
C 23.28934 19.13952 -0.01721
C 23.34292 17.66382 -0.02422
C 25.81437 14.80591 0.02117
C 22.08322 16.94313 0.01277
C 23.32235 14.94593 -0.01527
C 23.40295 13.55492 0.01087
C 22.1483 12.76935 0.00199
C 22.19828 11.31834 0.01511
C 23.43401 10.58521 -0.00478
C 23.37108 9.18254 -0.01662
C 22.15442 8.53599 -0.01185
C 22.13636 7.12019 0.01126
C 23.4051 6.33571 0.01852
C 22.07498 15.5938 0.00096
C 25.79965 13.3927 0.02737
C 24.53789 12.74252 -0.00498
C 24.62652 11.30996 0.00135
C 28.26921 19.14307 -0.00942
C 28.23206 17.79506 0.00487
C 27.06502 17.06648 0.00826
C 27.06906 15.58799 -0.00294
C 28.29301 14.89016 0.00152
C 28.22193 13.46404 0.01257
C 27.02767 12.75829 0.02316
C 27.09862 11.35577 0.04185
C 28.32573 10.65194 0.00194
C 26.92689 19.88053 -0.02815
C 28.25424 9.1807 -0.00621
C 27.00576 7.11316 0.02198
C 28.26793 6.38673 0.01094
C 28.25571 4.95633 0.00235
C 27.04653 4.20561 0.01495
C 26.98307 2.84094 0.01259
C 28.20451 2.08826 0.01799
C 28.26332 0.72598 0.01699
C 26.95661 33.99477 -0.00416
C 29.51118 32.67735 0.01177
C 27.06658 8.4569 0.02611
C 3.59004 32.05222 0.03267
C 26.97879 21.28722 0.00622
C 28.26593 23.39856 -0.00037
C 25.91425 10.63474 0.03102
C 25.96034 9.24282 0.02555
C 24.617 8.52874 0.01423
C 24.57985 7.13226 -0.00285
C 25.78077 6.32457 -0.009
C 25.80032 4.89474 -0.01199
C 24.63524 4.24762 -0.00229
C 24.54419 2.81422 -0.00938
C 25.8028 2.11838 -0.0264
C 28.2689 21.99552 -0.0032
C 25.73136 0.62119 -0.01154
C 27.05848 32.59469 -0.01052
C 28.23491 31.90788 -0.01679
C 28.18524 30.49909 0.00367
C 26.9837 29.74954 0.04306
C 26.99919 28.27551 0.00996
C 28.22167 27.6138 0.00195
C 28.21892 26.23622 -0.00802
C 26.9879 25.52071 -0.00218
C 27.02089 24.10034 -0.01654
C 24.56183 34.07635 0.00684
C 2.47421 32.70938 -0.01509
