326
Graphene
C 0.02199 34.06234 0.01295
C 17.19448 28.40591 0.00213
C 18.43028 27.69285 -0.00066
C 18.50519 26.27003 -0.00289
C 17.19902 25.65789 0.00028
C 17.19421 24.25243 -0.02213
C 18.38159 23.55904 0.03698
C 18.41579 10.78599 -0.00109
C 17.225 29.75916 -0.05302
C 18.32381 9.28435 -0.00491
C 17.27128 7.03054 -0.0258
C 18.51827 6.31774 -0.0331
C 18.42807 4.87023 -0.00316
C 17.23253 4.15254 0.02188
C 17.22898 2.8405 -0.01979
C 18.46158 2.10696 0.02691
C 18.46952 0.70439 -0.01581
C 17.33488 8.38571 0.03338
C 17.19419 34.07695 0.01452
C 18.43784 30.48728 -0.04147
C 17.11756 32.71749 0.03505
C 14.70157 29.81017 -0.00368
C 14.69558 28.43393 -0.02696
C 15.9158 27.69463 -0.00114
C 15.91644 26.31324 0.00228
C 14.69267 25.64008 0.00798
C 14.71989 24.18421 0.00422
C 15.90109 23.53957 0.0351
C 18.40837 31.97105 -0.02815
C 15.94726 22.12894 -0.03113
C 16.04924 6.34636 0.01848
C 15.89462 4.88289 -0.00619
C 14.71953 4.10066 -0.02162
C 14.79296 2.71144 0.00889
C 16.0752 2.10577 -0.00481
C 16.0119 0.66233 0.00979
C 14.73928 34.03777 0.01443
C 14.73624 21.59893 0.02098
C 19.63084 32.60703 0.04892
C 20.85354 31.89863 -0.00111
C 20.90361 30.60334 -0.03557
C 23.35667 31.97752 0.0106
C 23.34503 30.51038 -0.01154
C 22.12464 29.88382 -0.01721
C 22.15979 28.38193 -0.02422
C 23.35442 27.58022 0.01277
C 23.37918 26.18999 0.00096
C 22.13812 25.67948 -0.01527
C 22.09651 32.6453 -0.01594
C 22.13991 24.2041 0.01087
C 23.24581 22.00586 0.01511
C 23.24361 14.86088 -0.00478
C 23.04274 13.46844 -0.01662
C 21.73428 12.71584 -0.01185
C 21.95491 11.40917 0.01126
C 23.2832 10.66633 0.01852
C 23.32339 9.29594 -0.00381
C 23.36136 23.40223 0.00199
C 19.67881 34.01983 0.00742
C 20.88944 0.70345 -0.00311
C 20.93094 2.08691 0.00675
C 19.69209 29.83364 0.03754
C 19.58217 28.41733 0.01739
C 20.87187 27.6323 0.00755
C 20.84288 26.24781 -0.0054
C 19.69499 25.53298 0.00667
C 19.63475 24.02536 0.00143
C 21.02754 23.49013 -0.017
C 19.86244 12.85653 0.00364
C 19.65442 11.46037 -0.00831
C 20.80839 10.68139 -0.02957
C 20.80149 9.2488 -0.04422
C 19.5963 8.50948 0.00654
C 19.65181 7.13338 -0.00703
C 20.88491 6.40176 -0.04076
C 20.88684 4.92692 -0.00652
C 19.64946 4.21058 0.0058
C 19.67797 2.78544 -0.00865
C 15.92501 30.58895 -0.0108
C 15.94229 32.02881 -0.01957
C 14.74317 32.68636 0.02058
C 12.30293 0.10455 0.01965
C 6.07875 23.58854 0.01291
C 6.09544 22.18272 0.00093
C 4.87139 21.39171 0.00057
C 4.87718 19.93524 -0.01634
C 4.70263 2.83163 -0.00334
C 6.08488 2.24923 0.02339
C 6.14763 0.84355 0.01641
C 4.77392 24.23274 0.00438
C 5.01164 0.01737 -0.00719
C 8.6393 31.95981 -0.01062
C 8.62229 30.53404 -0.00033
C 7.33253 29.84368 0.03589
C 7.35868 28.45843 -0.02759
C 8.59542 27.67394 0.0402
C 8.46249 26.2703 0.00572
C 7.23622 25.52007 0.03592
C 7.44086 32.71375 0.01364
C 4.72753 25.75452 -0.00191
C 6.0225 26.337 0.00373
C 6.10766 27.79418 0.02147
C 2.24227 28.74847 -0.01362
C 3.54242 26.33019 -0.0008
C 2.34289 25.65366 0.0288
C 2.41 24.2164 0.00393
C 3.63997 23.53067 0.00895
C 3.62673 22.10502 0.00685
C 2.40499 21.36944 0.02888
C 2.41755 19.85438 -0.00482
C 3.62965 19.31966 -0.01384
C 2.65559 4.13517 0.03693
C 2.48823 2.76731 0.01745
C 3.67886 1.97048 0.00488
C 3.7802 0.57653 -0.01004
C 2.48918 34.01478 -0.02896
C 5.03728 32.6963 -0.00131
C 6.20431 31.9401 -0.01118
C 6.14541 30.49893 -0.014
C 7.31013 24.13975 0.00406
C 22.06107 8.56628 0.03046
C 8.53774 23.39025 0.00943
C 7.29595 21.36957 -0.01111
C 13.4817 31.89789 0.02162
C 13.45633 30.45803 0.0076
C 12.21098 29.79303 0.01241
C 12.17642 28.44494 -0.01454
C 13.41951 27.68535 0.01945
C 13.49701 26.30947 0.01416
C 12.31735 25.55494 0.03542
C 12.25398 32.71282 -0.0014
C 12.28455 24.16266 0.02299
C 13.56398 22.10502 -0.01717
C 12.38101 21.23097 0.05265
C 12.76571 19.91405 -0.01952
C 13.75168 19.13935 -0.02813
C 12.42678 2.93762 0.00374
C 13.54425 2.11111 0.00052
C 13.5257 0.73198 -0.03682
C 13.48898 23.47719 0.00244
C 9.80443 0.07596 0.00415
C 11.03105 0.68983 -0.02162
C 11.15532 2.24909 0.01363
C 7.34062 2.88002 -0.01275
C 8.54517 2.16791 0.00985
C 8.54181 0.73745 -0.02245
C 7.37699 0.07828 -0.00428
C 9.85779 32.74203 0.03101
C 11.04224 32.01526 -0.01536
C 11.08104 30.54982 -0.02689
C 9.8244 29.77185 -0.01046
C 9.82874 28.36797 -0.00891
C 11.01291 27.61182 0.02819
C 11.06969 26.23083 0.00165
C 9.77516 25.50294 -0.02971
C 9.77912 24.06155 0.02894
C 11.10493 23.5005 -0.01789
C 11.07838 22.03584 0.00444
C 9.89125 21.40028 -0.00925
C 9.83998 2.77379 0.01877
C 8.58681 21.93439 0.02841
C 22.12715 7.11671 0.0296
C 23.41039 6.4124 0.03374
C 23.33666 5.00071 -0.02845
C 33.11193 30.60947 0.00682
C 31.83963 29.85859 -0.01779
C 31.8185 28.44786 0.03794
C 33.08056 27.73296 0.01927
C 33.16992 26.32857 0.01574
C 31.98368 25.59534 -0.02383
C 31.98494 24.13682 -0.01429
C 33.13999 31.95899 0.00026
C 33.21662 23.54581 -0.0136
C 31.99204 21.27943 -0.02474
C 32.00615 19.89682 0.00369
C 33.15802 19.14139 0.00455
C 33.23848 17.73524 -0.00644
C 31.99125 17.04701 -0.01839
C 31.85805 15.71319 0.00137
C 33.03975 14.99327 0.00199
C 33.20914 22.09508 0.00594
C 31.92515 32.6678 0.0544
C 29.44683 0.04063 -0.02142
C 30.66617 0.71542 0.01428
C 30.80288 19.17718 -0.0405
C 30.73196 17.78727 -0.01303
C 29.47835 17.02423 -0.01461
C 29.44158 15.61481 -0.02155
C 30.69624 14.9377 -0.00944
C 30.6578 13.47512 -0.03735
C 29.39403 12.79511 -0.00971
C 29.40917 11.31322 0.01518
C 30.71878 10.59274 0.01908
C 30.67023 9.22744 0.07705
C 29.48457 8.46587 0.0103
C 29.52525 7.04155 0.02108
C 30.84784 6.40807 0.00716
C 30.81493 5.02025 0.00307
C 29.55967 4.24114 0.00346
C 29.54428 2.83165 0.01713
C 30.72567 2.11367 -0.01694
C 33.04343 13.54248 0.04381
C 29.56063 19.86843 0.01705
C 31.83956 12.80998 0.02806
C 33.05607 10.66452 -0.00069
C 34.38974 21.41044 0.00648
C 34.29155 19.96462 0.02114
C 1.10446 19.18485 -0.02957
C 1.25737 17.79969 0.00343
C 0.15152 17.0131 -0.02656
C 34.26555 15.60715 -0.02442
C 34.1755 12.82991 -0.00027
C 1.21052 22.11817 0.01223
C 34.1237 11.47381 -0.00583
C 0.10707 7.20608 -0.02849
C 1.25998 6.36254 0.02931
C 1.41516 4.96253 0.00628
C 0.11518 4.19303 -0.0345
C 0.05865 2.79122 -0.00931
C 1.23502 1.99945 -0.00939
C 1.20441 0.67968 -0.00468
C 0.08104 8.60853 -0.02302
C 1.13512 23.53949 -0.01678
C 34.41414 24.29193 0.01951
C 34.40647 25.682 -0.02213
C 33.18694 9.202 0.04926
C 31.92065 8.5661 -0.03838
C 32.05942 7.05089 0.00349
C 33.29969 6.43065 -0.00323
C 33.35372 5.00781 -0.00841
C 32.09053 4.30453 0.0001
C 31.97267 2.86264 -0.02927
C 33.16859 2.10132 -0.01404
C 33.19351 0.67706 0.01027
C 31.93915 34.0453 0.01831
C 0.02555 32.54979 -0.01037
C 1.27023 31.80094 -0.00439
C 1.28665 30.31441 -0.00598
C 34.37289 29.87812 -0.05239
C 34.29949 28.47481 0.03076
C 1.21473 27.85611 0.00723
C 1.16773 26.36778 0.02712
C 31.93229 11.34142 0.01504
C 3.73305 31.93657 -0.00892
C 29.51532 21.26445 0.0101
C 30.71511 23.44758 0.03531
C 24.4072 15.64143 0.00135
C 25.69298 14.95502 0.03102
C 25.62314 13.54325 0.02555
C 24.32894 12.82232 0.01423
C 24.43446 11.34494 -0.00285
C 25.69627 10.64446 -0.009
C 25.72409 9.26137 -0.01199
C 24.57529 17.08499 -0.00498
C 24.5596 8.5138 -0.00229
C 25.83944 6.40502 -0.0264
C 25.85317 4.99899 -0.01154
C 24.65957 4.25574 0.00684
C 24.62019 2.86126 -0.01052
C 25.78494 2.13259 -0.01679
C 25.81634 0.71555 0.00367
C 24.55412 34.04912 0.04306
C 24.56058 7.07031 -0.00938
C 25.83868 17.73758 0.02737
C 25.90763 19.13649 0.02117
C 24.61291 19.60315 -0.04078
C 22.15611 4.25473 -0.03213
C 22.16061 2.81018 0.02239
C 23.32264 2.12619 0.01153
C 23.3453 0.71873 0.02734
C 22.07617 34.04372 -0.0055
C 24.60866 32.6222 0.01515
C 25.76644 31.92352 -0.00225
C 25.79519 30.47537 0.00071
C 24.54449 29.77724 -0.01107
C 24.53992 28.3437 -0.01586
C 25.77889 27.6236 -0.01971
C 25.75035 26.21728 -0.02118
C 24.58331 25.40675 0.00733
C 24.58604 24.0649 -0.00178
C 25.77563 23.26601 0.00768
C 25.68933 21.84996 -0.0276
C 24.39966 21.16068 0.03005
C 26.93154 32.66157 0.00996
C 30.72712 22.02505 -0.00669
C 28.16755 31.97872 0.00195
C 27.02923 29.82945 -0.00218
C 28.29529 6.37787 0.01799
C 28.34018 4.95544 0.01699
C 27.11886 4.23021 -0.00416
C 27.03099 2.85018 0.01177
C 28.20404 2.14791 0.04266
C 28.24174 0.74425 0.01324
C 27.00221 0.02026 0.0014
C 27.03049 7.07539 0.01259
C 29.43978 32.65675 0.00924
C 30.59213 30.57049 0.00261
C 29.40145 29.81803 0.03265
C 29.37554 28.40605 -0.02049
C 30.63452 27.73085 -0.01854
C 30.76513 26.31609 -0.01415
C 29.50947 25.58088 -0.03039
C 29.44962 24.15564 0.01836
C 30.67576 32.017 0.02326
C 27.04954 8.49375 0.01495
C 28.21811 9.11919 0.00235
C 28.22138 10.59792 0.01094
C 27.04326 28.36802 -0.01654
C 28.22853 27.59404 -0.00037
C 28.2549 26.18687 -0.0032
C 27.031 25.45058 0.00622
C 26.99372 24.00944 -0.02815
C 28.24952 23.36823 -0.00942
C 28.24629 21.95587 0.00487
C 27.01193 21.25692 0.00826
C 27.12989 19.86483 -0.00294
C 28.31696 19.18789 0.00152
C 28.25762 17.76318 0.01257
C 27.14101 16.99157 0.02316
C 26.96216 15.63594 0.04185
C 28.22811 14.92157 0.00194
C 28.11805 13.47368 -0.00621
C 26.87416 12.73644 0.02611
C 26.99872 11.35669 0.02198
C 28.20987 30.59079 -0.00802
C 2.51854 32.641 -0.04848
