446
Graphene
C 0.01331 0.0169 0.01295
C 13.52968 17.78994 0.00438
C 12.31741 17.11918 0.01291
C 12.27747 15.6908 0.00093
C 13.53212 14.94793 0.00057
C 13.56632 13.50099 -0.01634
C 12.32036 12.81058 -0.00334
C 12.29302 11.36484 0.02339
C 13.48127 10.56824 0.01641
C 13.49409 9.14064 -0.00719
C 12.28224 8.49634 0.01364
C 12.32918 7.04309 -0.01062
C 13.57517 6.34426 -0.00033
C 13.61076 4.91768 0.03589
C 12.36049 4.30375 -0.02759
C 12.29459 2.8707 0.0402
C 13.49434 2.09308 0.00572
C 13.48664 0.5995 0.03592
C 12.21667 33.99392 0.00406
C 14.75626 32.64249 0.00943
C 15.99604 31.93115 0.02841
C 15.96332 30.56675 -0.01111
C 14.78444 29.78494 -0.01275
C 14.71034 28.42277 0.00985
C 13.48706 19.24076 -0.00191
C 12.21954 19.94191 0.00373
C 12.36776 21.36088 0.02147
C 13.54291 22.00893 -0.014
C 11.11081 13.51813 -0.00562
C 9.86198 12.81234 -0.00494
C 9.81807 11.36946 0.00054
C 11.06629 10.70335 0.03007
C 11.0485 9.30467 -0.00095
C 9.80259 8.60766 0.01572
C 9.8248 7.1649 -0.04848
C 11.09041 6.4006 -0.00892
C 11.14375 4.95964 -0.01362
C 9.88499 4.27718 -0.0008
C 9.87876 2.90133 0.0288
C 15.91533 27.68759 -0.02245
C 11.09277 2.14526 0.00393
C 9.81524 34.06745 0.00685
C 12.20127 32.61597 0.02888
C 13.53934 31.9154 -0.00482
C 13.60527 30.55566 -0.01384
C 12.30073 29.85825 0.03693
C 12.25441 28.5039 0.01745
C 13.49591 27.78328 0.00488
C 13.50309 26.3338 -0.01004
C 12.27488 25.49783 -0.02896
C 12.26931 24.06093 -0.00131
C 13.54452 23.42648 -0.01118
C 11.03595 0.70204 0.00895
C 15.95935 26.25631 -0.00428
C 14.69884 25.59136 0.03101
C 14.83729 24.10736 -0.01536
C 17.19483 25.60054 0.00374
C 17.22394 24.09206 0.00052
C 18.44587 23.42644 -0.03682
C 18.42784 22.01117 0.01965
C 17.33171 21.29989 0.02058
C 17.16065 19.92156 -0.01957
C 18.39353 19.12709 -0.0108
C 18.49188 17.69706 -0.00368
C 17.26974 17.0324 -0.02696
C 17.15318 15.61291 -0.00114
C 18.38502 14.94812 0.00228
C 18.4709 26.32262 -0.02813
C 18.41088 13.56689 0.00798
C 17.22041 11.43884 0.0351
C 18.42123 10.6576 -0.03113
C 18.47682 9.20541 0.02098
C 17.26238 8.52391 0.01848
C 17.20906 7.11062 -0.00619
C 18.47145 6.41508 -0.02162
C 18.46761 5.00322 0.00889
C 17.25678 4.27295 -0.00481
C 17.21659 2.82291 0.00979
C 18.43374 2.10163 0.01443
C 18.46076 0.73875 0.03505
C 17.24332 12.79577 0.00422
C 11.04581 14.93706 -0.01142
C 18.40547 27.74518 -0.01952
C 17.15579 29.88812 -0.01717
C 16.04732 23.39377 -0.02689
C 14.61708 19.88899 -0.01046
C 15.84737 19.22207 -0.00891
C 16.02634 17.73583 0.02819
C 14.80004 16.9899 0.00165
C 14.74684 15.55848 -0.02971
C 15.94581 14.87897 0.02894
C 15.96468 13.43666 -0.01789
C 14.75124 12.74649 0.00444
C 14.77081 11.30462 -0.00925
C 16.04298 10.63764 0.01877
C 17.12343 28.47038 0.05265
C 16.0307 9.20159 0.01363
C 14.77381 7.09776 0.00415
C 15.95232 6.43729 -0.0014
C 15.98358 5.00353 0.02162
C 14.78882 4.24894 0.0076
C 14.71705 2.79722 0.01241
C 15.92127 2.15809 -0.01454
C 15.92726 0.72419 0.01945
C 14.73434 34.01269 0.01416
C 17.23274 32.71087 0.03542
C 18.45343 31.94587 0.02299
C 18.44786 30.50596 0.00244
C 14.78317 8.53078 -0.02162
C 9.82943 15.64404 0.01849
C 9.83113 17.10537 0.01396
C 11.01403 17.83041 0.0127
C 3.66804 0.62066 -0.0154
C 2.3955 34.0389 -0.01299
C 4.88677 32.67156 -0.00407
C 6.16755 31.92358 0.01138
C 6.1828 30.51293 0.03278
C 4.97013 29.84945 -0.00177
C 4.99099 28.38379 0.04421
C 6.20425 27.66605 0.00088
C 6.08999 26.27994 0.00828
C 4.84877 25.6349 -0.02375
C 4.90662 24.24326 0.00558
C 3.72479 2.08245 0.00662
C 6.17298 23.47536 -0.0059
C 4.96133 21.258 -0.02805
C 4.94177 19.82273 0.00081
C 6.19546 19.13784 0.00245
C 6.1073 17.72505 0.02728
C 4.88316 17.05628 -0.00039
C 4.87821 15.67022 0.0064
C 6.10101 14.9748 0.00211
C 6.19739 13.50991 -0.00449
C 4.93362 12.76232 -0.01979
C 4.95069 11.31691 0.02784
C 6.17744 10.67041 -0.01977
C 6.10732 22.09193 -0.01386
C 6.14135 9.29246 -0.00561
C 2.43747 2.73537 0.00748
C 3.63943 4.94421 -0.00112
C 3.71497 30.54 0.02438
C 2.48796 29.82709 -0.02419
C 2.41971 28.42194 -0.03951
C 3.7002 27.76421 -0.00141
C 3.64618 26.38477 -0.00374
C 2.49952 25.56515 -0.0213
C 2.5106 24.10478 0.01116
C 3.72941 23.41092 -0.0005
C 3.69749 21.88631 -0.00018
C 2.39973 21.27624 0.01073
C 2.38802 19.86973 0.01984
C 2.37158 4.15789 0.03345
C 3.65005 19.17305 0.00535
C 2.46081 17.03723 -0.00012
C 2.44079 15.66196 -0.04306
C 3.70657 14.91591 -0.03672
C 3.71266 13.43561 0.01913
C 2.47283 12.83158 0.00267
C 2.46832 11.35128 0.00787
C 3.69889 10.67249 0.02426
C 3.67217 9.24461 0.01218
C 2.48312 8.55909 -0.01471
C 2.47107 7.11772 -0.02827
C 3.66266 6.42269 0.01078
C 3.65854 17.79281 -0.00198
C 17.18541 0.05258 -0.02815
C 4.91276 8.57973 0.00208
C 6.17239 6.41036 0.02769
C 8.53286 9.33417 0.017
C 7.33545 8.61538 -0.03113
C 7.37482 7.18653 -0.02566
C 8.56303 6.41041 -0.00094
C 8.63193 5.02257 0.02322
C 7.39279 4.26148 -0.00725
C 7.40701 2.8116 -0.05697
C 8.64171 2.17037 0.01087
C 8.58307 0.79743 -0.01343
C 7.38272 0.03893 0.00988
C 9.79506 32.6397 0.0276
C 8.56695 10.75112 -0.00643
C 10.97847 31.88268 0.01305
C 9.79008 29.83512 0.03368
C 9.75188 28.48019 -0.02929
C 11.01896 27.75258 -0.00966
C 11.09889 26.33217 -0.03337
C 9.83965 25.58831 0.01227
C 9.80264 24.12919 0.00873
C 11.04094 23.42453 -0.00049
C 11.08079 22.03434 0.00848
C 9.7799 21.32705 -0.01303
C 9.74213 19.86671 -0.01378
C 10.99368 19.27332 0.02635
C 11.05669 30.4677 -0.00077
C 4.92887 7.16833 0.01707
C 7.30806 11.40074 0.0086
C 8.6637 13.49824 -0.00074
C 6.15758 4.98319 -0.03291
C 4.90906 4.26075 -0.04999
C 4.92273 2.84361 0.04505
C 6.19245 2.1558 0.03284
C 6.15852 0.74703 -0.04307
C 4.92198 0.01114 0.03189
C 7.35374 32.69862 0.00031
C 8.53651 31.98345 -0.003
C 8.60171 30.59627 0.01402
C 7.44381 29.78971 0.02379
C 7.39327 28.35776 0.00907
C 7.43101 12.78608 -0.00518
C 8.59163 27.712 0.00643
C 7.3173 25.60682 0.03267
C 7.39483 24.14042 0.02374
C 8.58245 23.44318 0.00402
C 8.5903 22.03693 0.0073
C 7.37896 21.34207 0.0174
C 7.44497 19.91555 0.03828
C 8.57246 19.15201 0.01226
C 8.60923 17.70004 -0.00279
C 7.32866 17.03761 0.01996
C 7.37888 15.64993 -0.03996
C 8.6136 14.93058 0.01465
C 8.58227 26.29874 -0.01509
C 19.6952 32.64932 -0.04147
C 20.9126 31.87625 -0.05302
C 20.86194 30.48879 0.00213
C 29.47725 17.01497 0.0101
C 29.44922 15.61766 0.01705
C 30.68787 14.90267 -0.0405
C 30.74785 13.47255 -0.01303
C 29.54064 12.75584 -0.01461
C 29.53242 11.34936 -0.02155
C 30.80202 10.62725 -0.00944
C 30.74667 9.11199 -0.03735
C 29.50088 8.51049 -0.00971
C 29.50975 7.09308 0.01518
C 30.74406 6.37744 0.01908
C 30.73209 17.66324 -0.00669
C 30.71633 4.97441 0.07705
C 29.49836 2.84827 0.02108
C 30.76069 2.23463 0.00716
C 30.76677 0.79287 0.00307
C 29.51883 0.07564 0.00346
C 31.98825 32.70442 0.01713
C 33.19886 31.99347 -0.01694
C 33.20749 30.55581 0.01428
C 32.00141 29.84304 -0.02142
C 31.98874 28.42672 0.0544
C 33.17115 27.63762 0.00026
C 33.2339 26.27221 0.00682
C 29.52959 4.31226 0.0103
C 31.96356 25.65124 -0.01779
C 30.70436 19.07186 0.03531
C 29.47475 21.27375 -0.03039
C 27.13195 12.73246 0.02316
C 27.07665 11.33761 0.04185
C 28.2818 10.62092 0.00194
C 28.21963 9.19174 -0.00621
C 26.99815 8.44453 0.02611
C 27.03589 7.05489 0.02198
C 28.26364 6.40982 0.01094
C 28.2876 4.99386 0.00235
C 27.12974 4.2927 0.01495
C 27.07727 2.857 0.01259
C 28.26268 2.12612 0.01799
C 29.47729 19.86109 0.01836
C 28.23375 0.70766 0.01699
C 29.60772 32.68994 0.01177
C 30.73912 31.92811 0.04266
C 30.76401 30.48196 0.01324
C 29.45428 29.87161 0.0014
C 29.48908 28.47811 0.00924
C 30.71804 27.78469 0.02326
C 30.72405 26.31964 0.00261
C 29.48367 25.57509 0.03265
C 29.51399 24.20641 -0.02049
C 30.76852 23.44469 -0.01854
C 30.79224 21.98857 -0.01415
C 27.00236 34.01291 -0.00416
C 28.25969 13.47095 0.01257
C 31.98837 24.18736 0.03794
C 33.22042 22.06843 0.01574
C 0.00755 25.50072 -0.05239
C 0.00709 24.12528 0.03076
C 1.22169 23.4289 0.00723
C 1.22915 22.02602 0.02712
C 0.01373 21.30401 -0.02213
C 34.38801 19.83921 0.01951
C 1.14408 19.13622 -0.01678
C 1.22703 17.758 0.01223
C 0.0094 16.9945 0.00648
C 34.43023 15.54751 0.02114
C 1.25222 14.91805 -0.02957
C 1.22206 26.22989 -0.00598
C 1.25522 13.48055 0.00343
C 0.0611 11.30352 -0.02442
C 1.26343 10.57819 -0.00027
C 1.21222 9.20853 -0.00583
C 34.40356 8.47952 -0.02302
C 0.00893 7.07227 -0.02849
C 1.26676 6.38113 0.02931
C 1.19611 4.93446 0.00628
C 34.35975 4.25545 -0.0345
C 34.39454 2.80744 -0.00931
C 1.17098 2.04456 -0.00939
C 1.18662 0.68811 -0.00468
C 0.04166 12.77272 -0.02656
C 33.18635 23.48193 0.01927
C 1.15509 27.70317 -0.00439
C 34.37822 29.75366 0.01831
C 31.97637 21.28197 -0.02383
C 31.95862 19.80914 -0.01429
C 33.18372 19.06889 -0.0136
C 33.27957 17.66164 0.00594
C 32.03077 16.97596 -0.02474
C 31.98039 15.60202 0.00369
C 33.20493 14.8195 0.00455
C 33.18173 13.40373 -0.00644
C 31.98535 12.71367 -0.01839
C 32.06948 11.31058 0.00137
C 33.29037 10.59324 0.00199
C 34.33799 28.31131 -0.01037
C 33.23394 9.19259 0.04381
C 32.01039 7.08669 0.01504
C 33.21516 6.38505 -0.00069
C 33.18512 4.98106 0.04926
C 31.9526 4.29666 -0.03838
C 31.99581 2.84694 0.00349
C 33.216 2.11817 -0.00323
C 33.2672 0.74432 -0.00841
C 32.00172 0.04409 0.0001
C 0.02032 32.68699 -0.02927
C 1.20385 31.83897 -0.01404
C 1.17053 30.44979 0.01027
C 31.97018 8.52254 0.02806
C 3.67509 31.99046 0.00297
C 28.21821 14.91813 0.00152
C 27.07922 17.06257 0.00826
C 19.71781 0.03441 -0.02957
C 22.12851 32.63657 -0.04422
C 23.34835 31.98371 0.00654
C 23.326 30.64131 -0.00703
C 22.09454 29.86607 -0.04076
C 22.16303 28.39506 -0.00652
C 23.37911 27.65274 0.0058
C 23.41046 26.241 -0.00865
C 22.1087 25.50623 0.00675
C 22.12639 24.09653 -0.00311
C 23.3523 23.44457 0.00742
C 21.00946 0.78275 -0.00831
C 23.2773 22.06885 -0.01594
C 22.11664 19.86687 -0.01154
C 23.33861 19.15444 -0.01721
C 23.29209 17.73661 -0.02422
C 22.04023 17.0207 0.01277
C 22.06053 15.61506 0.00096
C 23.29653 14.8522 -0.01527
C 23.34223 13.45198 0.01087
C 22.05046 12.74156 0.00199
C 22.07256 11.32665 0.01511
C 23.33473 10.68967 -0.00478
C 23.33257 9.23714 -0.01662
C 22.08577 21.31611 0.0106
C 22.1341 8.46965 -0.01185
C 20.9574 2.12715 0.00364
C 19.67427 4.31707 0.00143
C 19.68942 29.74724 -0.00066
C 19.70119 28.30473 -0.00289
C 20.93318 27.69698 0.00028
C 20.94197 26.31046 -0.02213
C 19.7325 25.62146 0.03698
C 19.7088 24.2171 -0.00109
C 20.88032 23.38101 -0.00491
C 20.8911 21.96438 0.03338
C 19.62643 21.2965 -0.0258
C 19.59564 19.91844 -0.0331
C 20.90691 19.17332 -0.00316
C 19.71073 2.88227 -0.017
C 20.91482 17.81517 0.02188
C 19.63919 15.61093 0.02691
C 20.81381 14.88311 -0.01581
C 20.85473 13.46447 0.01452
C 19.62968 12.81498 0.04892
C 19.59766 11.3268 -0.00111
C 20.86127 10.60245 -0.03557
C 20.86513 9.1687 0.03754
C 19.67532 8.48665 0.01739
C 19.72712 7.09741 0.00755
C 20.9275 6.39927 -0.0054
C 20.91719 4.97891 0.00667
C 19.71964 17.08579 -0.01979
C 27.03916 15.63202 -0.00294
C 22.14943 7.07179 0.01126
C 23.3281 4.98063 -0.00381
C 24.55264 8.513 0.01423
C 24.59772 7.08126 -0.00285
C 25.83467 6.34441 -0.009
C 25.85391 4.98612 -0.01199
C 24.63931 4.29313 -0.00229
C 24.58754 2.90129 -0.00938
C 25.86948 2.17157 -0.0264
C 25.79192 0.68716 -0.01154
C 24.62591 34.06168 0.00684
C 27.03158 32.61971 -0.01052
C 28.27975 31.97993 -0.01679
C 25.82642 9.22506 0.02555
C 28.25431 30.56566 0.00367
C 27.02141 28.43497 0.00996
C 28.24132 27.69548 0.00195
C 28.23239 26.2403 -0.00802
C 26.97797 25.49468 -0.00218
C 26.99529 24.10168 -0.01654
C 28.27039 23.50025 -0.00037
C 28.26539 22.02446 -0.0032
C 27.07137 21.23375 0.00622
C 27.07146 19.86459 -0.02815
C 28.2702 19.17406 -0.00942
C 28.27337 17.78231 0.00487
C 26.95954 29.85638 0.04306
C 23.41541 6.37921 0.01852
C 25.85641 10.63877 0.03102
C 24.63484 12.78322 -0.00498
C 22.12101 4.2678 0.03046
C 22.17064 2.83714 0.0296
C 23.44212 2.15464 0.03374
C 23.41866 0.71851 -0.02845
C 22.20738 0.02084 -0.03213
C 24.57355 32.61984 0.02239
C 25.71706 31.92945 0.01153
C 25.75898 30.52812 0.02734
C 24.47152 29.83305 -0.0055
C 24.54546 28.40136 0.01515
C 25.79503 27.73106 -0.00225
C 24.64575 11.37876 0.00135
C 25.86892 26.28948 0.00071
C 24.60952 24.17331 -0.01586
C 25.79761 23.34384 -0.01971
C 25.84459 21.91955 -0.02118
C 24.57718 21.29056 0.00733
C 24.57488 19.92944 -0.00178
C 25.88928 19.19075 0.00768
C 25.86919 17.76129 -0.0276
C 24.61052 17.04447 0.03005
C 24.61228 15.60285 -0.04078
C 25.8884 14.81955 0.02117
C 25.90293 13.42925 0.02737
C 24.64227 25.61197 -0.01107
C 2.40345 32.62078 -0.00605
