401
Graphene
C 0.01772 34.07666 0.01295
C 13.78997 13.575 0.00165
C 12.4075 12.81171 -0.02971
C 12.27044 11.52099 0.02894
C 12.27103 8.56113 -0.01789
C 12.35204 7.14599 0.00444
C 13.54678 6.38923 -0.00925
C 13.48222 4.90308 0.01877
C 12.23581 4.10451 0.01363
C 12.27141 2.75312 -0.02162
C 13.56599 2.08133 0.00415
C 13.55281 0.63961 -0.0014
C 12.32779 34.06802 0.02162
C 14.79627 32.65686 0.0076
C 16.04288 32.0147 0.01241
C 15.97711 30.53879 -0.01454
C 14.81813 29.75715 0.01945
C 14.7276 28.33323 0.01416
C 15.97839 27.52225 0.03542
C 15.95973 25.98687 0.02299
C 14.62115 25.61552 0.00244
C 15.91784 13.62242 -0.01717
C 13.23097 14.79641 0.02819
C 14.72481 7.14897 0.05265
C 12.39331 15.59638 -0.00891
C 13.35236 27.73336 -0.02689
C 9.85922 15.74081 0.02339
C 11.09418 15.02696 0.01641
C 11.03955 13.59319 -0.00719
C 9.84412 12.84257 0.01364
C 9.81832 11.40924 -0.01062
C 11.12287 10.7605 -0.00033
C 11.1542 9.30932 0.03589
C 9.88167 8.64346 -0.02759
C 9.8924 7.13334 0.0402
C 11.10836 6.45093 0.00572
C 11.0829 4.941 0.03592
C 9.847 4.26739 0.00406
C 9.87349 2.90447 0.00943
C 11.06813 2.0475 0.02841
C 11.10708 0.60029 -0.01111
C 9.81439 0.07285 -0.01275
C 12.29921 32.65144 0.00985
C 13.56267 31.9334 -0.02245
C 13.59687 30.49219 -0.00428
C 12.30273 29.87593 0.03101
C 12.26728 28.56 -0.01536
C 13.59898 26.45146 -0.01046
C 9.78486 17.08573 -0.00334
C 15.91962 6.47165 -0.01952
C 14.70153 4.24198 0.00374
C 18.46537 0.73717 -0.05302
C 17.26657 0.05572 0.00213
C 19.64463 32.71126 -0.00066
C 20.84996 32.00519 -0.00289
C 20.89886 30.61612 0.00028
C 19.64966 29.82091 -0.02213
C 19.68471 28.4112 0.03698
C 20.90767 27.68603 -0.00109
C 20.93553 26.23964 -0.00491
C 19.70737 25.55962 0.03338
C 19.5853 24.12786 -0.0258
C 20.75397 23.33938 -0.0331
C 20.89236 21.97365 -0.00316
C 21.03669 19.08304 0.02188
C 20.99608 17.78057 -0.01979
C 19.48753 15.51243 0.02691
C 20.76884 15.02072 -0.01581
C 20.86074 13.54574 0.01452
C 19.60676 12.80302 0.04892
C 19.63486 11.35168 -0.00111
C 20.8747 10.69397 -0.03557
C 18.47159 2.22056 -0.04147
C 15.94771 4.94999 -0.02813
C 17.21947 2.85718 -0.02815
C 18.46756 4.97202 0.01443
C 14.7812 2.7796 0.00052
C 15.96308 2.07505 -0.03682
C 16.0037 0.65365 0.01965
C 14.78567 34.03872 0.02058
C 17.25549 32.68063 -0.01957
C 18.45023 31.94529 -0.0108
C 18.41661 30.5233 -0.00368
C 17.158 29.8549 -0.02696
C 17.08683 28.39249 -0.00114
C 18.40684 27.69404 0.00228
C 18.51807 26.28154 0.00798
C 17.37931 25.46819 0.00422
C 18.4612 14.79371 0.0351
C 18.31319 13.49329 -0.03113
C 16.99852 12.63193 0.02098
C 17.18173 11.2844 0.01848
C 18.43111 10.62009 -0.00619
C 18.47549 9.24115 -0.02162
C 17.30486 8.52104 0.00889
C 17.16156 7.14178 -0.00481
C 18.45262 6.47863 0.00979
C 17.2634 4.30865 0.03505
C 9.68407 20.00992 -0.01634
C 9.81751 21.2773 0.00057
C 9.8605 28.32325 0.00093
C 2.39037 4.30794 0.02374
C 2.38502 2.89499 0.00402
C 3.6969 2.21782 0.0073
C 3.66645 0.76404 0.0174
C 2.45427 0.00057 0.03828
C 4.91666 32.69267 0.01226
C 6.23272 31.96693 -0.00279
C 6.10057 30.58 0.01996
C 4.90695 29.90296 -0.03996
C 4.89285 28.47545 0.01465
C 6.05935 27.71015 -0.00074
C 6.05988 26.28502 -0.00518
C 4.79057 25.57937 0.0086
C 4.91976 24.12162 -0.00643
C 6.17765 23.48277 0.017
C 6.15303 22.00935 -0.03113
C 5.0015 21.25997 -0.02566
C 4.95878 19.84084 -0.00094
C 6.23685 19.13731 0.02322
C 6.08962 17.75856 -0.00725
C 4.82046 16.98135 -0.05697
C 3.60612 5.0372 0.03267
C 4.92622 15.57697 0.01087
C 3.70238 6.41759 -0.01509
C 2.45724 8.58038 0.00907
C 3.71524 30.49528 -0.00039
C 2.43751 29.73659 0.0064
C 2.39872 28.39434 0.00211
C 3.5998 27.76282 -0.00449
C 3.64235 26.38316 -0.01979
C 2.48645 25.60132 0.02784
C 2.51562 24.14948 -0.01977
C 3.71282 23.46425 -0.00561
C 3.73526 21.96493 0.00208
C 2.48229 21.34176 0.01707
C 2.41225 19.89764 0.02769
C 3.63151 19.19213 -0.03291
C 3.57463 17.77847 -0.04999
C 2.38208 17.00903 0.04505
C 2.49095 15.62386 0.03284
C 3.73859 14.96528 -0.04307
C 3.66808 13.54338 0.03189
C 2.40333 12.82334 0.00031
C 2.41957 11.36951 -0.003
C 3.67014 10.70135 0.01402
C 3.68402 9.28824 0.02379
C 2.46748 7.15453 0.00643
C 6.12895 14.83576 -0.01343
C 6.13141 13.36682 0.00988
C 4.88258 12.78993 0.0276
C 7.29278 16.97022 -0.0008
C 7.30149 15.54527 0.0288
C 8.61986 14.9637 0.00393
C 8.59305 13.54115 0.00895
C 7.37038 12.79455 0.00685
C 7.38021 11.352 0.02888
C 8.6139 10.69257 -0.00482
C 8.5824 9.30887 -0.01384
C 7.32832 8.5664 0.03693
C 7.40185 7.15332 0.01745
C 8.63861 6.43389 0.00488
C 8.63048 5.02498 -0.01004
C 7.33695 4.29135 -0.02896
C 7.3888 2.88556 -0.00131
C 8.681 2.24722 -0.01118
C 8.65952 0.81432 -0.014
C 7.3784 0.07175 0.02147
C 9.76215 32.66949 0.00373
C 10.95683 31.97723 -0.00191
C 10.93243 30.59305 0.00438
C 9.80439 29.77597 0.01291
C 8.60902 17.72747 -0.01362
C 8.65164 19.18754 -0.00892
C 7.45863 19.88417 -0.04848
C 7.44225 21.24864 0.01572
C 4.90122 11.39273 0.01305
C 6.09899 10.68364 -0.00077
C 6.11688 9.25848 0.03368
C 4.90726 8.50372 -0.02929
C 4.9021 7.12252 -0.00966
C 6.14671 6.46882 -0.03337
C 6.0905 5.01128 0.01227
C 4.84094 4.30876 0.00873
C 4.94737 2.87437 -0.00049
C 6.20381 2.16649 0.00848
C 20.87239 9.24851 0.03754
C 6.12192 0.71224 -0.01303
C 7.37749 32.77786 0.02635
C 8.55116 31.99083 0.0127
C 8.51711 30.56305 0.01396
C 7.27659 29.76304 0.01849
C 7.35939 28.36286 -0.01142
C 8.67217 27.74844 -0.00562
C 7.28949 25.63393 -0.00494
C 7.50331 24.21213 0.00054
C 8.5448 23.4046 0.03007
C 8.67557 22.05467 -0.00095
C 4.86002 34.03101 -0.01378
C 3.67938 31.8844 0.02728
C 19.66719 8.55031 0.01739
C 20.83305 6.37062 -0.0054
C 29.44906 7.14959 0.01518
C 30.69983 6.46656 0.01908
C 30.73293 5.00579 0.07705
C 29.51718 4.253 0.0103
C 29.54869 2.8183 0.02108
C 30.7434 2.09403 0.00716
C 30.78372 0.68253 0.00307
C 29.5477 0.06611 0.00346
C 32.01961 32.65943 0.01713
C 33.24263 31.95591 -0.01694
C 33.22101 30.54728 0.01428
C 32.02367 29.82133 -0.02142
C 32.00458 28.36137 0.0544
C 33.21602 27.60885 0.00026
C 33.25323 26.19436 0.00682
C 31.98835 25.57302 -0.01779
C 31.99015 24.14794 0.03794
C 33.17329 23.45767 0.01927
C 33.24587 21.97297 0.01574
C 31.93183 21.25302 -0.02383
C 31.92045 19.81208 -0.01429
C 29.51974 8.54698 -0.00971
C 33.09595 19.0469 -0.0136
C 30.7057 9.23171 -0.03735
C 29.51089 11.41204 -0.02155
C 27.15136 0.01677 -0.00416
C 29.56084 32.72567 0.01177
C 30.77566 31.94609 0.04266
C 30.73847 30.52849 0.01324
C 29.59644 29.80297 0.0014
C 29.5422 28.32621 0.00924
C 30.7756 27.6985 0.02326
C 30.77003 26.24858 0.00261
C 29.41643 25.58774 0.03265
C 29.47739 24.1622 -0.02049
C 30.77169 23.49157 -0.01854
C 30.79549 22.00532 -0.01415
C 29.47537 21.35879 -0.03039
C 29.44794 19.94052 0.01836
C 30.68961 19.16805 0.03531
C 30.68752 17.77009 -0.00669
C 29.50503 17.08065 0.0101
C 29.52333 15.61787 0.01705
C 30.69193 14.8735 -0.0405
C 30.73268 13.5056 -0.01303
C 29.51627 12.74733 -0.01461
C 30.69891 10.70841 -0.00944
C 28.30533 0.76834 0.01699
C 33.17347 17.67497 0.00594
C 31.95475 15.60067 0.00369
C 1.29908 22.06798 0.02712
C 0.0022 21.28237 -0.02213
C 34.35494 19.83741 0.01951
C 1.16364 19.128 -0.01678
C 1.1581 17.72757 0.01223
C 34.38517 16.97686 0.00648
C 34.39865 15.61294 0.02114
C 1.25469 14.95268 -0.02957
C 1.19471 13.56003 0.00343
C 34.41996 12.82857 -0.02656
C 34.38884 11.34987 -0.02442
C 1.18551 10.63521 -0.00027
C 1.20146 9.21662 -0.00583
C 34.37617 8.45827 -0.02302
C 34.39152 7.06501 -0.02849
C 1.26613 6.47265 0.02931
C 1.22562 5.03081 0.00628
C 34.38428 4.3541 -0.0345
C 34.38462 2.9041 -0.00931
C 1.15003 2.18268 -0.00939
C 1.21613 0.78315 -0.00468
C 1.26912 23.45934 0.00723
C 31.88554 16.95977 -0.02474
C 0.00828 24.08999 0.03076
C 1.20991 26.24378 -0.00598
C 33.16558 14.8905 0.00455
C 33.16152 13.48332 -0.00644
C 31.9657 12.73769 -0.01839
C 31.96979 11.41419 0.00137
C 33.18662 10.62816 0.00199
C 33.18863 9.20115 0.04381
C 31.88173 8.54512 0.02806
C 31.94387 7.11244 0.01504
C 33.19562 6.36081 -0.00069
C 33.13651 4.92962 0.04926
C 31.88365 4.24402 -0.03838
C 31.97384 2.8232 0.00349
C 33.23217 2.13043 -0.00323
C 33.21156 0.74799 -0.00841
C 32.00113 34.06596 0.0001
C 0.02376 32.65593 -0.02927
C 1.24977 31.8533 -0.01404
C 1.22074 30.451 0.01027
C 34.42189 29.76143 0.01831
C 34.39546 28.30821 -0.01037
C 1.11336 27.63521 -0.00439
C 0.00476 25.47697 -0.05239
C 28.24675 2.20583 0.01799
C 26.99781 2.84524 0.01259
C 27.02123 4.26856 0.01495
C 22.10081 12.8285 0.00199
C 22.18784 11.32883 0.01511
C 23.38654 10.62607 -0.00478
C 23.35768 9.183 -0.01662
C 22.12178 8.46797 -0.01185
C 22.05242 7.1012 0.01126
C 23.29698 6.36957 0.01852
C 23.39519 4.95157 -0.00381
C 22.20012 4.18056 0.03046
C 22.19705 2.75047 0.0296
C 23.42661 2.11811 0.03374
C 23.3876 0.72664 -0.02845
C 22.13093 0.05756 -0.03213
C 24.53851 32.64933 0.02239
C 25.7711 31.93097 0.01153
C 25.93044 30.5638 0.02734
C 24.66761 29.80419 -0.0055
C 24.6361 28.38456 0.01515
C 25.8384 27.67193 -0.00225
C 25.77428 26.23858 0.00071
C 24.5537 25.59852 -0.01107
C 23.31668 13.49154 0.01087
C 24.60403 24.14169 -0.01586
C 23.29772 14.909 -0.01527
C 22.17488 17.09385 0.01277
C 21.00551 4.93159 0.00667
C 19.76902 4.30775 0.00143
C 19.76768 2.8806 -0.017
C 20.95384 2.09251 0.00364
C 20.92403 0.645 -0.00831
C 19.64457 0.02489 -0.02957
C 22.08944 32.62453 -0.04422
C 23.30629 31.94024 0.00654
C 23.44075 30.54255 -0.00703
C 22.17092 29.82069 -0.04076
C 22.11153 28.41348 -0.00652
C 23.32245 27.70597 0.0058
C 23.37543 26.28639 -0.00865
C 22.1434 25.57871 0.00675
C 22.15666 24.0877 -0.00311
C 23.3364 23.39725 0.00742
C 23.25469 22.04206 -0.01594
C 22.10057 21.2847 0.0106
C 22.08173 19.82645 -0.01154
C 23.3597 19.19281 -0.01721
C 23.43454 17.75651 -0.02422
C 22.10348 15.67114 0.00096
C 25.79589 23.38235 -0.01971
C 25.7753 21.98255 -0.02118
C 24.59993 21.26681 0.00733
C 28.19643 26.25538 -0.00802
C 26.98278 25.51349 -0.00218
C 27.0479 24.10007 -0.01654
C 28.22273 23.40211 -0.00037
C 28.23042 21.95992 -0.0032
C 26.95259 21.24672 0.00622
C 26.97024 19.85887 -0.02815
C 28.22215 19.23542 -0.00942
C 28.25403 17.76004 0.00487
C 27.02298 17.03506 0.00826
C 27.02223 15.58259 -0.00294
C 28.29243 14.9031 0.00152
C 28.27377 13.48418 0.01257
C 27.05516 12.73081 0.02316
C 27.06292 11.35397 0.04185
C 28.29836 10.72662 0.00194
C 28.28632 9.26576 -0.00621
C 27.11792 8.50617 0.02611
C 27.04996 7.09835 0.02198
C 28.23484 6.38839 0.01094
C 28.2492 4.89293 0.00235
C 28.26587 27.67201 0.00195
C 27.04217 28.44873 0.00996
C 27.14691 29.80911 0.04306
C 28.39803 30.52597 0.00367
C 24.53088 19.88813 -0.00178
C 25.76703 19.19914 0.00768
C 25.83066 17.69277 -0.0276
C 24.66619 16.98724 0.03005
C 24.57692 15.63034 -0.04078
C 25.78908 14.86276 0.02117
C 25.81605 13.44139 0.02737
C 24.59604 12.72804 -0.00498
C 24.62344 11.30927 0.00135
C 25.84665 10.65109 0.03102
C 19.67089 7.14381 0.00755
C 25.88435 9.20361 0.02555
C 24.56646 7.07616 -0.00285
C 25.76759 6.40802 -0.009
C 25.78522 4.9955 -0.01199
C 24.62582 4.20774 -0.00229
C 24.62011 2.82818 -0.00938
C 25.82915 2.06703 -0.0264
C 25.83831 0.62992 -0.01154
C 24.63942 0.00745 0.00684
C 27.06538 32.65759 -0.01052
C 28.32819 31.96075 -0.01679
C 24.61108 8.48566 0.01423
C 2.46851 32.64078 0.00245
