411
Graphene
C 34.3714 0.01119 0.01295
C 12.22073 29.842 -0.00428
C 12.25898 28.3607 0.03101
C 13.4744 27.65013 -0.01536
C 13.48556 26.27415 -0.02689
C 12.26077 25.67801 -0.01046
C 12.28418 24.17821 -0.00891
C 13.4761 23.35341 0.02819
C 13.486 21.97602 0.00165
C 12.28851 21.24156 -0.02971
C 12.31231 19.82444 0.02894
C 13.54349 19.15245 -0.01789
C 13.6052 17.73846 0.00444
C 12.32778 17.11883 -0.00925
C 12.27612 15.64393 0.01877
C 13.53843 14.89998 0.01363
C 13.56551 13.43845 -0.02162
C 12.30583 12.75848 0.00415
C 12.27645 11.29851 -0.0014
C 13.52012 10.58877 0.02162
C 13.52561 9.12417 0.0076
C 12.26516 8.45614 0.01241
C 13.47131 30.591 -0.02245
C 13.45771 31.99955 0.00985
C 12.24295 32.77107 -0.01275
C 9.73206 0.12242 -0.01111
C 11.05475 23.42434 0.00373
C 11.06931 22.02339 -0.00191
C 9.85977 21.31739 0.00438
C 9.80111 19.94011 0.01291
C 11.09105 19.18429 0.00093
C 11.08416 17.76115 0.00057
C 9.84813 17.08109 -0.01634
C 9.84964 15.68948 -0.00334
C 11.05518 14.92727 0.02339
C 11.09172 13.51618 0.01641
C 12.30321 7.02968 -0.01454
C 9.88499 12.80401 -0.00719
C 11.06546 10.61233 -0.01062
C 10.98726 9.1555 -0.00033
C 9.73601 8.55804 0.03589
C 9.82368 7.13266 -0.02759
C 11.0772 6.42381 0.0402
C 11.11829 4.97158 0.00572
C 9.83304 4.3432 0.03592
C 9.76986 2.91811 0.00406
C 11.02348 2.21424 0.00943
C 10.99817 0.85058 0.02841
C 9.88339 11.37634 0.01364
C 13.50723 6.34749 0.01945
C 13.60505 4.96211 0.01416
C 12.36836 4.27529 0.03542
C 15.98775 9.21851 -0.00481
C 14.75463 8.46152 0.00979
C 14.74562 7.08627 0.01443
C 15.94868 6.40478 0.03505
C 16.00653 4.98222 -0.02815
C 14.87054 4.20953 -0.04147
C 14.86099 2.79988 -0.05302
C 16.05317 2.06437 0.00213
C 16.03239 0.70743 -0.00066
C 14.77223 0.06713 -0.00289
C 16.0521 10.60391 0.00889
C 17.14285 32.62284 0.00028
C 18.38871 30.52055 0.03698
C 17.12253 29.84242 -0.00109
C 17.10516 28.45518 -0.00491
C 18.29306 27.71779 0.03338
C 18.35963 26.25679 -0.0258
C 17.1662 25.47194 -0.0331
C 17.2021 24.10405 -0.00316
C 18.45612 23.40014 0.02188
C 18.48785 21.96126 -0.01979
C 17.24444 21.29241 0.02691
C 18.39607 31.92105 -0.02213
C 9.8461 24.15749 0.02147
C 14.78011 11.30164 -0.02162
C 15.99574 13.48281 0.01848
C 12.34128 2.88221 0.02299
C 13.56038 2.17358 0.00244
C 13.47458 0.78519 -0.01717
C 12.27411 0.06558 0.05265
C 14.68126 32.68364 -0.01952
C 15.82894 31.97796 -0.02813
C 15.93254 30.57863 0.00374
C 14.72464 29.84476 0.00052
C 14.72182 28.42834 -0.03682
C 15.88348 27.70885 0.01965
C 14.8024 12.73942 -0.00619
C 15.9247 26.21285 0.02058
C 14.70226 24.03729 -0.0108
C 16.01483 23.40606 -0.00368
C 16.00917 21.98479 -0.02696
C 14.748 21.27984 -0.00114
C 14.79788 19.86077 0.00228
C 16.06393 19.13234 0.00798
C 15.97685 17.80026 0.00422
C 14.80288 17.04952 0.0351
C 14.75497 15.59635 -0.03113
C 15.94403 14.89897 0.02098
C 14.68381 25.51585 -0.01957
C 17.27408 19.83725 -0.01581
C 9.85152 25.60447 -0.014
C 11.01498 27.78379 -0.00131
C 2.42706 2.85637 0.03189
C 3.66853 2.12829 0.00031
C 3.61527 0.77137 -0.003
C 2.3213 0.08556 0.01402
C 4.83266 32.7179 0.02379
C 6.097 32.01141 0.00907
C 6.09875 30.55732 0.00643
C 4.79553 29.93884 -0.01509
C 4.85169 28.50736 0.03267
C 6.0881 27.79843 0.02374
C 6.17526 26.29389 0.00402
C 4.93827 25.52354 0.0073
C 4.95298 24.08469 0.0174
C 6.20894 23.40702 0.03828
C 6.1278 22.00418 0.01226
C 4.84635 21.32361 -0.00279
C 4.90093 19.87592 0.01996
C 6.0688 19.13051 -0.03996
C 6.12821 17.78398 0.01465
C 4.90281 17.03115 -0.00074
C 4.94556 15.65162 -0.00518
C 2.41317 4.32441 -0.04307
C 3.68178 5.06248 0.03284
C 3.65771 6.4762 0.04505
C 2.42332 7.09531 -0.04999
C 3.60433 30.60122 0.00088
C 2.44831 29.83215 0.00828
C 2.47733 28.41519 -0.02375
C 3.72008 27.69735 0.00558
C 3.68788 26.33332 -0.0059
C 2.45875 25.57835 -0.01386
C 2.44278 24.16266 -0.02805
C 3.72716 23.377 0.00081
C 3.72414 21.99061 0.00245
C 2.49307 21.28834 0.02728
C 6.16624 14.91681 0.0086
C 2.35235 19.81352 -0.00039
C 3.66806 17.71428 0.00211
C 2.39164 17.01744 -0.00449
C 2.42011 15.59019 -0.01979
C 3.67311 14.96503 0.02784
C 3.73198 13.53873 -0.01977
C 2.50645 12.77985 -0.00561
C 2.47661 11.34169 0.00208
C 3.64938 10.60994 0.01707
C 3.56527 9.21064 0.02769
C 2.36002 8.43889 -0.03291
C 3.6224 19.15109 0.0064
C 6.17647 13.46936 -0.00643
C 4.94371 12.76856 0.017
C 4.8719 11.31779 -0.03113
C 7.35112 17.15466 -0.00562
C 7.33209 15.66906 -0.00494
C 8.59568 15.01224 0.00054
C 8.62155 13.53841 0.03007
C 7.45372 12.82722 -0.00095
C 7.39388 11.44759 0.01572
C 8.61784 10.67945 -0.04848
C 8.58536 9.28165 -0.00892
C 7.34293 8.56992 -0.01362
C 7.35995 7.18579 -0.0008
C 8.63704 17.8166 -0.01142
C 8.63792 6.41983 0.0288
C 7.36736 4.30405 0.00895
C 7.35097 2.91081 0.00685
C 8.56714 2.22065 0.02888
C 8.49946 0.88627 -0.00482
C 7.3348 0.11918 -0.01384
C 9.74933 32.79493 0.03693
C 10.98435 32.04089 0.01745
C 11.00679 30.62256 0.00488
C 9.78119 29.89435 -0.01004
C 9.73846 28.48549 -0.02896
C 8.63844 5.02783 0.00393
C 11.07256 26.34312 -0.01118
C 8.60123 19.24449 0.01849
C 7.34867 21.38447 0.0127
C 6.13542 10.71943 -0.02566
C 6.14196 9.29939 -0.00094
C 4.84139 8.49096 0.02322
C 4.89512 7.08493 -0.00725
C 6.10991 6.47297 -0.05697
C 6.16739 5.05271 0.01087
C 4.94661 4.311 -0.01343
C 4.87789 2.85964 0.00988
C 6.08692 2.19648 0.0276
C 6.12808 0.79748 0.01305
C 7.31664 19.89918 0.01396
C 4.86648 0.08911 -0.00077
C 8.52906 32.07573 -0.02929
C 8.59608 30.67576 -0.00966
C 7.30862 29.89114 -0.03337
C 7.26 28.51069 0.01227
C 8.53666 27.8113 0.00873
C 8.60161 26.31562 -0.00049
C 7.36024 25.58788 0.00848
C 7.47028 24.16734 -0.01303
C 8.65068 23.49692 -0.01378
C 8.63379 22.05309 0.02635
C 7.2669 32.83734 0.03368
C 3.57853 32.01754 0.04421
C 18.45118 19.1455 0.01452
C 17.23683 17.02675 -0.00111
C 30.64538 9.24905 -0.03735
C 29.49023 8.45418 -0.00971
C 29.54059 7.08245 0.01518
C 30.73556 6.40366 0.01908
C 30.69175 5.00069 0.07705
C 29.4533 4.24247 0.0103
C 29.53157 2.86291 0.02108
C 30.70291 2.1185 0.00716
C 30.74071 0.76729 0.00307
C 29.45611 0.06655 0.00346
C 31.90551 32.60896 0.01713
C 33.17356 31.91476 -0.01694
C 33.14124 30.51071 0.01428
C 31.94026 29.79536 -0.02142
C 31.96169 28.39872 0.0544
C 33.18544 27.67995 0.00026
C 33.19279 26.23 0.00682
C 31.92583 25.51239 -0.01779
C 31.88946 24.1184 0.03794
C 33.15984 23.42453 0.01927
C 33.10689 22.02102 0.01574
C 30.88781 10.55048 -0.00944
C 30.58979 14.82476 -0.02155
C 29.61844 16.98495 -0.01461
C 30.77717 17.69655 -0.01303
C 27.19725 7.11438 0.01259
C 28.3615 6.37322 0.01799
C 28.27454 4.96535 0.01699
C 27.05841 4.26116 -0.00416
C 27.02523 2.83637 0.01177
C 28.34298 2.1064 0.04266
C 28.22273 0.72304 0.01324
C 27.04072 34.07966 0.0014
C 29.46227 32.69564 0.00924
C 30.69276 31.93592 0.02326
C 31.91099 21.29669 -0.02383
C 30.73752 30.56313 0.00261
C 29.51213 28.34201 -0.02049
C 30.68515 27.66782 -0.01854
C 30.65306 26.24995 -0.01415
C 29.45051 25.55338 -0.03039
C 29.42602 24.06341 0.01836
C 30.6376 23.38889 0.03531
C 30.66792 22.02017 -0.00669
C 29.47356 21.22816 0.0101
C 29.44245 19.72893 0.01705
C 30.71565 19.05319 -0.0405
C 29.52104 29.8619 0.03265
C 31.905 19.81478 -0.01429
C 33.20226 19.17795 -0.0136
C 33.15551 17.70565 0.00594
C 1.21563 23.48149 0.00723
C 1.2207 22.00819 0.02712
C 34.37617 21.28048 -0.02213
C 34.38748 19.89358 0.01951
C 1.15332 19.16695 -0.01678
C 1.17306 17.74436 0.01223
C 34.42741 16.97028 0.00648
C 34.38696 15.57445 0.02114
C 1.18097 14.90162 -0.02957
C 1.27846 13.51204 0.00343
C 34.41734 24.11954 0.03076
C 0.03889 12.7568 -0.02656
C 1.23871 10.65759 -0.00027
C 1.18374 9.21616 -0.00583
C 34.42942 8.51293 -0.02302
C 34.41425 7.05763 -0.02849
C 1.18426 6.32761 0.02931
C 1.11871 4.96845 0.00628
C 34.35632 4.29516 -0.0345
C 34.37666 2.9401 -0.00931
C 1.21509 2.21128 -0.00939
C 1.1444 0.74205 -0.00468
C 0.02675 11.4131 -0.02442
C 28.44063 17.66422 0.01495
C 34.41657 25.53439 -0.05239
C 1.26819 27.65963 -0.00439
C 31.98058 16.95666 -0.02474
C 31.92629 15.51048 0.00369
C 33.19459 14.87641 0.00455
C 33.25016 13.48928 -0.00644
C 31.93469 12.91194 -0.01839
C 31.93039 11.42665 0.00137
C 33.17452 10.71175 0.00199
C 33.17219 9.24455 0.04381
C 31.9606 8.46769 0.02806
C 31.9403 7.08861 0.01504
C 1.18987 26.30766 -0.00598
C 33.19082 6.37518 -0.00069
C 31.92543 4.24023 -0.03838
C 31.91219 2.86123 0.00349
C 33.1438 2.15256 -0.00323
C 33.16667 0.69005 -0.00841
C 31.97723 0.01491 0.0001
C 34.34363 32.72093 -0.02927
C 1.1636 32.08314 -0.01404
C 1.16935 30.53105 0.01027
C 34.33251 29.768 0.01831
C 0.00893 28.36643 -0.01037
C 33.15378 4.97362 0.04926
C 18.44717 17.71205 0.04892
C 28.22475 18.99557 0.00235
C 26.97725 21.23719 0.02198
C 20.96654 22.02111 0.01277
C 19.6755 21.22857 0.00096
C 19.70133 19.77135 -0.01527
C 20.98581 18.99875 0.01087
C 20.94293 17.61991 0.00199
C 19.65954 16.97226 0.01511
C 19.58208 15.59814 -0.00478
C 19.67986 12.63232 -0.01662
C 19.77427 11.25267 -0.01185
C 21.06932 8.97213 0.01126
C 19.66276 8.44374 0.01852
C 19.67296 7.04022 -0.00381
C 20.85844 6.34765 0.03046
C 20.90385 4.95841 0.0296
C 19.69566 4.23307 0.03374
C 19.79288 2.86281 -0.02845
C 20.95862 2.09878 -0.03213
C 20.89335 0.74956 0.02239
C 19.65525 34.07209 0.01153
C 22.18133 32.60538 0.02734
C 22.00988 28.37664 -0.0055
C 20.87126 23.445 -0.02422
C 19.6229 24.12875 -0.01721
C 19.54875 25.53677 -0.01154
C 20.79507 26.26266 0.0106
C 17.16925 15.5317 -0.03557
C 18.44925 14.81883 0.03754
C 18.60761 13.41418 0.01739
C 17.25098 12.77624 0.00755
C 17.3256 11.34014 -0.0054
C 18.51994 10.64851 0.00667
C 18.47913 9.20713 0.00143
C 17.21684 8.50539 -0.017
C 17.22875 7.15529 0.00364
C 18.47192 6.359 -0.00831
C 23.27469 27.68031 0.01515
C 18.51671 4.94752 -0.02957
C 17.24214 2.82124 0.00654
C 18.51622 2.12677 -0.00703
C 18.44464 0.73614 -0.04076
C 17.20831 34.07122 -0.00652
C 19.71236 32.63265 0.0058
C 20.99181 31.85965 -0.00865
C 20.85188 30.44052 0.00675
C 19.58596 29.76912 -0.00311
C 19.56143 28.376 0.00742
C 20.77576 27.6493 -0.01594
C 17.21689 4.24397 -0.04422
C 23.25539 26.26474 -0.00225
C 22.00536 25.61843 0.00071
C 22.13227 24.13667 -0.01107
C 24.56233 21.3325 0.00367
C 24.64277 19.93784 0.04306
C 25.78645 19.16173 0.00996
C 24.66849 6.90628 0.00195
C 25.997 6.48025 -0.00802
C 25.86156 5.04701 -0.00218
C 24.60536 4.3012 -0.01654
C 24.55914 2.78547 -0.00037
C 25.83793 2.14283 -0.0032
C 25.8271 0.72945 0.00622
C 25.82246 22.01687 -0.01679
C 24.57874 0.0271 -0.02815
C 28.23319 31.96765 0.00487
C 28.25087 30.55909 0.00826
C 27.00505 29.80098 -0.00294
C 27.0293 28.35303 0.00152
C 28.30295 27.74457 0.01257
C 28.20991 26.27916 0.02316
C 27.01837 25.54911 0.04185
C 27.05104 24.11362 0.00194
C 28.25816 23.39109 -0.00621
C 28.26502 21.9409 0.02611
C 26.98807 32.68964 -0.00942
C 27.05763 19.76329 0.01094
C 25.78603 23.42239 -0.01052
C 24.55114 25.58747 -0.01154
C 23.34237 23.39021 -0.01586
C 23.35677 22.01387 -0.01971
C 22.17203 21.28545 -0.02118
C 22.15902 19.87759 0.00733
C 23.4118 19.20919 -0.00178
C 23.21111 17.83777 0.00768
C 22.20103 17.06266 -0.0276
C 22.03622 7.20708 0.03005
C 23.29834 6.56642 -0.04078
C 23.35478 5.03656 0.02117
C 24.52819 24.14277 0.00684
C 22.1635 4.23779 0.02737
C 23.40666 2.1746 0.00135
C 23.39987 0.77017 0.03102
C 22.17625 34.0719 0.02555
C 24.45124 32.6715 0.01423
C 25.75556 31.9581 -0.00285
C 25.80411 30.51399 -0.009
C 24.56777 29.78947 -0.01199
C 24.57269 28.40283 -0.00229
C 25.85538 27.70114 -0.00938
C 25.73819 26.28755 -0.0264
C 22.24708 2.85694 -0.00498
C 2.36278 32.74264 -0.00177
