301
Graphene
C 34.33974 0.03179 0.01295
C 9.7883 2.85389 -0.00111
C 11.06179 2.10386 -0.03557
C 11.03467 0.73273 0.03754
C 9.79691 0.00956 0.01739
C 12.24308 32.74472 0.00755
C 13.51517 31.97822 -0.0054
C 9.81363 4.36179 0.04892
C 13.4591 30.59105 0.00667
C 12.32872 28.48969 -0.017
C 13.66221 27.59944 0.00364
C 13.55569 26.19477 -0.00831
C 12.37426 25.50243 -0.02957
C 12.48188 24.0859 -0.04422
C 13.56506 23.15978 0.00654
C 12.26854 29.79931 0.00143
C 11.06095 4.66467 0.01452
C 11.08068 19.04272 -0.01581
C 9.94372 19.83403 0.02691
C 8.5605 2.07892 -0.05302
C 8.58509 0.63372 0.00213
C 7.32957 34.00327 -0.00066
C 9.7898 32.73146 -0.00289
C 11.1125 32.01653 0.00028
C 11.06646 30.5613 -0.02213
C 9.80177 29.87288 0.03698
C 9.88946 28.38213 -0.00109
C 11.10827 27.63513 -0.00491
C 11.08273 26.21804 0.03338
C 9.86189 25.58894 -0.0258
C 9.90483 24.17455 -0.0331
C 11.13724 23.4871 -0.00316
C 11.0458 21.99505 0.02188
C 9.88703 21.24631 -0.01979
C 12.42464 21.49508 -0.00703
C 12.28737 19.82837 -0.04076
C 13.51838 19.21283 -0.00652
C 13.5045 5.01623 0.0058
C 18.41416 30.5691 0.01852
C 17.27099 29.84027 -0.00381
C 18.6271 13.66566 0.03046
C 18.64161 10.4636 0.0296
C 18.25833 9.08978 0.03374
C 17.3127 6.95298 -0.02845
C 18.48654 6.35795 -0.03213
C 18.42637 5.0164 0.02239
C 17.1195 4.40501 0.01153
C 17.17567 2.92839 0.02734
C 18.3842 2.11287 -0.0055
C 18.4296 0.73038 0.01515
C 17.21545 33.99269 -0.00225
C 19.62624 32.59043 0.00071
C 20.83768 31.97232 -0.01107
C 18.50481 31.82701 0.01126
C 7.42501 2.75872 -0.04147
C 17.22695 32.52031 -0.01185
C 16.02182 0.66426 -0.00478
C 12.31144 4.40941 -0.00865
C 12.38727 2.84482 0.00675
C 13.562 2.10545 -0.00311
C 13.56943 0.7177 0.00742
C 12.31595 0.05573 -0.01594
C 14.86535 32.58736 0.0106
C 16.01434 31.80023 -0.01154
C 16.04761 30.35765 -0.01721
C 14.71979 29.85158 -0.02422
C 14.53929 28.49959 0.01277
C 15.99274 6.50423 0.00096
C 15.90689 5.14592 -0.01527
C 14.71166 4.30384 0.01087
C 14.77811 2.86977 0.00199
C 15.99789 2.24223 0.01511
C 14.82113 34.02595 -0.01662
C 7.46111 4.17285 -0.02815
C 8.55727 5.0275 0.03505
C 7.36387 17.06732 0.01443
C 3.67703 10.75593 -0.00428
C 3.70794 9.36498 0.03101
C 2.46081 8.60252 -0.01536
C 2.5016 7.18412 -0.02689
C 3.68586 6.4418 -0.01046
C 3.73192 4.99761 -0.00891
C 2.44875 4.29171 0.02819
C 2.4209 2.88093 0.00165
C 3.65103 2.20899 -0.02971
C 3.62481 0.75502 0.02894
C 2.36904 0.06752 -0.01789
C 4.80461 32.65669 0.00444
C 6.10493 31.88905 -0.00925
C 6.11694 30.50855 0.01877
C 4.85996 29.84716 0.01363
C 2.40641 11.37983 -0.02245
C 4.87812 28.4145 -0.02162
C 2.31722 12.76928 0.00985
C 3.65009 14.90308 -0.01111
C 3.63137 30.53187 -0.00334
C 2.41112 29.85639 0.02339
C 2.42557 28.42112 0.01641
C 3.68234 27.63989 -0.00719
C 3.61274 26.19315 0.01364
C 2.42864 25.56332 -0.01062
C 2.4282 24.06195 -0.00033
C 3.68132 23.43687 0.03589
C 3.7101 22.0003 -0.02759
C 2.44972 21.2969 0.0402
C 2.465 19.80868 0.00572
C 3.68926 19.18974 0.03592
C 3.70161 17.6913 0.00406
C 2.4658 17.03712 0.00943
C 2.41976 15.65695 0.02841
C 3.59646 13.50037 -0.01275
C 19.72542 12.7719 -0.01586
C 6.09633 27.74325 0.00415
C 4.86281 25.53533 0.02162
C 7.3522 32.59156 -0.00368
C 8.55055 31.97726 -0.02696
C 8.54253 30.51674 -0.00114
C 7.38003 29.77295 0.00228
C 7.39995 28.33698 0.00798
C 8.65841 27.75353 0.00422
C 8.65146 26.30827 0.0351
C 7.31099 25.5857 -0.03113
C 7.39213 24.23257 0.02098
C 8.63058 23.49603 0.01848
C 8.58407 21.99634 -0.00619
C 7.34073 21.19638 -0.02162
C 7.3947 19.77759 0.00889
C 8.63529 19.1514 -0.00481
C 8.40702 17.671 0.00979
C 4.83188 34.05539 -0.0108
C 6.07578 26.26222 -0.0014
C 6.08087 0.7406 -0.01957
C 4.8597 2.90709 0.01965
C 4.90905 24.16296 0.0076
C 6.158 23.47954 0.01241
C 6.17192 21.95104 -0.01454
C 4.93628 21.30209 0.01945
C 4.94277 19.90575 0.01416
C 6.16044 19.11676 0.03542
C 6.09272 17.68246 0.02299
C 4.87329 16.95814 0.00244
C 4.94255 15.581 -0.01717
C 4.77125 12.75171 0.05265
C 4.88656 8.53657 -0.01952
C 5.21884 7.2698 -0.02813
C 6.22639 6.41376 0.00374
C 6.17302 4.99642 0.00052
C 4.93155 4.28984 -0.03682
C 6.16331 2.20812 0.02058
C 3.61146 32.00106 -0.01634
C 19.54962 11.40638 -0.01971
C 20.83511 9.22602 0.00733
C 32.10875 21.26942 -0.02383
C 31.99331 19.92008 -0.01429
C 33.12496 19.19332 -0.0136
C 33.11626 17.81008 0.00594
C 31.914 17.09577 -0.02474
C 31.90242 15.67258 0.00369
C 33.14587 22.10226 0.01574
C 33.08676 15.01068 0.00455
C 31.89742 12.85289 -0.01839
C 31.89368 11.39878 0.00137
C 33.1505 10.66757 0.00199
C 33.19006 9.25682 0.04381
C 31.96405 8.53749 0.02806
C 31.94388 7.10546 0.01504
C 33.15048 13.58122 -0.00644
C 33.13468 23.51497 0.01927
C 31.97312 24.23952 0.03794
C 31.954 25.65173 -0.01779
C 29.49043 7.11 0.01518
C 30.76981 6.42367 0.01908
C 30.70891 4.9967 0.07705
C 29.42209 4.28155 0.0103
C 29.47682 2.90387 0.02108
C 30.71306 2.15911 0.00716
C 30.74355 0.75119 0.00307
C 29.50594 0.06202 0.00346
C 31.90853 32.73623 0.01713
C 33.17413 31.97138 -0.01694
C 33.21487 30.58786 0.01428
C 31.91307 29.91726 -0.02142
C 31.90811 28.46203 0.0544
C 33.15727 27.78145 0.00026
C 33.18051 26.32527 0.00682
C 33.19282 6.40622 -0.00069
C 33.17366 4.97273 0.04926
C 31.95497 4.28277 -0.03838
C 31.94004 2.91689 0.00349
C 34.38048 15.665 0.02114
C 1.22332 14.94801 -0.02957
C 1.17513 13.54403 0.00343
C 34.34831 12.8123 -0.02656
C 34.40147 11.38742 -0.02442
C 1.22891 10.6313 -0.00027
C 1.19549 9.18261 -0.00583
C 34.39346 8.52731 -0.02302
C 34.41765 7.12533 -0.02849
C 1.22604 6.43768 0.02931
C 1.18863 5.03784 0.00628
C 34.40513 4.29839 -0.0345
C 34.40659 2.94594 -0.00931
C 1.17443 2.18978 -0.00939
C 1.14584 0.73701 -0.00468
C 0.00829 17.08497 0.00648
C 29.47885 8.53522 -0.00971
C 1.25316 17.7753 0.01223
C 34.34533 19.87817 0.01951
C 33.175 2.20092 -0.00323
C 33.15984 0.77775 -0.00841
C 31.95136 0.11118 0.0001
C 34.3304 32.70766 -0.02927
C 1.13747 32.01536 -0.01404
C 1.20042 30.53216 0.01027
C 34.41134 29.78798 0.01831
C 34.42308 28.48821 -0.01037
C 1.19315 27.6704 -0.00439
C 1.25127 26.28148 -0.00598
C 0.03693 25.59539 -0.05239
C 34.41232 24.22152 0.03076
C 1.20454 23.41167 0.00723
C 1.16781 22.01 0.02712
C 34.389 21.3225 -0.02213
C 1.22755 19.17719 -0.01678
C 30.74888 9.3459 -0.03735
C 30.72866 10.69896 -0.00944
C 29.47725 11.42342 -0.02155
C 22.09552 4.31616 0.00684
C 22.07656 2.84677 -0.01052
C 23.34556 2.07466 -0.01679
C 23.28199 0.62876 0.00367
C 22.10279 34.00197 0.04306
C 24.55635 32.52918 0.00996
C 25.74602 31.83196 0.00195
C 25.87774 30.53667 -0.00802
C 25.85317 13.34058 -0.00218
C 24.61951 12.82474 -0.01654
C 24.5209 11.41525 -0.00037
C 25.79015 10.71523 -0.0032
C 25.83725 9.31042 0.00622
C 24.59049 8.6335 -0.02815
C 24.65229 7.18811 -0.00942
C 23.36363 5.00539 -0.01154
C 25.82332 6.40272 0.00487
C 23.3686 6.40678 -0.0264
C 22.086 8.57349 -0.00229
C 19.56692 8.51009 -0.00178
C 19.68161 7.08606 0.00768
C 20.93509 6.36381 -0.0276
C 20.89687 4.91664 0.03005
C 19.71401 4.25281 -0.04078
C 19.67854 2.79979 0.02117
C 20.89148 2.0806 0.02737
C 20.86924 0.62606 -0.00498
C 19.67561 34.0741 0.00135
C 22.14691 32.36303 0.03102
C 23.35082 31.94764 0.02555
C 21.89452 12.74426 0.01423
C 21.95282 11.36065 -0.00285
C 23.29669 10.78252 -0.009
C 23.34611 9.31576 -0.01199
C 22.19372 7.12809 -0.00938
C 20.71826 10.58891 -0.02118
C 25.78768 4.97536 0.00826
C 24.58417 2.73524 0.00152
C 28.26567 2.11423 0.02326
C 28.22703 0.72896 0.00261
C 27.07067 34.03562 0.03265
C 29.45652 32.66722 -0.02049
C 30.69334 32.00016 -0.01854
C 30.65797 30.58258 -0.01415
C 29.50232 29.85396 -0.03039
C 29.44884 28.52585 0.01836
C 30.50799 27.75911 0.03531
C 30.84589 26.45524 -0.00669
C 30.7323 17.84687 0.0101
C 29.49629 15.57254 0.01705
C 30.7574 14.97335 -0.0405
C 30.72361 13.54035 -0.01303
C 29.45757 12.81467 -0.01461
C 26.99187 2.80595 0.00924
C 24.54917 4.26707 -0.00294
C 27.06236 4.22199 0.0014
C 28.26535 6.35292 0.04266
C 25.78797 2.07871 0.01257
C 25.84893 0.64425 0.02316
C 24.63616 33.97217 0.04185
C 26.97576 32.5836 0.00194
C 28.24201 31.93202 -0.00621
C 28.25728 30.45913 0.02611
C 27.0592 29.8374 0.02198
C 28.36021 14.92636 0.01094
C 28.20969 13.57284 0.00235
C 27.0615 12.81511 0.01495
C 27.01565 11.43228 0.01259
C 28.2576 10.66991 0.01799
C 28.29585 9.22626 0.01699
C 27.0646 8.53467 -0.00416
C 26.97721 7.12948 0.01177
C 28.23944 4.95302 0.01324
C 2.40421 32.6828 0.00057
