293
Graphene
C 34.35108 0.01185 0.01295
C 7.38746 34.02053 -0.0054
C 9.87454 32.69602 0.00667
C 11.12487 32.01628 0.00143
C 11.11654 30.61313 -0.017
C 9.90106 29.84279 0.00364
C 9.83635 28.38219 -0.00831
C 8.54833 0.73222 0.00755
C 11.15436 27.69593 -0.02957
C 9.79835 25.52314 0.00654
C 9.89556 24.05911 -0.00703
C 11.12609 23.43215 -0.04076
C 11.12511 22.07516 -0.00652
C 9.98511 21.31787 0.0058
C 9.88467 19.88463 -0.00865
C 10.9949 26.18814 -0.04422
C 11.11092 19.1485 0.00675
C 8.50745 2.18336 0.01739
C 7.3238 4.26737 -0.03557
C 8.66955 19.17028 0.03698
C 8.64742 17.69276 -0.00109
C 7.32726 17.03704 -0.00491
C 7.28777 15.66765 0.03338
C 8.57659 14.93384 -0.0258
C 8.68073 13.49545 -0.0331
C 7.28528 2.84725 0.03754
C 7.3838 12.80406 -0.00316
C 8.64347 10.64055 -0.01979
C 8.57821 9.21729 0.02691
C 7.35315 8.53595 -0.01581
C 7.30395 7.1374 0.01452
C 8.5246 6.42211 0.04892
C 8.57101 5.00594 -0.00111
C 7.39222 11.36828 0.02188
C 11.17968 17.77142 -0.00311
C 9.87997 17.09526 0.00742
C 9.80381 15.61672 -0.01594
C 12.41754 28.33695 -0.02845
C 13.69704 27.74891 -0.03213
C 12.04689 25.34391 0.02239
C 12.27068 17.00892 0.01153
C 12.23834 15.63708 0.02734
C 13.44643 14.88611 -0.0055
C 12.35381 29.85004 0.03374
C 13.77359 13.50647 0.01515
C 12.2508 11.41864 0.00071
C 12.33746 8.67275 -0.01107
C 12.41328 7.16679 -0.01586
C 13.29293 6.24222 -0.01971
C 13.68755 5.03425 -0.02118
C 12.34431 4.28672 0.00733
C 12.58701 12.70646 -0.00225
C 13.57874 30.61152 0.0296
C 13.54465 32.02325 0.03046
C 12.2815 32.74633 -0.00381
C 11.05732 14.90789 0.0106
C 11.15387 13.48387 -0.01154
C 9.9005 12.84951 -0.01721
C 9.81596 11.41075 -0.02422
C 11.06488 10.71317 0.01277
C 11.02721 9.28849 0.00096
C 9.87537 8.56437 -0.01527
C 9.86378 7.10212 0.01087
C 11.09693 6.42151 0.00199
C 11.06123 4.97144 0.01511
C 9.789 4.25019 -0.00478
C 9.75188 2.90095 -0.01662
C 11.01724 2.21462 -0.01185
C 11.03949 0.80539 0.01126
C 9.8287 0.0108 0.01852
C 7.49848 19.8334 -0.02213
C 7.4885 21.32481 0.00028
C 8.70635 22.00585 -0.00289
C 8.65754 23.39133 -0.00066
C 3.71968 10.61816 -0.02971
C 3.6421 9.16187 0.02894
C 2.42205 8.53092 -0.01789
C 2.45132 7.14646 0.00444
C 3.64049 6.31717 -0.00925
C 3.59358 4.91149 0.01877
C 2.43246 11.30853 0.00165
C 2.3533 4.23915 0.01363
C 3.62329 2.14688 0.00415
C 3.70568 0.69265 -0.0014
C 2.45428 34.07328 0.02162
C 5.00991 32.69198 0.0076
C 6.17826 32.00509 0.01241
C 6.14058 30.584 -0.01454
C 2.36035 2.81582 -0.02162
C 2.43948 12.71829 0.02819
C 3.68196 13.44368 -0.00891
C 3.65627 14.92207 -0.01046
C 3.74297 30.55083 -0.02759
C 2.49756 29.87894 0.0402
C 2.46469 28.39492 0.00572
C 3.68313 27.73569 0.03592
C 3.62453 26.33777 0.00406
C 2.39722 25.62429 0.00943
C 2.45484 24.19127 0.02841
C 3.66333 23.40862 -0.01111
C 3.74621 22.09437 -0.01275
C 2.49904 21.29112 0.00985
C 2.47906 19.89844 -0.02245
C 3.69049 19.20622 -0.00428
C 3.68679 17.7846 0.03101
C 2.46676 17.00379 -0.01536
C 2.43371 15.62603 -0.02689
C 4.91514 29.84629 0.01945
C 12.31636 2.7863 -0.00178
C 4.92232 28.46332 0.01416
C 5.9928 26.42613 0.02299
C 6.10681 4.9665 -0.03113
C 4.86658 4.24938 0.02098
C 4.90699 2.81054 0.01848
C 6.12086 2.0484 -0.00619
C 6.12251 0.68934 -0.02162
C 4.89547 0.01434 0.00889
C 6.14711 6.35451 0.0351
C 7.40981 32.59898 -0.00481
C 8.70051 30.56553 0.01443
C 7.41108 29.91056 0.03505
C 7.42785 28.42893 -0.02815
C 8.58356 27.68041 -0.04147
C 8.69082 26.31949 -0.05302
C 7.39998 24.10924 0.00213
C 8.66724 31.93481 0.00979
C 4.85145 7.05958 0.00422
C 4.85028 8.46476 0.00798
C 6.13413 9.26334 0.00228
C 4.84162 25.60275 0.00244
C 4.87969 24.19798 -0.01717
C 6.14636 23.55328 0.05265
C 6.18072 22.05231 -0.01952
C 4.99208 21.36299 -0.02813
C 4.95108 19.90449 0.00374
C 6.13924 19.1104 0.00052
C 6.10146 17.73391 -0.03682
C 4.85601 17.04182 0.01965
C 4.89052 15.58702 0.02058
C 6.11051 14.9248 -0.01957
C 6.13218 13.47782 -0.0108
C 4.89741 12.80904 -0.00368
C 4.9255 11.34821 -0.02696
C 6.15798 10.62699 -0.00114
C 6.13995 27.80272 0.03542
C 3.73629 31.99354 0.03589
C 13.53612 2.16064 0.00768
C 12.19206 0.11105 0.03005
C 31.92136 19.84705 -0.01429
C 33.15643 19.08557 -0.0136
C 33.16008 17.66617 0.00594
C 31.94432 16.9992 -0.02474
C 31.84736 15.52977 0.00369
C 33.16431 14.9115 0.00455
C 31.97178 21.2474 -0.02383
C 33.1643 13.4981 -0.00644
C 31.76887 11.32102 0.00137
C 33.0804 10.70063 0.00199
C 33.10639 9.30117 0.04381
C 31.95906 8.55289 0.02806
C 31.95724 7.20316 0.01504
C 33.19532 6.44789 -0.00069
C 31.83505 12.82668 -0.01839
C 33.15632 5.04808 0.04926
C 33.15276 21.98496 0.01574
C 31.90005 24.15974 0.03794
C 30.64021 5.13528 0.07705
C 29.35006 4.3724 0.0103
C 29.46587 2.92332 0.02108
C 30.64783 2.16468 0.00716
C 30.64032 0.73703 0.00307
C 29.45708 0.02435 0.00346
C 33.14733 23.40199 0.01927
C 31.99301 32.68349 0.01713
C 33.23236 30.55012 0.01428
C 31.98605 29.8518 -0.02142
C 31.95191 28.47364 0.0544
C 33.12575 27.73615 0.00026
C 33.16319 26.33359 0.00682
C 31.93165 25.59243 -0.01779
C 33.28273 31.96734 -0.01694
C 31.86177 4.37055 -0.03838
C 31.89018 2.93777 0.00349
C 33.09443 2.20407 -0.00323
C 1.202 14.89728 -0.02957
C 1.20929 13.52435 0.00343
C 34.41621 12.76994 -0.02656
C 0.00715 11.39941 -0.02442
C 1.20388 10.64259 -0.00027
C 1.25967 9.19633 -0.00583
C 0.04727 15.61905 0.02114
C 0.00043 8.59049 -0.02302
C 1.19584 6.46014 0.02931
C 1.14103 5.01744 0.00628
C 34.37342 4.28898 -0.0345
C 34.31587 2.89422 -0.00931
C 1.10672 2.18435 -0.00939
C 1.17852 0.70508 -0.00468
C 0.00063 7.18836 -0.02849
C 0.00586 17.00829 0.00648
C 1.21829 17.70019 0.01223
C 1.23643 19.15691 -0.01678
C 33.11577 0.77304 -0.00841
C 31.92492 0.06797 0.0001
C 0.05054 32.63708 -0.02927
C 1.23308 31.98918 -0.01404
C 1.2508 30.58955 0.01027
C 0.00286 29.81837 0.01831
C 34.4024 28.43057 -0.01037
C 1.21557 27.6734 -0.00439
C 1.18013 26.31186 -0.00598
C 34.38518 25.6606 -0.05239
C 34.38475 24.1834 0.03076
C 1.20727 23.46673 0.00723
C 1.20326 22.00802 0.02712
C 34.39977 21.33287 -0.02213
C 34.36954 19.86118 0.01951
C 30.72497 6.55806 0.01908
C 29.60978 7.37408 0.01518
C 30.69946 9.13567 -0.00971
C 30.66882 10.55628 -0.03735
C 21.15806 30.3902 0.04306
C 20.80242 0.48325 0.00996
C 19.64653 33.98661 0.00195
C 22.11342 32.65807 -0.00802
C 23.34618 31.96653 -0.00218
C 23.25037 30.59346 -0.01654
C 20.87115 31.82676 0.00367
C 23.3108 0.67423 -0.00037
C 24.56072 32.55581 0.00622
C 25.74922 31.8342 -0.02815
C 25.74469 30.47732 -0.00942
C 24.47789 29.9278 0.00487
C 25.94953 2.0281 0.00826
C 25.76443 0.6608 -0.00294
C 22.10942 0.07451 -0.0032
C 19.62817 32.46826 -0.01679
C 17.24069 0.16008 -0.01052
C 18.49649 0.83428 0.00684
C 14.72839 32.70226 -0.04078
C 15.96294 32.07606 0.02117
C 15.93799 30.67525 0.02737
C 14.79873 29.87585 -0.00498
C 14.6858 15.51025 0.00135
C 14.8479 4.29563 0.03102
C 14.79143 2.95861 0.02555
C 15.96866 2.2302 0.01423
C 15.96446 0.77094 -0.00285
C 14.72674 0.0205 -0.009
C 17.23177 32.74179 -0.01199
C 18.36004 31.88477 -0.00229
C 18.20898 30.36749 -0.00938
C 17.20009 2.63959 -0.0264
C 18.50692 2.23926 -0.01154
C 24.54167 34.02131 0.00152
C 13.50906 0.78397 -0.0276
C 27.03162 32.6235 0.01257
C 28.25024 30.51018 0.04185
C 30.64613 27.80139 -0.02049
C 30.66391 26.38269 -0.01854
C 29.4299 25.5524 -0.01415
C 29.44724 24.21702 -0.03039
C 30.66571 23.45902 0.01836
C 30.70307 22.00888 0.03531
C 29.41842 28.48789 0.03265
C 29.48051 21.16417 -0.00669
C 30.63131 19.11 0.01705
C 30.74639 17.73613 -0.0405
C 29.4368 17.08941 -0.01303
C 29.47666 15.72277 -0.01461
C 30.48709 14.85165 -0.02155
C 30.77787 13.54482 -0.00944
C 29.42198 19.783 0.0101
C 29.43146 29.87507 0.00261
C 30.74499 30.55148 0.02326
C 30.74704 31.98913 0.00924
C 26.99407 29.8002 0.00194
C 26.87031 28.39118 -0.00621
C 28.10379 27.66428 0.02611
C 28.35288 26.34776 0.02198
C 28.44369 23.26703 0.01094
C 28.33467 22.01155 0.00235
C 28.13097 19.30963 0.01495
C 28.1837 17.91216 0.01259
C 27.23015 16.89644 0.01799
C 28.04754 4.75179 0.01699
C 27.07251 2.80303 -0.00416
C 28.23577 2.13752 0.01177
C 28.21589 0.73929 0.04266
C 26.99059 34.01028 0.01324
C 29.51283 32.69125 0.0014
C 28.2558 31.93362 0.02316
C 2.44025 32.63952 -0.00033
