309
Graphene
C 0.00586 34.06973 0.01295
C 9.88653 21.39605 0.02188
C 10.05325 19.87904 -0.01979
C 11.35544 19.22073 0.02691
C 11.25932 17.78244 -0.01581
C 9.96921 17.10364 0.01452
C 9.77506 15.75127 0.04892
C 9.95791 2.56577 -0.00111
C 11.016 0.75735 -0.03557
C 9.82168 34.04588 0.03754
C 12.33007 32.79836 0.01739
C 12.49437 19.89607 0.00755
C 13.67998 19.15552 -0.0054
C 13.51707 17.7781 0.00667
C 12.4613 17.00502 0.00143
C 13.47275 0.7592 -0.017
C 11.14952 22.00904 -0.00316
C 12.32179 0.19069 0.00364
C 9.61834 24.37863 -0.0331
C 10.06586 29.57671 0.03338
C 7.45987 15.62638 -0.00481
C 8.69746 14.92269 0.00979
C 8.61012 13.5599 0.01443
C 7.53504 12.76754 0.03505
C 7.16014 11.47505 -0.02815
C 7.30191 8.47152 -0.04147
C 7.24834 7.27088 -0.05302
C 7.43668 4.27772 0.00213
C 7.41738 2.84532 -0.00066
C 8.59691 2.06498 -0.00289
C 8.50694 0.64553 0.00028
C 7.27513 34.01849 -0.02213
C 9.77735 32.72751 0.03698
C 11.08331 31.98537 -0.00109
C 10.88781 30.66489 -0.00491
C 9.93652 28.18506 -0.0258
C 14.95871 32.73683 -0.00831
C 15.94532 19.18642 -0.02957
C 16.77017 17.94497 -0.04422
C 21.98204 19.84401 -0.00478
C 23.24724 19.17006 -0.01662
C 23.25427 17.7033 -0.01185
C 22.02012 17.10439 0.01126
C 22.0942 15.74096 0.01852
C 23.33988 14.97228 -0.00381
C 23.49256 13.61653 0.03046
C 21.98932 2.76963 0.0296
C 23.22354 2.0915 0.03374
C 23.31905 0.70529 -0.02845
C 22.10519 0.01076 -0.03213
C 24.58031 32.72628 0.02239
C 25.82122 32.0309 0.01153
C 25.73704 30.50795 0.02734
C 24.55397 29.75048 -0.0055
C 22.12444 21.22648 0.01511
C 23.06937 22.15145 0.00199
C 23.52317 23.46557 0.01087
C 23.48449 27.19802 -0.01527
C 14.6511 34.07694 0.00654
C 18.44763 19.13289 -0.00703
C 18.10306 17.61745 -0.04076
C 18.05517 0.3329 -0.00652
C 16.8467 0.1446 0.0058
C 20.02113 32.87169 -0.00865
C 20.87709 31.92814 0.00675
C 7.44236 17.04878 0.00889
C 19.46063 19.89036 -0.00311
C 20.76571 17.73337 -0.01594
C 19.46644 16.96228 0.0106
C 20.85827 0.62271 -0.01154
C 19.54807 0.06526 -0.01721
C 22.14516 32.72651 -0.02422
C 23.36565 31.98603 0.01277
C 23.39959 30.57303 0.00096
C 20.70489 19.19282 0.00742
C 8.65806 17.7729 -0.02162
C 8.71085 19.19646 -0.00619
C 7.41156 19.92772 0.01848
C 3.69085 9.22763 0.00406
C 2.43913 8.54827 0.00943
C 2.42984 7.15191 0.02841
C 3.66951 6.35792 -0.01111
C 3.70282 4.98135 -0.01275
C 2.43146 4.24069 0.00985
C 2.43873 2.8132 -0.02245
C 3.71974 2.12934 -0.00428
C 3.73959 0.7101 0.03101
C 2.52204 34.06073 -0.01536
C 4.89717 32.64473 -0.02689
C 6.17367 31.9237 -0.01046
C 6.151 30.46389 -0.00891
C 4.92546 29.72566 0.02819
C 4.88639 28.35146 0.00165
C 3.64041 10.64095 0.03592
C 2.46245 11.35695 0.00572
C 2.50527 12.84011 0.0402
C 3.70668 13.54563 -0.02759
C 3.65695 30.48463 0.02147
C 2.4243 29.81944 0.00373
C 2.40213 28.43676 -0.00191
C 3.66664 27.64252 0.00438
C 3.59459 26.28273 0.01291
C 2.38267 25.56727 0.00093
C 2.3649 24.13477 0.00057
C 6.20382 27.75156 -0.02971
C 3.54705 23.46708 -0.01634
C 2.44232 21.32479 0.02339
C 2.46122 19.92748 0.01641
C 3.70918 19.15694 -0.00719
C 3.67865 17.72924 0.01364
C 2.42736 17.04721 -0.01062
C 2.44097 15.61629 -0.00033
C 3.66501 14.97368 0.03589
C 3.65744 22.05742 -0.00334
C 24.55453 28.29582 0.01515
C 6.09113 26.2809 0.02894
C 4.80485 24.09609 0.00444
C 6.14059 2.15437 0.00052
C 6.13479 0.74449 -0.03682
C 4.9203 34.05698 0.01965
C 7.36428 32.5218 0.02058
C 8.5974 31.80938 -0.01957
C 8.67749 30.38799 -0.0108
C 7.44608 29.72938 -0.00368
C 7.50748 28.25383 -0.02696
C 8.71729 27.43364 -0.00114
C 8.7242 25.88597 0.00228
C 7.31813 25.55241 0.00798
C 7.16284 24.10992 0.00422
C 8.57462 23.44737 0.0351
C 8.55493 22.00735 -0.03113
C 7.35093 21.3471 0.02098
C 5.01037 2.91751 0.00374
C 4.9712 4.2887 -0.02813
C 6.18254 4.96077 -0.01952
C 6.17645 6.35501 0.05265
C 6.01855 23.4383 -0.00925
C 6.11495 22.02188 0.01877
C 4.88472 21.32128 0.01363
C 4.87957 19.88674 -0.02162
C 6.13327 19.21021 0.00415
C 6.17229 17.71897 -0.0014
C 4.92358 17.06857 0.02162
C 4.84376 25.58819 -0.01789
C 4.90659 15.65691 0.0076
C 6.13031 13.49913 -0.01454
C 4.88281 12.77132 0.01945
C 4.85903 11.37387 0.01416
C 6.06396 10.58984 0.03542
C 6.12206 9.23394 0.02299
C 4.90863 8.47908 0.00244
C 4.9306 7.02103 -0.01717
C 6.21484 15.0002 0.01241
C 3.66292 31.93981 -0.014
C 25.86751 27.73323 -0.00225
C 24.57874 25.80614 -0.01107
C 33.15244 23.4101 0.01927
C 33.12947 22.00114 0.01574
C 31.9657 21.30954 -0.02383
C 31.98123 19.93045 -0.01429
C 33.18101 19.21705 -0.0136
C 33.13168 17.81227 0.00594
C 31.90647 17.0504 -0.02474
C 31.88163 15.64893 0.00369
C 33.18295 15.03418 0.00455
C 33.20212 13.65179 -0.00644
C 31.92524 12.87523 -0.01839
C 32.0246 11.41069 0.00137
C 33.23052 10.75278 0.00199
C 33.13579 9.33402 0.04381
C 31.9467 8.54245 0.02806
C 31.86593 24.16599 0.03794
C 31.86189 7.15676 0.01504
C 31.90498 25.59442 -0.01779
C 33.14503 27.68707 0.00026
C 30.70876 9.30145 -0.03735
C 29.37006 8.52001 -0.00971
C 29.35175 7.123 0.01518
C 30.59603 6.46923 0.01908
C 30.69296 5.01885 0.07705
C 29.41752 4.29786 0.0103
C 29.52369 2.86357 0.02108
C 30.7793 2.14255 0.00716
C 30.77164 0.69583 0.00307
C 29.5955 0.02414 0.00346
C 31.98584 32.68592 0.01713
C 33.2088 31.95366 -0.01694
C 33.18092 30.53018 0.01428
C 31.96623 29.82075 -0.02142
C 31.88888 28.42695 0.0544
C 33.10062 26.26645 0.00682
C 33.14389 6.46421 -0.00069
C 33.10484 5.02132 0.04926
C 31.9465 4.29053 -0.03838
C 34.39046 15.72321 0.02114
C 1.20046 14.98708 -0.02957
C 1.28463 13.56354 0.00343
C 0.02803 12.8964 -0.02656
C 0.05463 11.50657 -0.02442
C 1.22721 10.70915 -0.00027
C 1.1987 9.28578 -0.00583
C 34.35775 8.62597 -0.02302
C 34.3567 7.23627 -0.02849
C 1.11325 6.45015 0.02931
C 1.16167 5.00624 0.00628
C 34.38224 4.31403 -0.0345
C 34.36137 2.87212 -0.00931
C 1.21382 2.15084 -0.00939
C 1.23912 0.70651 -0.00468
C 34.42659 17.11277 0.00648
C 1.27873 17.77195 0.01223
C 1.19327 19.21724 -0.01678
C 34.38677 19.95997 0.01951
C 32.00548 2.85692 0.00349
C 33.20334 2.16914 -0.00323
C 33.19765 0.71074 -0.00841
C 32.00279 0.05141 0.0001
C 34.42366 32.6289 -0.02927
C 1.2446 31.98647 -0.01404
C 1.23008 30.51006 0.01027
C 30.69581 10.69328 -0.00944
C 34.43025 29.7904 0.01831
C 1.12165 27.65483 -0.00439
C 1.16924 26.30965 -0.00598
C 34.38264 25.54738 -0.05239
C 34.35829 24.1217 0.03076
C 1.17626 23.46227 0.00723
C 1.17605 22.05494 0.02712
C 34.38221 21.37067 -0.02213
C 34.34365 28.44878 -0.01037
C 29.45603 11.3601 -0.02155
C 29.4373 12.7703 -0.01461
C 30.69999 13.54752 -0.01303
C 24.55739 2.73327 -0.00938
C 25.72365 2.11787 -0.0264
C 25.74155 0.74046 -0.01154
C 24.4818 0.00664 0.00684
C 27.02296 32.70864 -0.01052
C 28.32745 32.02371 -0.01679
C 28.2286 30.57618 0.00367
C 27.03877 29.90411 0.04306
C 27.01324 28.45687 0.00996
C 28.23036 27.7345 0.00195
C 28.24647 26.33492 -0.00802
C 27.10678 25.55931 -0.00218
C 27.02157 24.10787 -0.01654
C 28.25807 23.43149 -0.00037
C 28.22604 22.05648 -0.0032
C 24.58194 4.14746 -0.00229
C 25.79878 4.91489 -0.01199
C 25.70887 6.27196 -0.009
C 24.41074 7.1552 -0.00285
C 24.59556 24.30448 -0.01586
C 25.78109 23.53385 -0.01971
C 25.77212 22.0243 -0.02118
C 24.5244 21.38656 0.00733
C 24.52799 19.83545 -0.00178
C 25.76556 19.20284 0.00768
C 25.83441 17.79592 -0.0276
C 27.00966 21.24732 0.00622
C 24.58115 17.06842 0.03005
C 25.80033 14.81921 0.02117
C 25.68973 13.41934 0.02737
C 24.41446 12.62176 -0.00498
C 24.50427 11.25067 0.00135
C 25.78617 10.64375 0.03102
C 25.71506 9.25486 0.02555
C 24.62996 8.31452 0.01423
C 24.59162 15.60753 -0.04078
C 25.92628 26.36684 0.00071
C 27.00205 19.84627 -0.02815
C 28.24044 17.7723 0.00487
C 29.45928 29.83954 0.0014
C 29.45728 28.43986 0.00924
C 30.66612 27.71087 0.02326
C 30.67783 26.36918 0.00261
C 29.45718 25.6661 0.03265
C 29.51967 24.18901 -0.02049
C 30.68482 23.378 -0.01854
C 30.64969 21.99475 -0.01415
C 29.44946 21.29881 -0.03039
C 29.47395 19.89675 0.01836
C 30.70675 19.17696 0.03531
C 30.71898 17.75036 -0.00669
C 29.47977 17.04939 0.0101
C 29.44556 15.59238 0.01705
C 30.71537 14.93861 -0.0405
C 30.72954 30.60286 0.01324
C 30.76143 31.99771 0.04266
C 29.48192 32.71512 0.01177
C 27.03337 0.07051 -0.00416
C 27.07437 16.98836 0.00826
C 27.05196 15.5498 -0.00294
C 28.27697 14.86869 0.00152
C 28.24084 13.47374 0.01257
C 26.92097 12.7511 0.02316
C 26.95245 11.33866 0.04185
C 28.15531 10.59585 0.00194
C 28.27349 19.18655 -0.00942
C 28.14827 9.1971 -0.00621
C 26.92188 7.10161 0.02198
C 28.14728 6.38594 0.01094
C 28.22337 4.98557 0.00235
C 26.9966 4.24024 0.01495
C 27.01674 2.81347 0.01259
C 28.27609 2.14705 0.01799
C 28.26982 0.74179 0.01699
C 26.92461 8.49429 0.02611
C 2.49016 32.65263 -0.01118
