354
Graphene
C 34.41397 0.03085 0.01295
C 12.33083 7.12868 -0.02696
C 13.51627 6.36181 -0.00114
C 13.46507 4.98881 0.00228
C 12.22117 4.31549 0.00798
C 12.23051 2.84843 0.00422
C 13.48643 2.00784 0.0351
C 13.504 0.58438 -0.03113
C 12.26457 34.02141 0.02098
C 12.33486 8.6244 -0.00368
C 14.70702 32.49701 0.01848
C 15.95911 30.17415 -0.02162
C 14.64409 29.77901 0.00889
C 15.79575 17.59006 -0.00481
C 14.7895 17.04263 0.00979
C 14.66359 15.51471 0.01443
C 15.8892 14.8898 0.03505
C 15.9551 13.52743 -0.02815
C 14.75057 12.92995 -0.04147
C 15.92402 31.72773 -0.00619
C 14.7347 11.45401 -0.05302
C 13.5104 9.31778 -0.0108
C 12.16939 11.39411 0.02058
C 11.03282 10.68349 -0.0014
C 11.04152 9.28246 0.02162
C 9.76006 8.55357 0.0076
C 9.8228 7.18268 0.01241
C 11.07777 6.38062 -0.01454
C 11.04347 5.00221 0.01945
C 9.79303 4.31486 0.01416
C 9.79578 2.84626 0.03542
C 13.48027 10.76471 -0.01957
C 11.07699 2.09714 0.02299
C 9.79069 0.05814 -0.01717
C 12.10937 32.51153 0.05265
C 13.38592 31.82974 -0.01952
C 13.68225 30.38362 -0.02813
C 12.18096 15.67887 0.00374
C 13.31781 14.97431 0.00052
C 13.40596 13.57707 -0.03682
C 12.16292 12.87831 0.01965
C 11.06572 0.67308 0.00244
C 9.78415 11.35436 0.00415
C 15.92642 10.67618 0.00213
C 14.69435 8.55261 -0.00289
C 17.13399 8.56362 0.00143
C 17.17543 7.06013 -0.017
C 18.46064 6.36368 0.00364
C 18.47569 4.8951 -0.00831
C 17.2165 4.25258 -0.02957
C 17.17964 2.7867 -0.04422
C 18.36893 2.07232 0.00654
C 18.37256 0.64836 -0.00703
C 18.39935 9.25781 0.00667
C 17.20948 34.00902 -0.04076
C 20.85448 31.89346 0.0058
C 20.86083 30.37177 -0.00865
C 19.65375 29.72679 0.00675
C 19.83917 28.2146 -0.00311
C 21.02992 27.69158 0.00742
C 19.46638 19.82993 -0.01594
C 20.9259 19.33253 0.0106
C 20.88018 17.89846 -0.01154
C 19.61642 32.59977 -0.00652
C 15.88886 9.27977 -0.00066
C 18.3228 10.64588 -0.0054
C 17.19892 12.81095 0.01739
C 14.75841 7.10485 0.00028
C 15.92507 6.41976 -0.02213
C 15.97576 4.95986 0.03698
C 14.6574 4.20831 -0.00109
C 14.66273 2.78206 -0.00491
C 15.91402 2.07685 0.03338
C 15.9709 0.61038 -0.0258
C 14.75156 33.97509 -0.0331
C 17.09994 11.35867 0.00755
C 17.16185 32.54931 -0.00316
C 18.4541 30.3732 -0.01979
C 17.22523 29.64333 0.02691
C 18.50667 19.199 -0.01581
C 18.33207 17.83143 0.01452
C 17.15934 17.17924 0.04892
C 17.17844 15.74159 -0.00111
C 18.37119 14.96841 -0.03557
C 18.50497 13.5295 0.03754
C 18.36966 31.78782 0.02188
C 9.77915 12.78344 -0.02162
C 10.95041 13.55359 0.01363
C 10.90101 15.16939 0.01877
C 2.5287 7.155 0.00054
C 3.69845 6.39266 0.03007
C 3.68421 4.94577 -0.00095
C 2.4244 4.33981 0.01572
C 2.3973 2.8712 -0.04848
C 3.6756 2.16533 -0.00892
C 3.63324 0.75216 -0.01362
C 2.37051 0.07579 -0.0008
C 2.38982 8.56121 -0.00494
C 4.90833 32.7691 0.0288
C 6.2313 30.57708 0.00895
C 4.93291 29.95585 0.00685
C 4.99846 28.44851 0.02888
C 6.36477 28.03801 -0.00482
C 4.81685 25.55485 -0.01384
C 4.72011 24.35559 0.03693
C 4.83124 21.34706 0.01745
C 5.08224 20.05519 0.00488
C 6.12041 32.02659 0.00393
C 6.11141 19.11517 -0.01004
C 3.61129 9.27849 -0.00562
C 2.46366 11.42824 0.01849
C 3.69131 30.55097 -0.01343
C 2.42679 29.88255 0.00988
C 2.46855 28.43364 0.0276
C 3.75275 27.79609 0.01305
C 3.729 26.41525 -0.00077
C 2.45992 25.64001 0.03368
C 2.41376 24.1432 -0.02929
C 3.59876 23.53669 -0.00966
C 3.66639 10.70089 -0.01142
C 3.67557 22.11909 -0.03337
C 2.46936 19.90998 0.00873
C 3.75494 19.24894 -0.00049
C 3.81619 17.81169 0.00848
C 2.45142 17.14677 -0.01303
C 2.33845 15.79159 -0.01378
C 3.59633 15.02563 0.02635
C 3.52936 13.61505 0.0127
C 2.32954 12.82818 0.01396
C 2.41347 21.32082 0.01227
C 6.44403 17.7468 -0.02896
C 5.13349 17.07949 -0.00131
C 4.90115 15.63668 -0.01118
C 7.30345 12.81883 0.02841
C 7.33462 11.38624 -0.01111
C 8.54041 10.71982 -0.01275
C 8.53612 9.28431 0.00985
C 7.37145 8.59101 -0.02245
C 7.39071 7.186 -0.00428
C 8.60169 6.46553 0.03101
C 8.56771 4.98416 -0.01536
C 8.52874 13.39288 0.00943
C 7.35862 4.2693 -0.02689
C 8.6096 2.17827 -0.00891
C 8.64717 0.75658 0.02819
C 7.39753 0.09524 0.00165
C 9.67515 32.76736 -0.02971
C 10.74949 31.90069 0.02894
C 9.92618 30.45058 -0.01789
C 8.91054 17.20049 0.00444
C 9.58175 15.80965 -0.00925
C 7.30329 2.86509 -0.01046
C 8.522 14.79907 0.00406
C 7.30209 15.50575 0.03592
C 7.43165 16.95687 0.00572
C 6.08017 14.9744 -0.014
C 6.07665 13.53965 0.02147
C 4.77118 12.76539 0.00373
C 4.85713 11.44648 -0.00191
C 6.16277 10.69139 0.00438
C 6.18152 9.29608 0.01291
C 4.92502 8.59467 0.00093
C 4.9384 7.07772 0.00057
C 6.16686 6.41082 -0.01634
C 6.11616 4.91995 -0.00334
C 4.86398 4.28453 0.02339
C 4.84811 2.88515 0.01641
C 6.09087 2.168 -0.00719
C 6.12097 0.74187 0.01364
C 4.93972 0.08365 -0.01062
C 7.35259 32.71071 -0.00033
C 8.55443 32.00734 0.03589
C 8.66228 30.5854 -0.02759
C 7.40759 29.88086 0.0402
C 19.57311 17.08916 -0.01721
C 19.69525 15.65291 -0.02422
C 20.97272 14.96512 0.01277
C 20.89696 13.46434 0.00096
C 30.70655 4.88271 0.01713
C 29.47981 4.27668 -0.01694
C 29.42827 2.83358 0.01428
C 30.69377 2.1884 -0.02142
C 30.72943 0.75769 0.0544
C 29.4358 0.05152 0.00026
C 31.916 32.68697 0.00682
C 33.19463 31.95878 -0.01779
C 30.73448 6.37524 0.00346
C 33.16388 30.54286 0.03794
C 31.94389 28.45903 0.01574
C 33.24739 27.8382 -0.02383
C 33.2376 26.34467 -0.01429
C 31.98075 25.62134 -0.0136
C 31.89663 24.18621 0.00594
C 33.17018 23.48044 -0.02474
C 33.09755 22.09319 0.00369
C 33.05677 14.90445 0.00455
C 31.89486 29.84822 0.01927
C 32.86863 13.53131 -0.00644
C 29.48459 7.03221 0.00307
C 30.67582 9.13399 0.02108
C 26.93801 4.23842 -0.01415
C 26.98772 2.81755 -0.03039
C 28.18675 2.18905 0.01836
C 28.19372 0.78867 0.03531
C 27.03323 34.06455 -0.00669
C 29.50874 32.66714 0.0101
C 30.73432 31.92943 0.01705
C 30.69602 30.53699 -0.0405
C 29.5047 8.42451 0.00716
C 29.43506 29.73953 -0.01303
C 30.74993 27.78267 -0.02155
C 30.71014 26.27604 -0.00944
C 29.56571 25.47974 -0.03735
C 29.55263 23.89329 -0.00971
C 30.82335 23.37597 0.01518
C 30.41458 12.74161 0.01908
C 29.69334 11.43317 0.07705
C 30.70937 10.5144 0.0103
C 29.48898 28.3326 -0.01461
C 31.82536 12.70627 -0.01839
C 31.92275 11.20586 0.00137
C 33.1386 10.62822 0.00199
C 1.24667 19.28243 -0.01678
C 1.26025 17.88455 0.01223
C 0.00563 17.12991 0.00648
C 34.15711 15.779 0.02114
C 1.07676 15.00741 -0.02957
C 1.0374 13.63272 0.00343
C 34.27448 12.76838 -0.02656
C 34.36928 11.43618 -0.02442
C 34.29262 19.88127 0.01951
C 1.17909 10.68427 -0.00027
C 34.39849 8.52681 -0.02302
C 0.01721 7.10685 -0.02849
C 1.19095 6.43672 0.02931
C 1.2233 4.98985 0.00628
C 34.41274 4.26559 -0.0345
C 34.32904 2.84939 -0.00931
C 1.1487 2.18202 -0.00939
C 1.16652 0.76769 -0.00468
C 1.16919 9.26951 -0.00583
C 34.22646 21.23105 -0.02213
C 1.0677 21.9398 0.02712
C 1.139 23.4143 0.00723
C 33.14649 9.22095 0.04381
C 31.98005 8.46591 0.02806
C 32.00156 7.05643 0.01504
C 33.25607 6.38068 -0.00069
C 33.20166 4.91356 0.04926
C 31.96873 4.23323 -0.03838
C 31.89908 2.8845 0.00349
C 33.15896 2.14212 -0.00323
C 33.14266 0.70341 -0.00841
C 31.93171 0.04815 0.0001
C 34.38717 32.73543 -0.02927
C 1.21146 32.00853 -0.01404
C 1.22245 30.61077 0.01027
C 0.00709 29.9291 0.01831
C 0.01842 28.5539 -0.01037
C 1.24206 27.75617 -0.00439
C 1.2244 26.29061 -0.00598
C 34.40287 25.61149 -0.05239
C 34.38669 24.14838 0.03076
C 28.20006 4.95948 -0.01854
C 3.70229 31.98385 0.01087
C 28.2763 6.36611 -0.02049
C 27.11296 8.54864 0.00261
C 23.27872 23.45117 -0.01107
C 23.22863 22.05227 -0.01586
C 21.9191 21.45858 -0.01971
C 22.0248 20.07989 -0.02118
C 23.43736 19.52049 0.00733
C 23.32723 18.08359 -0.00178
C 22.16339 17.18697 0.00768
C 22.21107 15.77512 -0.0276
C 22.20083 24.39368 0.00071
C 23.37186 15.02655 0.03005
C 22.14884 12.84436 0.02117
C 22.1408 11.36845 0.02737
C 23.39304 10.66261 -0.00498
C 23.33322 9.30503 0.00135
C 22.07656 8.55915 0.03102
C 22.11929 7.11798 0.02555
C 23.29019 6.43214 0.01423
C 23.31132 5.0051 -0.00285
C 23.38504 13.61927 -0.04078
C 22.05399 4.32363 -0.009
C 22.22672 25.61809 -0.00225
C 23.46819 27.73624 -0.0055
C 19.66749 12.78784 -0.01527
C 19.67448 11.31997 0.01087
C 20.90685 10.66278 0.00199
C 20.86781 9.27631 0.01511
C 19.65179 8.6299 -0.00478
C 19.67936 7.16487 -0.01662
C 20.93442 6.40737 -0.01185
C 20.83168 4.96848 0.01126
C 23.4178 26.34231 0.01515
C 19.61145 4.20137 0.01852
C 20.77675 2.07311 0.03046
C 20.88493 0.54705 0.0296
C 19.60355 34.03388 0.03374
C 22.13677 32.61814 -0.02845
C 23.35076 31.85996 -0.03213
C 23.32596 30.53792 0.02239
C 22.17282 29.74064 0.01153
C 22.28053 28.40158 0.02734
C 19.54089 2.78958 -0.00381
C 22.01772 2.82527 -0.01199
C 23.20179 2.09858 -0.00229
C 23.34146 0.61849 -0.00938
C 24.52876 2.81276 0.04185
C 25.72095 2.10152 0.00194
C 25.78458 0.71585 -0.00621
C 24.56228 0.00754 0.02611
C 26.9574 32.64389 0.02198
C 28.24808 31.96254 0.01094
C 28.22064 30.4803 0.00235
C 26.9477 29.826 0.01495
C 24.48579 4.28649 0.02316
C 27.07982 28.3623 0.01259
C 28.31781 26.13537 0.01699
C 27.0791 25.51073 -0.00416
C 27.01003 23.98061 0.01177
C 28.31606 23.40671 0.04266
C 26.98165 12.80446 0.01324
C 27.20849 11.4256 0.0014
C 28.42933 10.80299 0.00924
C 28.37264 9.26426 0.02326
C 28.30734 27.5947 0.01799
C 25.75572 4.97631 0.01257
C 25.82518 6.37237 0.00152
C 24.54101 7.09178 -0.00294
C 22.09314 34.0106 -0.0264
C 24.554 32.59896 -0.01154
C 25.73672 31.99202 0.00684
C 25.77735 30.51261 -0.01052
C 24.63044 29.80345 -0.01679
C 24.63132 28.42988 0.00367
C 25.89293 27.66131 0.04306
C 25.92817 26.27098 0.00996
C 24.66552 25.54793 0.00195
C 24.55403 24.12607 -0.00802
C 25.79183 23.3363 -0.00218
C 25.5963 21.89816 -0.01654
C 24.45687 21.31966 -0.00037
C 25.92025 13.31583 -0.0032
C 24.49625 12.91486 0.00622
C 24.6469 11.40789 -0.02815
C 25.88274 10.67742 -0.00942
C 25.83845 9.17982 0.00487
C 24.58911 8.50514 0.00826
C 27.07833 7.12044 0.03265
C 2.46992 32.66351 -0.05697
