399
Graphene
C 0.01529 0.01834 0.01295
C 13.54744 19.23541 -0.02971
C 13.58421 17.7583 0.02894
C 12.35661 17.16328 -0.01789
C 12.41398 7.10817 0.00444
C 13.55697 6.26525 -0.00925
C 13.48467 4.88653 0.01877
C 12.29695 4.28945 0.01363
C 12.3169 2.82564 -0.02162
C 13.51139 2.11306 0.00415
C 13.56474 0.62987 -0.0014
C 12.31502 34.03944 0.02162
C 14.818 32.56512 0.0076
C 16.0507 31.93654 0.01241
C 16.05385 30.47649 -0.01454
C 14.79545 29.71799 0.01945
C 14.79373 28.37531 0.01416
C 16.01045 27.71353 0.03542
C 16.04689 26.2781 0.02299
C 14.73075 25.57081 0.00244
C 14.70691 24.13635 -0.01717
C 16.03304 23.42905 0.05265
C 12.29663 19.92964 0.00165
C 15.93554 22.03584 -0.01952
C 12.25041 21.25537 0.02819
C 13.43982 23.44652 -0.01046
C 9.8376 19.87345 0.01641
C 11.07842 19.16337 -0.00719
C 11.01788 17.65166 0.01364
C 9.73869 17.08142 -0.01062
C 9.8479 7.13063 -0.00033
C 11.09806 6.66665 0.03589
C 11.07208 5.0753 -0.02759
C 9.85398 4.37727 0.0402
C 9.90232 2.88074 0.00572
C 11.06189 2.14008 0.03592
C 11.07532 0.69458 0.00406
C 9.83579 0.02342 0.00943
C 12.35492 32.6295 0.02841
C 13.58857 31.86428 -0.01111
C 13.55609 30.47623 -0.01275
C 12.24708 29.79697 0.00985
C 12.2938 28.35586 -0.02245
C 13.53388 27.69515 -0.00428
C 13.48031 26.2809 0.03101
C 12.26517 25.62821 -0.01536
C 12.23404 24.24724 -0.02689
C 13.48337 22.00427 -0.00891
C 9.75849 21.26591 0.02339
C 14.69592 21.41268 -0.02813
C 15.9643 19.1038 0.00052
C 18.47109 23.45101 0.00213
C 18.35076 22.08235 -0.00066
C 17.14671 21.34073 -0.00289
C 17.22127 19.93023 0.00028
C 18.40442 19.22831 -0.02213
C 18.45321 17.80502 0.03698
C 17.25188 17.01941 -0.00109
C 17.23854 15.59809 -0.00491
C 18.44855 14.88278 0.03338
C 18.49028 13.48244 -0.0258
C 17.35626 12.68649 -0.0331
C 17.24333 11.31318 -0.00316
C 18.43733 10.60524 0.02188
C 18.35776 9.1829 -0.01979
C 17.03885 8.57823 0.02691
C 17.17468 7.13772 -0.01581
C 18.45324 6.45517 0.01452
C 18.35388 4.98305 0.04892
C 17.17625 4.21174 -0.00111
C 17.11785 2.78947 -0.03557
C 18.39308 2.11663 0.03754
C 17.22358 24.16495 -0.05302
C 14.79089 19.92391 0.00374
C 17.27914 25.56762 -0.04147
C 18.47477 27.69236 0.03505
C 16.01887 17.70801 -0.03682
C 14.78013 17.03298 0.01965
C 14.63233 15.62136 0.02058
C 15.83187 14.88558 -0.01957
C 16.13543 13.45659 -0.0108
C 15.96159 10.76733 -0.00368
C 15.69627 9.35289 -0.02696
C 14.59081 8.53443 -0.00114
C 14.72923 7.1208 0.00228
C 15.97021 6.38343 0.00798
C 15.87369 4.96421 0.00422
C 14.68529 4.19084 0.0351
C 14.73242 2.8044 -0.03113
C 15.94572 2.08599 0.02098
C 16.00376 0.6262 0.01848
C 14.80251 33.99956 -0.00619
C 17.31416 32.59729 -0.02162
C 18.52132 31.88137 0.00889
C 18.62195 30.41168 -0.00481
C 17.34439 29.74657 0.00979
C 17.26826 28.40574 0.01443
C 18.49182 26.30239 -0.02815
C 18.41246 0.65628 0.01739
C 11.01852 22.00307 -0.00334
C 9.81673 24.20849 0.00057
C 2.3688 4.30689 0.0073
C 2.44191 2.88976 0.0174
C 3.67483 2.21873 0.03828
C 3.68173 0.80278 0.01226
C 2.39151 0.10809 -0.00279
C 4.91015 32.68996 0.01996
C 6.12712 32.02237 -0.03996
C 6.11602 30.5877 0.01465
C 4.84043 29.91023 -0.00074
C 4.8403 28.44632 -0.00518
C 6.02329 27.73911 0.0086
C 6.01054 26.29114 -0.00643
C 4.86951 25.59194 0.017
C 4.91175 24.13096 -0.03113
C 6.11637 23.47084 -0.02566
C 6.19506 22.00929 -0.00094
C 4.96199 21.2348 0.02322
C 4.89642 19.84653 -0.00725
C 6.10326 19.18923 -0.05697
C 6.08288 17.77585 0.01087
C 4.86302 17.00431 -0.01343
C 3.65979 5.01734 0.00402
C 4.95194 15.63153 0.00988
C 3.66588 6.45099 0.02374
C 2.41701 8.58 -0.01509
C 3.61922 30.58141 0.00211
C 2.38786 29.87324 -0.00449
C 2.41051 28.42801 -0.01979
C 3.61236 27.74337 0.02784
C 3.65864 26.30654 -0.01977
C 2.45816 25.57565 -0.00561
C 2.45419 24.14784 0.00208
C 3.66073 23.40001 0.01707
C 3.69988 21.99208 0.02769
C 2.4614 21.22571 -0.03291
C 2.40902 19.85566 -0.04999
C 3.6482 19.22491 0.04505
C 3.59192 17.7979 0.03284
C 2.38854 17.05098 -0.04307
C 2.4124 15.64925 0.03189
C 3.69405 14.94939 0.00031
C 3.67136 13.54932 -0.003
C 2.41252 12.74884 0.01402
C 2.45241 11.35583 0.02379
C 3.63173 10.71173 0.00907
C 3.68092 9.27761 0.00643
C 2.48115 7.14295 0.03267
C 11.02166 23.54587 -0.01634
C 6.33117 14.79599 0.0276
C 4.8883 12.79028 -0.00077
C 8.66634 19.16859 0.0288
C 8.54406 17.80787 0.00393
C 7.2893 17.09095 0.00895
C 7.2928 15.70114 0.00685
C 7.34052 8.52385 0.02888
C 7.32673 7.11859 -0.00482
C 8.58985 6.38709 -0.01384
C 8.5758 5.02797 0.03693
C 7.35323 4.29393 0.01745
C 7.37755 2.90021 0.00488
C 8.62554 2.16442 -0.01004
C 8.63147 0.79448 -0.02896
C 7.3803 0.10546 -0.00131
C 9.84459 32.67823 -0.01118
C 11.09613 32.00333 -0.014
C 11.04064 30.61104 0.02147
C 9.76791 29.95413 0.00373
C 9.74404 28.52433 -0.00191
C 11.01693 27.7018 0.00438
C 10.9834 26.30494 0.01291
C 9.8352 25.61087 0.00093
C 7.41361 19.8708 -0.0008
C 6.1191 13.46492 0.01305
C 7.38424 21.26656 -0.01362
C 8.59052 23.43523 -0.04848
C 4.86651 11.39209 0.03368
C 6.05536 10.70412 -0.02929
C 6.31545 9.38261 -0.00966
C 5.00993 8.57289 -0.03337
C 4.88649 7.16551 0.01227
C 6.12723 6.43755 0.00873
C 6.12619 4.97388 -0.00049
C 4.851 4.29986 0.00848
C 4.91019 2.92142 -0.01303
C 6.09893 2.21496 -0.01378
C 6.09954 0.6985 0.02635
C 4.84091 0.03393 0.0127
C 7.37695 32.72463 0.01396
C 8.59667 32.05712 0.01849
C 8.5949 30.62929 -0.01142
C 7.31944 29.87515 -0.00562
C 7.24093 28.45145 -0.00494
C 8.51766 27.76612 0.00054
C 8.57752 26.31402 0.03007
C 7.3194 25.59673 -0.00095
C 7.33391 24.19513 0.01572
C 8.62347 22.01037 -0.00892
C 3.66842 31.96474 0.0064
C 17.21855 33.97439 0.00755
C 20.88007 32.0115 0.00667
C 29.46065 7.02823 0.01518
C 30.68734 6.37575 0.01908
C 30.69254 4.94759 0.07705
C 29.44741 4.19271 0.0103
C 29.52521 2.84903 0.02108
C 30.69771 2.07013 0.00716
C 30.72311 0.66976 0.00307
C 29.4932 34.04418 0.00346
C 31.99487 32.58214 0.01713
C 33.30389 31.91068 -0.01694
C 33.25367 30.52752 0.01428
C 31.98607 29.79849 -0.02142
C 31.9633 28.35157 0.0544
C 33.12625 27.64188 0.00026
C 33.21527 26.248 0.00682
C 32.03918 25.51816 -0.01779
C 31.97347 24.12987 0.03794
C 33.2284 23.37503 0.01927
C 33.22778 22.01528 0.01574
C 32.00933 21.35037 -0.02383
C 31.95938 19.92324 -0.01429
C 29.47207 8.45911 -0.00971
C 33.19113 19.1691 -0.0136
C 30.67938 9.2779 -0.03735
C 29.50335 11.42055 -0.02155
C 27.05075 0.07165 -0.00416
C 29.4138 32.68728 0.01177
C 30.71707 31.9033 0.04266
C 30.64093 30.46748 0.01324
C 29.29407 29.65831 0.0014
C 29.55239 28.33122 0.00924
C 30.78743 27.60792 0.02326
C 30.81801 26.23209 0.00261
C 29.61566 25.59352 0.03265
C 29.27387 24.22941 -0.02049
C 30.66887 23.46217 -0.01854
C 30.663 22.01806 -0.01415
C 29.45018 21.31411 -0.03039
C 29.48113 19.8913 0.01836
C 30.68606 19.20863 0.03531
C 30.72951 17.7732 -0.00669
C 29.47798 17.08917 0.0101
C 29.36061 15.63437 0.01705
C 30.63137 14.9309 -0.0405
C 30.62973 13.48002 -0.01303
C 29.38845 12.83075 -0.01461
C 30.6758 10.60575 -0.00944
C 28.28398 0.74062 0.01699
C 33.11972 17.75643 0.00594
C 31.89629 15.69701 0.00369
C 1.24407 22.04715 0.02712
C 0.00603 21.35426 -0.02213
C 0.02447 19.89737 0.01951
C 1.27677 19.15703 -0.01678
C 1.17914 17.7082 0.01223
C 34.35818 17.01464 0.00648
C 34.3766 15.64466 0.02114
C 1.20649 14.9338 -0.02957
C 1.19897 13.49315 0.00343
C 34.38926 12.70987 -0.02656
C 34.40909 11.35569 -0.02442
C 1.22105 10.66916 -0.00027
C 1.22942 9.2249 -0.00583
C 34.41529 8.45953 -0.02302
C 34.41192 7.06593 -0.02849
C 1.22413 6.46023 0.02931
C 1.15474 5.05591 0.00628
C 34.36743 4.33076 -0.0345
C 34.35063 2.94338 -0.00931
C 1.18975 2.23002 -0.00939
C 1.21431 0.78255 -0.00468
C 1.26135 23.43812 0.00723
C 31.91855 17.10384 -0.02474
C 0.00501 24.06119 0.03076
C 1.21679 26.22559 -0.00598
C 33.15015 14.96409 0.00455
C 33.16829 13.50358 -0.00644
C 31.89533 12.76902 -0.01839
C 31.92047 11.30931 0.00137
C 33.14912 10.68132 0.00199
C 33.11795 9.2606 0.04381
C 31.92276 8.48448 0.02806
C 31.9042 7.07625 0.01504
C 33.14445 6.38642 -0.00069
C 33.10347 5.00409 0.04926
C 31.89044 4.22199 -0.03838
C 31.92871 2.82882 0.00349
C 33.17639 2.16399 -0.00323
C 33.2142 0.72302 -0.00841
C 31.99034 34.06587 0.0001
C 0.03426 32.67833 -0.02927
C 1.26497 31.99966 -0.01404
C 1.19009 30.57608 0.01027
C 34.41623 29.81772 0.01831
C 34.34886 28.40507 -0.01037
C 1.18004 27.65383 -0.00439
C 34.41579 25.50436 -0.05239
C 19.67001 32.63413 -0.0054
C 28.30437 2.11935 0.01799
C 26.96227 4.23637 0.01495
C 19.60808 2.85167 0.01511
C 20.90314 2.14638 -0.00478
C 20.88701 0.71044 -0.01662
C 19.65796 34.03964 -0.01185
C 22.13656 32.73305 0.01126
C 23.25368 32.01164 0.01852
C 23.19731 21.87707 -0.00381
C 22.01007 21.2011 0.03046
C 22.1285 19.83944 0.0296
C 23.33227 19.13548 0.03374
C 23.39889 17.71506 -0.02845
C 22.20479 16.9538 -0.03213
C 22.24023 15.60809 0.02239
C 23.50299 14.88144 0.01153
C 23.60875 13.43945 0.02734
C 22.2739 12.7301 -0.0055
C 22.16363 11.33061 0.01515
C 23.39298 10.62451 -0.00225
C 23.45627 9.24836 0.00071
C 22.23481 8.48407 -0.01107
C 22.18549 7.0968 -0.01586
C 19.60642 4.30927 0.00199
C 23.39685 6.41324 -0.01971
C 20.87605 4.93691 0.01087
C 19.67225 7.06176 0.00096
C 21.11656 30.5732 0.00143
C 19.99682 29.69912 -0.017
C 19.89011 28.27551 0.00364
C 20.77851 26.61598 -0.00831
C 19.71653 25.67949 -0.02957
C 19.7971 24.19011 -0.04422
C 20.99719 23.45635 0.00654
C 20.84219 21.96749 -0.00703
C 19.64614 21.38849 -0.04076
C 19.66532 19.95834 -0.00652
C 20.92323 19.15796 0.0058
C 20.97455 17.7402 -0.00865
C 19.73574 17.06214 0.00675
C 19.7115 15.63942 -0.00311
C 20.96945 14.95407 0.00742
C 20.96859 13.43057 -0.01594
C 19.69157 12.7164 0.0106
C 19.71536 11.30923 -0.01154
C 20.96167 10.57852 -0.01721
C 20.90549 9.16795 -0.02422
C 19.65423 8.49764 0.01277
C 20.88627 6.37171 -0.01527
C 27.06799 2.80494 0.01259
C 23.31543 4.98475 -0.02118
C 22.13915 2.84084 -0.00178
C 27.01056 32.69414 -0.00802
C 28.2263 31.91192 -0.00218
C 28.29287 30.51416 -0.01654
C 28.25094 23.33526 -0.00037
C 28.16498 21.98928 -0.0032
C 26.96388 21.25896 0.00622
C 27.03583 19.83769 -0.02815
C 28.26345 19.1923 -0.00942
C 28.27011 17.78585 0.00487
C 27.03141 17.0665 0.00826
C 26.86337 15.65904 -0.00294
C 28.059 14.91328 0.00152
C 28.13114 13.50517 0.01257
C 26.88977 12.6684 0.02316
C 27.05375 11.28117 0.04185
C 28.28081 10.61106 0.00194
C 28.25511 9.1855 -0.00621
C 27.02647 8.49969 0.02611
C 27.05851 7.13286 0.02198
C 28.2439 6.38337 0.01094
C 28.26626 4.96736 0.00235
C 24.53971 34.04274 0.00195
C 22.10699 4.29259 0.00733
C 25.7271 0.74389 0.00996
C 24.56135 2.89511 0.00367
C 23.3405 2.16416 0.00768
C 23.39552 0.77459 -0.0276
C 22.14298 0.0892 0.03005
C 24.48813 32.57662 -0.04078
C 25.74314 31.99164 0.02117
C 25.76211 21.90417 0.02737
C 24.51375 21.3232 -0.00498
C 24.5371 19.89612 0.00135
C 25.77842 19.18814 0.03102
C 25.82424 17.74658 0.02555
C 24.63918 17.02219 0.01423
C 24.74421 15.56845 -0.00285
C 24.8174 12.71469 -0.009
C 24.68965 11.26782 -0.01199
C 25.81013 10.59025 -0.00229
C 25.83497 9.17276 -0.00938
C 24.6436 8.43583 -0.0264
C 24.67843 7.09903 -0.01154
C 25.84558 6.50781 0.00684
C 25.75724 5.03429 -0.01052
C 24.58717 4.30033 -0.01679
C 25.80416 2.16826 0.04306
C 2.45238 32.67878 -0.00039
