293
Graphene
C 34.29617 0.00175 0.01295
C 11.15606 21.80145 -0.0054
C 9.82226 21.33648 0.00667
C 9.82297 7.02045 0.00143
C 10.85461 6.29455 -0.017
C 11.06303 4.97649 0.00364
C 9.79197 4.23457 -0.00831
C 11.08248 23.36029 0.00755
C 9.85615 2.81344 -0.02957
C 11.11376 0.67932 0.00654
C 9.89338 0.07588 -0.00703
C 12.25749 32.68328 -0.04076
C 13.44399 31.98209 -0.00652
C 13.4082 30.57898 0.0058
C 12.21065 29.84101 -0.00865
C 11.11645 2.23163 -0.04422
C 12.31562 28.40284 0.00675
C 9.90899 24.10871 0.01739
C 11.15656 26.24759 -0.03557
C 7.40574 7.07701 0.03698
C 8.47608 6.35847 -0.00109
C 8.53012 4.9632 -0.00491
C 7.30863 4.2259 0.03338
C 7.35346 2.84508 -0.0258
C 8.61111 2.20132 -0.0331
C 9.98086 25.637 0.03754
C 8.60068 0.78803 -0.00316
C 9.82431 32.71982 -0.01979
C 11.0464 31.95857 0.02691
C 10.99351 30.63702 -0.01581
C 9.79949 29.90095 0.01452
C 9.91847 28.45731 0.04892
C 11.1137 27.75574 -0.00111
C 7.33309 0.10948 0.02188
C 13.55169 27.76458 -0.00311
C 13.54551 26.26634 0.00742
C 12.40702 25.46012 -0.01594
C 14.80752 24.04354 -0.02845
C 16.19935 23.5071 -0.03213
C 16.15376 22.21632 0.02239
C 15.01804 21.36561 0.01153
C 14.84678 7.09906 0.02734
C 16.09391 6.6053 -0.0055
C 14.80818 25.53701 0.03374
C 16.00858 5.10917 0.01515
C 14.71397 3.00857 0.00071
C 15.97394 2.24145 -0.01107
C 15.99818 0.83069 -0.01586
C 14.75818 0.06708 -0.01971
C 17.16484 32.72588 -0.02118
C 18.36593 32.02873 0.00733
C 14.76262 4.46088 -0.00225
C 16.03025 26.30134 0.0296
C 16.00707 27.70661 0.03046
C 14.75018 28.38389 -0.00381
C 12.37805 23.95911 0.0106
C 13.59192 23.18123 -0.01154
C 13.65318 21.68502 -0.01721
C 12.37576 21.39273 -0.02422
C 13.68003 6.53671 0.01277
C 13.55308 5.08865 0.00096
C 12.26595 4.2595 -0.01527
C 12.31236 2.83936 0.01087
C 13.59228 2.13856 0.00199
C 13.60235 0.73642 0.01511
C 12.33377 34.07461 -0.00478
C 14.73172 32.69288 -0.01662
C 15.97976 31.99843 -0.01185
C 15.91064 30.61397 0.01126
C 14.69803 29.87614 0.01852
C 7.36008 8.48681 -0.02213
C 7.29733 20.04478 0.00028
C 7.31513 21.42185 -0.00289
C 8.64163 21.98384 -0.00066
C 3.64129 10.80399 -0.02971
C 3.6365 9.32599 0.02894
C 2.35348 8.62512 -0.01789
C 2.36775 7.18707 0.00444
C 3.646 6.48154 -0.00925
C 3.63401 4.97488 0.01877
C 2.39653 11.47105 0.00165
C 2.38857 4.29245 0.01363
C 3.62984 2.25459 0.00415
C 3.62101 0.85526 -0.0014
C 2.36845 0.01857 0.02162
C 4.77279 32.78172 0.0076
C 6.06444 31.98905 0.01241
C 6.02985 30.55442 -0.01454
C 2.43076 2.86754 -0.02162
C 2.34837 12.84271 0.02819
C 3.61681 13.56889 -0.00891
C 3.57871 14.95149 -0.01046
C 3.5636 30.64983 -0.02759
C 2.33929 29.83909 0.0402
C 2.41702 28.37672 0.00572
C 3.61787 27.76726 0.03592
C 3.63191 26.31111 0.00406
C 2.41415 25.58844 0.00943
C 2.42569 24.15736 0.02841
C 3.66534 23.48067 -0.01111
C 3.66567 21.97918 -0.01275
C 2.4827 21.28911 0.00985
C 2.5134 19.85545 -0.02245
C 3.69037 19.11269 -0.00428
C 3.80404 17.69181 0.03101
C 2.46223 17.02849 -0.01536
C 2.31568 15.6064 -0.02689
C 4.85052 29.88548 0.01945
C 18.3776 30.5822 -0.00178
C 4.82489 28.46374 0.01416
C 6.15103 26.33934 0.02299
C 4.90436 2.89921 -0.03113
C 6.06896 2.14352 0.02098
C 6.12315 0.7703 0.01848
C 4.8739 0.15186 -0.00619
C 7.30648 32.74593 -0.02162
C 8.58127 32.00377 0.00889
C 4.8701 4.31556 0.0351
C 8.52493 30.53319 -0.00481
C 7.35645 28.41696 0.01443
C 8.56049 27.62567 0.03505
C 8.66075 26.29418 -0.02815
C 7.4798 25.57404 -0.04147
C 7.4091 24.16227 -0.05302
C 8.63363 23.47649 0.00213
C 7.29834 29.83864 0.00979
C 6.06736 4.98292 0.00422
C 6.17936 6.43953 0.00798
C 4.89197 7.14853 0.00228
C 4.87571 25.68374 0.00244
C 4.83564 24.19509 -0.01717
C 6.08924 23.53951 0.05265
C 6.132 22.16083 -0.01952
C 4.90051 21.29232 -0.02813
C 4.90198 19.8666 0.00374
C 6.25364 19.12009 0.00052
C 6.23352 17.77252 -0.03682
C 5.12373 17.02132 0.01965
C 4.81671 15.63433 0.02058
C 4.81068 12.86566 -0.01957
C 4.93948 11.53042 -0.0108
C 5.98473 10.71417 -0.00368
C 6.2822 9.43879 -0.02696
C 4.90132 8.63787 -0.00114
C 6.10574 27.73006 0.03542
C 3.56647 32.03872 0.03589
C 17.20035 29.7638 0.00768
C 18.40267 27.52745 0.03005
C 33.2634 21.93197 -0.01429
C 33.34893 19.28005 -0.0136
C 33.07981 17.93747 0.00594
C 31.84377 17.14659 -0.02474
C 31.62577 15.87001 0.00369
C 32.96229 14.97153 0.00455
C 33.10371 23.35073 -0.02383
C 33.08734 13.45799 -0.00644
C 31.83436 11.2895 0.00137
C 33.09562 10.61857 0.00199
C 33.081 9.16577 0.04381
C 31.72062 8.5052 0.02806
C 31.76113 7.07047 0.01504
C 33.05154 6.49572 -0.00069
C 31.90328 12.72578 -0.01839
C 33.15869 4.98377 0.04926
C 31.90509 24.08084 0.01574
C 33.06481 26.1829 0.03794
C 29.14333 6.78803 0.07705
C 30.56142 6.38261 0.0103
C 30.71423 4.98492 0.02108
C 29.44127 4.44604 0.00716
C 29.47172 2.94552 0.00307
C 30.62135 2.24201 0.00346
C 31.72307 25.56318 0.01927
C 30.62316 0.78134 0.01713
C 31.81395 32.7252 0.01428
C 33.06456 31.9786 -0.02142
C 33.06489 30.56689 0.0544
C 31.91008 29.86702 0.00026
C 31.81177 28.37159 0.00682
C 33.0474 27.63915 -0.01779
C 29.38738 0.06511 -0.01694
C 31.95269 4.29464 -0.03838
C 31.90186 2.87903 0.00349
C 33.10563 2.16777 -0.00323
C 1.10697 15.00202 -0.02957
C 1.14604 13.52973 0.00343
C 34.34766 12.87742 -0.02656
C 34.29948 11.36585 -0.02442
C 1.15163 10.73131 -0.00027
C 1.15415 9.36991 -0.00583
C 34.18935 15.68364 0.02114
C 34.36307 8.59148 -0.02302
C 1.14097 6.43294 0.02931
C 1.19105 5.04116 0.00628
C 34.3582 4.30167 -0.0345
C 34.38943 2.91209 -0.00931
C 1.21908 2.20338 -0.00939
C 1.12128 0.78472 -0.00468
C 34.29793 7.19466 -0.02849
C 34.32084 17.09739 0.00648
C 1.19833 17.77865 0.01223
C 1.2914 19.16532 -0.01678
C 33.05848 0.73509 -0.00841
C 31.80925 0.11224 0.0001
C 34.24773 32.71966 -0.02927
C 1.05729 32.01022 -0.01404
C 1.04363 30.57842 0.01027
C 34.31866 29.84301 0.01831
C 34.32854 28.39707 -0.01037
C 1.16168 27.69671 -0.00439
C 1.14082 26.30021 -0.00598
C 34.36363 25.56067 -0.05239
C 34.39803 24.09012 0.03076
C 1.20917 23.38005 0.00723
C 1.30886 21.93598 0.02712
C 34.41951 21.27692 -0.02213
C 0.10867 19.88092 0.01951
C 29.06779 8.26163 0.01908
C 30.48509 9.17536 0.01518
C 30.60566 10.52803 -0.00971
C 29.31772 11.41993 -0.03735
C 19.69131 0.06925 0.04306
C 22.03843 32.48704 0.00996
C 23.27505 31.86102 0.00195
C 23.25822 30.32353 -0.00802
C 22.00333 29.68808 -0.00218
C 23.08099 13.4301 -0.01654
C 20.96753 0.77259 0.00367
C 23.12802 4.81843 -0.00037
C 22.08273 2.84967 0.00622
C 23.36335 2.2147 -0.02815
C 23.35561 0.77392 -0.00942
C 22.13535 0.06664 0.00487
C 24.56222 32.5568 0.00826
C 25.76582 31.91888 -0.00294
C 21.96927 4.29331 -0.0032
C 20.86397 2.18145 -0.01679
C 19.66872 2.87018 -0.01052
C 19.59956 4.35589 0.00684
C 17.30389 25.68091 -0.04078
C 17.27192 24.40537 0.02117
C 17.46192 7.0203 0.02737
C 18.48645 5.00409 -0.00498
C 17.19635 4.41674 0.00135
C 17.22642 2.99644 0.03102
C 18.40917 2.18011 0.02555
C 18.36372 0.69906 0.01423
C 17.19641 0.07086 -0.00285
C 19.75031 32.71254 -0.009
C 20.83656 31.83888 -0.01199
C 20.91599 30.45279 -0.00229
C 19.6007 29.83231 -0.00938
C 19.33565 28.42877 -0.0264
C 20.70917 15.5802 -0.01154
C 25.81629 30.28495 0.00152
C 17.12233 28.43129 -0.0276
C 24.58566 29.78298 0.01257
C 24.36335 13.37841 0.04185
C 28.16845 2.27643 -0.02049
C 28.12965 0.8539 -0.01854
C 26.8704 0.1142 -0.01415
C 29.34152 32.75241 -0.03039
C 30.53307 32.00559 0.01836
C 30.63819 30.56229 0.03531
C 26.95232 3.13666 0.03265
C 29.49887 29.89662 -0.00669
C 30.47384 27.62587 0.01705
C 30.56029 26.2774 -0.0405
C 28.98725 14.78849 -0.01303
C 30.44228 14.88062 -0.01461
C 30.68087 13.52257 -0.02155
C 29.54417 12.74461 -0.00944
C 29.51484 28.53934 0.0101
C 27.07146 4.89891 0.00261
C 28.39174 5.41341 0.02326
C 27.94297 9.25723 0.00924
C 26.10664 10.36275 0.00194
C 25.74871 5.14507 -0.00621
C 24.53298 4.52622 0.02611
C 24.50733 2.96354 0.02198
C 25.83083 2.28679 0.01094
C 25.70131 0.79906 0.00235
C 24.48855 0.02385 0.01495
C 26.92913 32.7189 0.01259
C 28.19056 32.07294 0.01799
C 28.25207 30.59267 0.01699
C 27.17193 29.739 -0.00416
C 28.11802 13.67912 0.01177
C 26.94293 13.01082 0.04266
C 26.94999 11.508 0.01324
C 28.08416 10.65106 0.0014
C 25.63104 13.58005 0.02316
C 2.30807 32.71415 -0.00033
