347
Graphene
C 34.41051 0.07214 0.01295
C 12.30928 3.06538 0.0351
C 13.48964 2.25488 -0.03113
C 13.52226 0.79376 0.02098
C 12.32533 0.07877 0.01848
C 14.66315 32.62196 -0.00619
C 15.89134 31.91677 -0.02162
C 15.97215 30.4943 0.00889
C 14.71602 29.7509 -0.00481
C 14.75179 28.3481 0.00979
C 15.92998 27.58377 0.01443
C 15.99553 26.21129 0.03505
C 14.76251 25.34566 -0.02815
C 14.66768 23.91785 -0.04147
C 15.96317 23.23341 -0.05302
C 15.96569 21.93205 0.00213
C 14.81014 2.70103 -0.00066
C 16.05959 2.13565 -0.00289
C 13.08334 21.92155 0.00422
C 13.43487 23.25425 0.00798
C 12.29975 24.1878 0.00228
C 12.31105 25.56216 -0.00114
C 11.10115 26.19392 0.01945
C 9.79121 25.53528 0.01416
C 9.83913 24.22365 0.03542
C 11.05319 23.44224 0.02299
C 11.13632 21.99319 0.00244
C 9.9691 21.55084 -0.01717
C 9.69822 4.43051 0.05265
C 9.92456 2.96326 -0.01952
C 15.95204 0.65213 0.00028
C 11.20378 2.18801 -0.02813
C 9.79928 0.03595 0.00052
C 12.3358 32.7102 -0.03682
C 13.45372 31.86958 0.01965
C 13.39569 30.38824 0.02058
C 12.22009 29.7395 -0.01957
C 12.2196 28.36252 -0.0108
C 13.50662 27.57157 -0.00368
C 13.56583 26.17053 -0.02696
C 11.00355 0.67743 0.00374
C 14.72305 34.06293 -0.02213
C 17.08002 32.62546 0.03698
C 18.35585 31.92234 -0.00109
C 20.92712 23.46426 -0.02957
C 20.98522 22.07126 -0.04422
C 19.69745 21.3923 0.00654
C 20.90317 4.87114 -0.00703
C 19.77503 4.30926 -0.04076
C 19.62869 2.82222 -0.00652
C 20.85429 2.11852 0.0058
C 20.92323 0.74502 -0.00865
C 19.75565 24.21456 -0.00831
C 19.67222 34.05968 0.00675
C 23.30004 31.89561 0.00742
C 23.33325 30.4948 -0.01594
C 22.06716 29.82034 0.0106
C 22.06049 28.40151 -0.01154
C 23.31168 27.76782 -0.01721
C 23.33135 26.33673 -0.02422
C 22.11364 25.56655 0.01277
C 22.13216 24.20907 0.00096
C 22.12327 32.63518 -0.00311
C 11.0252 27.60175 -0.01454
C 19.65313 25.61506 0.00364
C 20.82997 27.74801 0.00143
C 18.4239 30.47992 -0.00491
C 17.21776 29.7048 0.03338
C 17.23729 28.30538 -0.0258
C 18.51948 27.73394 -0.0331
C 18.4619 26.27035 -0.00316
C 17.21518 25.55527 0.02188
C 17.22286 24.11853 -0.01979
C 18.51171 23.44788 0.02691
C 20.92115 26.33251 -0.017
C 18.5247 21.98996 -0.01581
C 18.49179 2.14637 0.04892
C 18.43275 0.62299 -0.00111
C 17.19372 34.06646 -0.03557
C 19.63405 32.60422 0.03754
C 20.87895 31.94569 0.01739
C 20.88954 30.5598 0.00755
C 19.6151 29.80926 -0.0054
C 19.70611 28.43479 0.00667
C 17.3505 2.88297 0.01452
C 23.34692 23.52464 -0.01527
C 9.77414 28.37951 0.01241
C 11.09786 30.59596 0.02162
C 2.48435 7.1081 -0.0008
C 3.64855 6.37026 0.0288
C 3.68565 4.95422 0.00393
C 2.46101 4.30656 0.00895
C 2.46318 2.87428 0.00685
C 3.68957 2.12862 0.02888
C 3.66468 0.72852 -0.00482
C 2.46289 0.03413 -0.01384
C 4.91472 32.70534 0.03693
C 6.09452 32.00561 0.01745
C 6.12052 30.58739 0.00488
C 4.91576 29.89246 -0.01004
C 4.85304 28.42694 -0.02896
C 6.02167 27.72789 -0.00131
C 6.042 26.33637 -0.01118
C 4.85955 25.57037 -0.014
C 4.80175 24.17389 0.02147
C 2.52021 8.58826 -0.01362
C 3.68528 9.28358 -0.00892
C 3.82658 10.77324 -0.04848
C 2.5498 11.38422 0.01572
C 3.61328 30.53936 -0.00966
C 2.38606 29.82272 -0.03337
C 2.33282 28.38236 0.01227
C 3.61889 27.67966 0.00873
C 3.64501 26.31962 -0.00049
C 2.43865 25.68261 0.00848
C 2.35945 24.20397 -0.01303
C 3.61381 23.40928 -0.01378
C 6.07861 23.47274 0.00373
C 3.70124 22.03075 0.02635
C 2.47206 19.88614 0.01396
C 3.68575 19.12241 0.01849
C 3.50759 17.76521 -0.01142
C 2.37856 17.05097 -0.00562
C 2.3148 15.63062 -0.00494
C 3.5349 14.96532 0.00054
C 3.65582 13.53461 0.03007
C 2.41376 12.86079 -0.00095
C 2.42538 21.28463 0.0127
C 6.15924 22.02775 -0.00191
C 4.95116 21.32112 0.00438
C 4.93727 19.88422 0.01291
C 7.33824 28.49425 -0.00428
C 8.49706 27.66272 0.03101
C 8.58242 26.23775 -0.01536
C 7.37647 25.55927 -0.02689
C 7.36239 24.16537 -0.01046
C 8.58457 23.50519 -0.00891
C 8.63365 22.06996 0.02819
C 7.42595 21.31519 0.00165
C 7.36584 29.87553 -0.02245
C 7.47965 19.97677 -0.02971
C 8.63878 5.09255 -0.01789
C 7.34551 4.34958 0.00444
C 7.42044 2.92447 -0.00925
C 8.65806 2.22464 0.01877
C 8.68837 0.79825 0.01363
C 7.49451 0.0874 -0.02162
C 9.84405 32.67293 0.00415
C 11.08693 31.9769 -0.0014
C 7.41239 7.15078 0.02894
C 9.85119 29.88201 0.0076
C 8.63027 30.53612 0.00985
C 7.36633 32.76413 -0.01111
C 6.27187 19.12578 0.00093
C 5.8417 17.80957 0.00057
C 4.84628 16.94195 -0.01634
C 4.88338 15.49576 -0.00334
C 5.88668 14.40527 0.02339
C 5.00726 13.16589 0.01641
C 5.14473 11.66712 -0.00719
C 5.95579 10.5211 0.01364
C 8.58093 31.99967 -0.01275
C 6.1304 9.18532 -0.01062
C 4.86204 7.11175 0.03589
C 6.2531 6.51405 -0.02759
C 6.06991 5.01831 0.0402
C 4.91885 4.30612 0.00572
C 4.98248 2.81574 0.03592
C 6.1949 2.18884 0.00406
C 6.14272 0.79285 0.00943
C 4.92056 0.04382 0.02841
C 4.87577 8.49776 -0.00033
C 3.72473 31.9705 -0.02929
C 23.37084 22.09011 0.01087
C 21.9363 19.85371 0.01511
C 33.10441 30.54664 0.01428
C 31.95058 29.83095 -0.02142
C 31.90523 28.40854 0.0544
C 33.13103 27.63866 0.00026
C 33.11883 26.22856 0.00682
C 31.85644 25.59865 -0.01779
C 31.93788 24.1201 0.03794
C 33.16343 23.43455 0.01927
C 33.16783 22.01669 0.01574
C 31.93434 21.36124 -0.02383
C 31.95533 19.91446 -0.01429
C 33.16412 19.19959 -0.0136
C 33.20213 17.80017 0.00594
C 31.96794 17.09618 -0.02474
C 31.93286 15.68653 0.00369
C 33.14854 14.93226 0.00455
C 33.1985 13.50829 -0.00644
C 33.16929 31.91671 -0.01694
C 32.00826 32.65779 0.01713
C 29.50177 34.06476 0.00346
C 30.77993 0.72443 0.00307
C 29.48201 20.002 0.01836
C 30.70487 19.25242 0.03531
C 30.68782 17.84141 -0.00669
C 29.47673 17.14955 0.0101
C 29.52292 15.6913 0.01705
C 30.6992 14.90778 -0.0405
C 30.64873 13.48454 -0.01303
C 29.40777 12.75794 -0.01461
C 31.9718 12.82561 -0.01839
C 29.40036 11.36988 -0.02155
C 30.68545 9.1203 -0.03735
C 29.46135 8.50694 -0.00971
C 29.49209 7.10738 0.01518
C 30.7389 6.39813 0.01908
C 30.72166 5.00697 0.07705
C 29.49996 4.30371 0.0103
C 29.50742 2.85354 0.02108
C 30.79876 2.16327 0.00716
C 30.66048 10.65338 -0.00944
C 31.9427 11.34721 0.00137
C 33.17441 10.64105 0.00199
C 33.22364 9.21908 0.04381
C 1.2392 19.22562 -0.01678
C 1.19566 17.79823 0.01223
C 34.38401 17.11976 0.00648
C 34.37181 15.64732 0.02114
C 1.09352 14.91838 -0.02957
C 1.20775 13.53157 0.00343
C 0.07461 12.84387 -0.02656
C 0.01428 11.35366 -0.02442
C 0.00266 19.8934 0.01951
C 1.28511 10.63115 -0.00027
C 0.0072 8.5508 -0.02302
C 0.02858 7.11878 -0.02849
C 1.28112 6.41308 0.02931
C 1.25533 4.99411 0.00628
C 34.42764 4.30372 -0.0345
C 0.04016 2.85257 -0.00931
C 1.23911 2.11422 -0.00939
C 1.20985 0.70808 -0.00468
C 1.26658 9.282 -0.00583
C 29.42866 21.40114 -0.03039
C 34.34809 21.27377 -0.02213
C 1.14862 23.49442 0.00723
C 31.91787 8.52295 0.02806
C 32.00891 7.04061 0.01504
C 33.19817 6.33043 -0.00069
C 33.1994 4.9619 0.04926
C 31.9714 4.31935 -0.03838
C 31.99223 2.84877 0.00349
C 33.20356 2.14359 -0.00323
C 33.1736 0.77408 -0.00841
C 1.09487 22.0596 0.02712
C 32.01528 34.05636 0.0001
C 1.22166 31.96021 -0.01404
C 1.17906 30.59653 0.01027
C 0.01195 29.88312 0.01831
C 34.34151 28.39422 -0.01037
C 1.08596 27.71577 -0.00439
C 1.17213 26.31115 -0.00598
C 0.02457 25.57425 -0.05239
C 34.39854 24.20883 0.03076
C 34.42016 32.6869 -0.02927
C 22.13653 21.28563 0.00199
C 30.73959 22.14303 -0.01415
C 29.43737 24.15849 -0.02049
C 24.61078 21.23399 0.00733
C 24.57113 19.85213 -0.00178
C 25.80091 19.17285 0.00768
C 25.81806 17.74791 -0.0276
C 24.61303 17.01341 0.03005
C 24.61552 15.5617 -0.04078
C 25.84291 14.98334 0.02117
C 25.86614 13.57886 0.02737
C 24.58623 12.82585 -0.00498
C 24.59458 11.59693 0.00135
C 25.71081 10.60922 0.03102
C 25.67945 9.21662 0.02555
C 24.39409 8.40015 0.01423
C 24.54032 7.01257 -0.00285
C 25.7647 6.34514 -0.009
C 25.74071 4.96256 -0.01199
C 24.59276 4.17817 -0.00229
C 25.7607 22.0199 -0.02118
C 25.78812 23.4225 -0.01971
C 24.57773 24.19288 -0.01586
C 24.57719 25.66024 -0.01107
C 23.26136 19.20863 -0.00478
C 23.56522 17.82598 -0.01662
C 22.91182 8.55995 -0.01185
C 22.20563 7.30541 0.01126
C 23.29102 6.337 0.01852
C 23.36809 4.89859 -0.00381
C 22.15239 4.27957 0.03046
C 22.05396 2.81615 0.0296
C 24.49852 2.76064 -0.00938
C 23.27711 2.12738 0.03374
C 22.09092 34.07092 -0.03213
C 24.56997 32.60355 0.02239
C 25.77607 31.90164 0.01153
C 25.79803 30.51723 0.02734
C 24.59729 29.78605 -0.0055
C 24.57901 28.42714 0.01515
C 25.78386 27.7089 -0.00225
C 25.84098 26.26599 0.00071
C 23.31399 0.68246 -0.02845
C 25.79265 2.04396 -0.0264
C 25.85495 0.62554 -0.01154
C 24.63914 0.02102 0.00684
C 28.18232 9.26802 -0.00621
C 26.8771 8.57502 0.02611
C 26.98598 7.12524 0.02198
C 28.257 6.40087 0.01094
C 28.22649 4.9476 0.00235
C 27.01697 4.2529 0.01495
C 27.03378 2.80361 0.01259
C 28.30783 2.18907 0.01799
C 28.18879 10.66356 0.00194
C 28.29216 0.7146 0.01699
C 29.54511 32.66834 0.01177
C 30.70122 31.98262 0.04266
C 30.71555 30.48777 0.01324
C 29.46985 29.8259 0.0014
C 29.43613 28.43174 0.00924
C 30.65708 27.77274 0.02326
C 30.62501 26.30812 0.00261
C 29.44116 25.53898 0.03265
C 27.13454 33.9475 -0.00416
C 30.6799 23.48066 -0.01854
C 26.96299 11.36457 0.04185
C 28.19446 13.52349 0.01257
C 27.18146 32.60874 -0.01052
C 28.32363 31.96557 -0.01679
C 28.30384 30.56186 0.00367
C 27.00982 29.74508 0.04306
C 27.03726 28.34926 0.00996
C 28.23631 27.7119 0.00195
C 28.28819 26.27325 -0.00802
C 27.02941 25.51853 -0.00218
C 27.06742 12.79836 0.02316
C 27.03247 24.10438 -0.01654
C 28.20301 22.04546 -0.0032
C 27.02053 21.32297 0.00622
C 27.04684 19.91421 -0.02815
C 28.30935 19.21062 -0.00942
C 28.21635 17.8234 0.00487
C 27.0539 17.12363 0.00826
C 27.06168 15.68052 -0.00294
C 28.25582 14.96607 0.00152
C 28.20795 23.48052 -0.00037
C 2.47716 32.64293 0.03368
