331
Graphene
C 0.0754 34.07005 0.01295
C 13.41936 17.75661 -0.02815
C 12.25892 17.07276 -0.04147
C 12.32198 15.6427 -0.05302
C 13.51369 14.91806 0.00213
C 13.56668 13.54519 -0.00066
C 12.29908 12.79171 -0.00289
C 12.36268 11.38713 0.00028
C 13.39922 19.25232 0.03505
C 13.58419 10.66683 -0.02213
C 12.27885 8.51737 -0.00109
C 12.27094 7.1252 -0.00491
C 13.50076 6.42753 0.03338
C 13.60469 5.04059 -0.0258
C 12.24883 4.22804 -0.0331
C 12.2596 2.84687 -0.00316
C 13.55785 2.18797 0.02188
C 13.51339 9.29022 0.03698
C 12.20755 19.92491 0.01443
C 13.67359 22.86542 0.00979
C 13.43392 26.24794 -0.00481
C 11.02629 10.78259 0.01965
C 11.04258 9.2505 0.02058
C 9.88 8.51451 -0.01957
C 9.83199 7.13368 -0.0108
C 11.05634 6.40292 -0.00368
C 11.01099 4.95902 -0.02696
C 9.7911 4.29886 -0.00114
C 9.675 2.86753 0.00228
C 10.92928 2.12022 0.00798
C 10.94026 0.7533 0.00422
C 9.75369 0.0351 0.0351
C 12.23503 32.83562 -0.03113
C 13.48257 31.99038 0.02098
C 13.46142 30.64954 0.01848
C 12.27551 29.92908 -0.00619
C 12.08067 28.57802 -0.02162
C 13.11117 27.5857 0.00889
C 13.4954 0.83295 -0.01979
C 12.19016 0.15134 0.02691
C 14.71583 32.7456 -0.01581
C 15.97911 31.93722 0.01452
C 14.78868 4.39541 -0.00311
C 15.04831 3.01428 0.00742
C 16.163 2.12795 -0.01594
C 15.83038 0.71629 0.0106
C 14.59533 0.04257 -0.01154
C 17.12849 32.62372 -0.01721
C 18.40429 31.98496 -0.02422
C 18.41751 30.55229 0.01277
C 17.13361 29.72795 0.00096
C 17.02051 28.35156 -0.01527
C 18.33409 27.64967 0.01087
C 18.33994 26.32618 0.00199
C 17.06689 25.5515 0.01511
C 17.00259 24.06027 -0.00478
C 18.32671 23.46139 -0.01662
C 18.36501 21.97628 -0.01185
C 17.12809 21.3656 0.01126
C 14.58743 7.24159 0.00675
C 9.84132 11.3756 -0.03682
C 14.67346 8.45769 -0.00865
C 14.99303 12.72915 -0.00652
C 15.97307 30.5093 0.04892
C 14.69154 29.77601 -0.00111
C 14.49797 28.29095 -0.03557
C 15.78046 27.5922 0.03754
C 15.78808 26.13832 0.01739
C 14.39002 25.36531 0.00755
C 14.46495 23.81803 -0.0054
C 15.84771 23.37489 0.00667
C 15.89835 21.97403 0.00143
C 14.55369 21.46569 -0.017
C 14.62758 20.11101 0.00364
C 15.84697 19.32777 -0.00831
C 15.88409 17.7989 -0.02957
C 14.62745 17.04347 -0.04422
C 14.79118 15.63252 0.00654
C 16.19286 14.95548 -0.00703
C 16.0636 13.62514 -0.04076
C 14.82892 11.36832 0.0058
C 17.13759 19.92404 0.01852
C 9.80714 12.76751 0.00052
C 11.02624 14.92556 -0.02813
C 2.38337 8.44776 -0.014
C 3.76346 0.67733 0.02147
C 2.53895 34.01221 0.00373
C 4.96436 32.62871 -0.00191
C 6.16406 31.81623 0.00438
C 6.2023 30.4165 0.01291
C 4.9808 29.77113 0.00093
C 3.65018 9.03035 -0.01118
C 4.92613 28.2347 0.00057
C 4.36225 24.90255 -0.00334
C 4.96729 21.41225 0.02339
C 5.24197 19.99091 0.01641
C 6.49559 19.2487 -0.00719
C 6.19974 17.80777 0.01364
C 4.91798 17.19166 -0.01062
C 4.86622 15.60477 -0.00033
C 6.24258 27.82675 -0.01634
C 3.70364 10.57291 -0.00131
C 2.45832 11.39344 -0.02896
C 2.40736 12.82662 -0.01004
C 3.70134 30.42 0.03007
C 2.45046 29.73387 -0.00095
C 2.48501 28.26306 0.01572
C 3.77235 27.47844 -0.04848
C 3.56121 26.07433 -0.00892
C 2.24399 25.56892 -0.01362
C 2.29361 24.27254 -0.0008
C 3.52102 23.60722 0.0288
C 3.81714 22.30822 0.00393
C 2.54337 21.53332 0.00895
C 2.6012 20.1516 0.00685
C 3.76708 19.30613 0.02888
C 3.66014 17.94193 -0.00482
C 2.40669 17.15453 -0.01384
C 2.45565 15.68795 0.03693
C 3.60393 14.93925 0.01745
C 3.65355 13.53337 0.00488
C 6.05982 14.86871 0.03589
C 6.07044 13.41893 -0.02759
C 4.92134 12.80525 0.0402
C 4.88246 11.37233 0.00572
C 7.45148 8.60238 0.01877
C 7.3579 7.25763 0.01363
C 8.53153 6.44051 -0.02162
C 8.50367 4.98741 0.00415
C 7.32701 4.29809 -0.0014
C 7.2132 2.8644 0.02162
C 8.4983 2.12143 0.0076
C 8.58559 0.77659 0.01241
C 7.35343 0.01243 -0.01454
C 9.78864 32.727 0.01945
C 10.96515 32.06826 0.01416
C 11.05812 30.66801 0.03542
C 10.04828 29.84216 0.02299
C 11.24803 19.23828 0.00244
C 10.98166 17.81775 -0.01717
C 9.69889 17.17416 0.05265
C 9.79356 15.68289 -0.01952
C 8.67694 9.20067 -0.00925
C 11.03874 13.52167 0.00374
C 8.65793 10.59647 0.00444
C 7.38157 12.76659 0.02894
C 6.19474 10.70787 0.03592
C 6.18892 9.27809 0.00406
C 4.97334 8.53399 0.00943
C 6.02741 2.09836 0.02841
C 6.18888 0.78236 -0.01111
C 4.98525 0.02405 -0.01275
C 7.42527 32.62253 0.00985
C 8.62311 31.86284 -0.02245
C 8.75806 30.38001 -0.00428
C 7.49857 29.73827 0.03101
C 7.32216 28.3231 -0.01536
C 7.77816 19.16735 -0.02689
C 8.45102 17.82362 -0.01046
C 7.36768 16.98204 -0.00891
C 7.31187 15.59323 0.02819
C 8.57822 14.94867 0.00165
C 8.60156 13.47995 -0.02971
C 7.41158 11.37291 -0.01789
C 3.67988 31.93389 0.00054
C 18.36352 19.23067 -0.00381
C 17.06889 17.08934 0.0296
C 31.8857 29.81144 0.00026
C 31.89198 28.42346 0.00682
C 33.16223 27.74131 -0.01779
C 33.1492 26.37884 0.03794
C 31.95215 25.54963 0.01927
C 31.96193 24.15131 0.01574
C 33.18087 23.42219 -0.02383
C 33.1724 30.45225 0.0544
C 33.1935 22.03467 -0.01429
C 31.95134 19.91207 0.00594
C 33.22643 19.22425 -0.02474
C 33.19601 17.71852 0.00369
C 31.93611 17.02021 0.00455
C 31.82239 15.59932 -0.00644
C 33.07213 14.92682 -0.01839
C 33.20871 13.45085 0.00137
C 31.94981 21.29285 -0.0136
C 33.11274 31.93757 -0.02142
C 31.92095 32.67543 0.01428
C 29.47288 0.08483 -0.01694
C 30.72013 26.28878 0.01705
C 29.45394 25.58327 -0.0405
C 29.48682 24.13223 -0.01303
C 30.68905 23.44495 -0.01461
C 30.75387 22.04137 -0.02155
C 29.44811 21.30073 -0.00944
C 29.4589 19.91619 -0.03735
C 30.70765 19.20018 -0.00971
C 30.6862 17.76672 0.01518
C 29.5021 17.04828 0.01908
C 29.25613 15.6306 0.07705
C 30.48756 14.87288 0.0103
C 30.69995 13.48293 0.02108
C 31.2291 5.62895 0.00716
C 29.42638 2.81666 0.00307
C 30.82419 2.34412 0.00346
C 30.79487 0.81885 0.01713
C 31.86393 12.74143 0.00199
C 31.88562 11.35102 0.04381
C 33.04037 10.5603 0.02806
C 33.1054 9.05705 0.01504
C 0.00711 19.99565 0.01223
C 1.28563 19.32023 0.00648
C 1.24592 17.94264 0.02114
C 0.02504 17.13115 -0.02957
C 34.365 15.66121 0.00343
C 1.18367 14.92044 -0.02656
C 1.20772 13.55663 -0.02442
C 34.38822 12.83839 -0.00027
C 34.3868 11.31521 -0.00583
C 1.21421 10.64156 -0.02302
C 1.21086 9.28007 -0.02849
C 0.06274 8.47756 0.02931
C 0.29437 7.16413 0.00628
C 34.40329 4.2193 -0.0345
C 0.28892 2.84607 -0.00931
C 1.34366 1.99546 -0.00939
C 1.32115 0.63732 -0.00468
C 0.01294 21.43795 -0.01678
C 30.68788 27.74832 0.0101
C 1.26736 22.13207 0.01951
C 34.38332 24.20952 0.02712
C 32.05503 8.09779 -0.00069
C 31.85678 6.90664 0.04926
C 33.5981 6.42956 -0.03838
C 33.44567 5.04736 0.00349
C 32.04303 4.5337 -0.00323
C 32.04004 3.12692 -0.00841
C 33.2766 2.24032 0.0001
C 33.26877 0.78794 -0.02927
C 31.98568 0.05369 -0.01404
C 34.39966 32.62769 0.01027
C 1.25728 31.8943 0.01831
C 1.26598 30.48481 -0.01037
C 34.40518 29.79149 -0.00439
C 34.40835 28.39509 -0.00598
C 1.17788 27.72398 -0.05239
C 1.08948 26.27368 0.03076
C 34.26248 25.60076 0.00723
C 1.17121 23.54445 -0.02213
C 18.27043 17.80806 0.03046
C 29.52118 28.47548 -0.00669
C 30.69436 30.57611 0.01836
C 19.65667 0.21168 0.02737
C 22.14145 32.71531 -0.00498
C 23.28829 31.84995 0.00135
C 23.29949 30.46193 0.03102
C 21.99641 29.78369 0.02555
C 22.04671 28.36643 0.01423
C 23.27639 27.70959 -0.00285
C 20.92791 0.60454 0.02117
C 23.28091 26.27602 -0.009
C 22.04291 24.1607 -0.00229
C 23.27403 23.38627 -0.00938
C 23.30919 21.91595 -0.0264
C 22.07141 21.29503 -0.01154
C 22.02048 19.76579 0.00684
C 23.29345 19.00963 -0.01052
C 23.21911 17.43958 -0.01679
C 22.06462 25.54232 -0.01199
C 19.42279 17.15424 -0.04078
C 20.72001 17.59923 0.03005
C 20.72969 19.07215 -0.0276
C 17.33044 15.7511 0.03374
C 17.61268 1.99832 -0.02845
C 18.37942 0.70812 -0.03213
C 17.15258 33.99808 0.02239
C 19.64512 32.6955 0.01153
C 20.75336 31.97732 0.02734
C 20.76804 30.56609 -0.0055
C 19.6169 29.80102 0.01515
C 19.59276 28.29284 -0.00225
C 20.8739 27.6671 0.00071
C 20.82571 26.20999 -0.01107
C 19.60838 25.64215 -0.01586
C 19.58223 24.15457 -0.01971
C 20.79874 23.35745 -0.02118
C 20.88113 21.98574 0.00733
C 19.55661 21.34051 -0.00178
C 19.56677 19.93844 0.00768
C 21.96731 16.98492 0.00367
C 22.00155 0.06049 0.04306
C 24.4786 32.49758 0.00996
C 25.75952 31.91826 0.00195
C 28.27326 27.7129 0.01495
C 28.17438 26.31955 0.01259
C 26.96878 25.57216 0.01799
C 27.0076 24.18043 0.01699
C 28.19989 23.43933 -0.00416
C 28.18643 22.04306 0.01177
C 27.01584 21.33882 0.04266
C 26.95736 19.82065 0.01324
C 28.13134 19.11751 0.0014
C 28.35081 17.75357 0.00924
C 27.24846 16.81372 0.02326
C 27.77606 15.71013 0.00261
C 28.45118 2.04891 0.03265
C 28.11222 0.7708 -0.02049
C 26.90211 0.102 -0.01854
C 29.48434 32.71906 -0.01415
C 30.741 31.94993 -0.03039
C 27.06527 28.39376 0.00235
C 29.45342 29.83576 0.03531
C 27.08161 29.7963 0.01094
C 28.25808 31.9271 0.02611
C 25.82607 30.51445 -0.00802
C 24.50722 29.8212 -0.00218
C 24.52238 28.31006 -0.01654
C 25.76278 27.68216 -0.00037
C 25.78934 26.28675 -0.0032
C 24.5129 25.56396 0.00622
C 24.48947 24.10711 -0.02815
C 25.71459 23.44931 -0.00942
C 25.7269 21.96693 0.00487
C 24.50999 21.18273 0.00826
C 24.5447 19.72956 -0.00294
C 25.80755 18.97904 0.00152
C 25.83636 17.4062 0.01257
C 24.51444 16.84534 0.02316
C 25.58006 0.52091 0.04185
C 24.53992 33.91608 0.00194
C 26.98733 32.7616 -0.00621
C 28.25662 30.55884 0.02198
C 2.50329 32.61841 -0.00494
