358
Graphene
C 0.04561 0.05822 0.01295
C 10.97163 4.92232 -0.01957
C 9.75173 4.29223 -0.0108
C 9.75822 2.88333 -0.00368
C 11.06618 2.13925 -0.02696
C 10.99047 0.66574 -0.00114
C 9.75769 0.0205 0.00228
C 12.32307 32.76023 0.00798
C 13.53799 31.98482 0.00422
C 10.99826 6.42439 0.02058
C 13.57119 30.58636 0.0351
C 12.27458 28.42839 0.02098
C 13.44253 27.71162 0.01848
C 13.48631 26.23109 -0.00619
C 12.2993 25.56958 -0.02162
C 12.32244 24.09775 0.00889
C 13.48402 23.46541 -0.00481
C 12.18802 8.41615 0.00979
C 12.27222 7.06327 0.01443
C 12.29254 29.90601 -0.03113
C 13.54323 6.33483 0.03505
C 9.71196 7.08262 0.01965
C 11.01442 9.13762 0.00052
C 7.27707 2.87463 0.01363
C 8.55184 2.15077 -0.02162
C 8.52903 0.71503 0.00415
C 7.25859 0.05993 -0.0014
C 9.80219 32.73196 0.02162
C 11.01956 32.03739 0.0076
C 11.08304 30.57636 0.01241
C 9.80871 29.88576 -0.01454
C 9.71721 8.54652 -0.03682
C 9.86063 28.32011 0.01945
C 11.15439 26.30642 0.03542
C 9.86817 25.60123 0.02299
C 9.83348 24.17849 0.00244
C 11.09893 23.42238 -0.01717
C 11.07477 22.01513 0.05265
C 9.90756 21.30613 -0.01952
C 9.86041 19.93086 -0.02813
C 9.65185 11.71694 0.00374
C 11.10957 27.69941 0.01416
C 13.50939 4.83767 -0.02815
C 12.19528 4.17727 -0.04147
C 12.19752 2.82409 -0.05302
C 17.18678 29.77476 -0.0054
C 17.19664 28.41219 0.00667
C 18.41448 27.62099 0.00143
C 18.44433 26.12356 -0.017
C 17.14431 25.50121 0.00364
C 17.10064 6.9162 -0.00831
C 18.34097 6.60393 -0.02957
C 18.39826 5.05558 -0.04422
C 18.39782 30.53287 0.00755
C 17.19773 4.33727 0.00654
C 18.40327 2.22492 -0.04076
C 18.37465 0.7524 -0.00652
C 17.22986 0.05882 0.0058
C 19.58446 32.72778 -0.00865
C 20.90355 32.04549 0.00675
C 20.91792 30.56361 -0.00311
C 19.6672 29.73907 0.00742
C 19.61427 28.34599 -0.01594
C 17.20936 2.93966 -0.00703
C 18.38115 32.01083 0.01739
C 17.20067 32.65202 0.03754
C 14.71563 0.08146 -0.03557
C 13.45942 2.15315 0.00213
C 13.53397 0.78254 -0.00066
C 12.28225 0.01787 -0.00289
C 14.75797 32.68055 0.00028
C 15.95173 31.90409 -0.02213
C 15.98648 30.46429 0.03698
C 14.74486 29.81443 -0.00109
C 14.75494 28.36498 -0.00491
C 15.99796 27.65943 0.03338
C 15.96054 26.22328 -0.0258
C 14.71026 25.56935 -0.0331
C 14.70898 24.17246 -0.00316
C 14.60213 7.2114 0.02188
C 15.85212 6.46535 -0.01979
C 15.92184 4.97294 0.02691
C 14.73827 4.19045 -0.01581
C 14.71768 2.78069 0.01452
C 15.95153 2.14399 0.04892
C 16.01613 0.72511 -0.00111
C 7.28358 4.28922 0.01877
C 8.41833 5.10691 -0.00925
C 8.45498 6.47683 0.00444
C 7.30378 7.23772 -0.01789
C 3.62038 6.46628 -0.01142
C 3.56909 5.09465 -0.00562
C 2.42385 4.34002 -0.00494
C 2.42472 2.92934 0.00054
C 3.62363 2.20783 0.03007
C 3.66834 0.76416 -0.00095
C 2.44082 0.08439 0.01572
C 4.94251 32.78457 -0.04848
C 2.3743 7.13229 0.01849
C 6.13836 32.02674 -0.00892
C 4.89474 29.87178 -0.0008
C 4.9484 28.4125 0.0288
C 6.19424 27.74842 0.00393
C 6.16532 26.31287 0.00895
C 4.93038 25.58158 0.00685
C 4.89275 24.12876 0.02888
C 6.16675 23.49042 -0.00482
C 6.31563 21.97918 -0.01384
C 6.17571 30.589 -0.01362
C 2.35184 8.55224 0.01396
C 3.66826 9.20007 0.0127
C 3.70858 10.6791 0.02635
C 3.6605 30.62099 0.02322
C 2.46595 29.88418 -0.00725
C 2.49767 28.41124 -0.05697
C 3.71091 27.75933 0.01087
C 3.69653 26.30034 -0.01343
C 2.47471 25.60344 0.00988
C 2.3226 24.12599 0.0276
C 3.647 23.469 0.01305
C 3.66556 22.04538 -0.00077
C 2.43105 21.27386 0.03368
C 2.43693 19.93332 -0.02929
C 3.69282 19.19006 -0.00966
C 3.7515 17.74973 -0.03337
C 2.43704 17.12385 0.01227
C 2.48659 15.66481 0.00873
C 3.67193 14.89471 -0.00049
C 3.70625 13.55566 0.00848
C 2.47486 12.76185 -0.01303
C 2.50527 11.38876 -0.01378
C 4.93087 21.31609 0.03693
C 20.86007 27.70213 0.0106
C 4.966 19.90825 0.01745
C 6.15535 17.70822 -0.01004
C 8.60463 26.3091 0.03592
C 7.39986 25.49744 0.00406
C 7.41163 24.09635 0.00943
C 8.6822 23.43207 0.02841
C 8.69733 22.0517 -0.01111
C 7.52078 21.2333 -0.01275
C 7.36174 19.87602 0.00985
C 8.67265 19.05513 -0.02245
C 8.63769 27.71036 0.00572
C 8.79445 17.64884 -0.00428
C 7.4313 15.61982 -0.01536
C 8.55759 14.71263 -0.02689
C 8.73464 13.28692 -0.01046
C 7.39657 12.79364 -0.00891
C 7.26656 11.35203 0.02819
C 8.6203 10.80715 0.00165
C 8.56452 9.31308 -0.02971
C 7.27808 8.56877 0.02894
C 7.5006 16.98937 0.03101
C 7.42088 28.41332 0.0402
C 7.39145 29.91259 -0.02759
C 8.64301 30.59738 0.03589
C 4.95392 17.05131 -0.02896
C 4.89894 15.62808 -0.00131
C 6.19104 14.91822 -0.01118
C 6.16238 13.44389 -0.014
C 4.86494 12.78832 0.02147
C 4.95107 11.45327 0.00373
C 6.10858 10.68775 -0.00191
C 6.06363 9.36438 0.00438
C 4.91952 8.57239 0.01291
C 4.87664 7.15323 0.00093
C 6.06555 6.44649 0.00057
C 6.07817 4.99454 -0.01634
C 4.8148 4.32336 -0.00334
C 4.83674 2.92215 0.02339
C 6.09098 2.26481 0.01641
C 6.05271 0.83966 -0.00719
C 4.86045 0.13855 0.01364
C 7.3483 32.74434 -0.01062
C 8.65535 31.9978 -0.00033
C 6.22113 19.10279 0.00488
C 20.84639 26.28807 -0.01154
C 19.7332 25.50053 -0.01721
C 19.619 7.13953 -0.02422
C 32.02794 32.76562 0.01713
C 33.17772 31.98456 -0.01694
C 33.24916 30.54616 0.01428
C 32.02335 29.8133 -0.02142
C 31.84296 28.38775 0.0544
C 33.1009 27.66373 0.00026
C 33.14705 26.23743 0.00682
C 32.00481 25.53756 -0.01779
C 29.46445 0.00967 0.00346
C 31.83397 24.10592 0.03794
C 33.15389 22.0585 0.01574
C 31.81611 21.29267 -0.02383
C 31.79537 19.93006 -0.01429
C 33.03958 19.19258 -0.0136
C 33.1967 17.76982 0.00594
C 31.92449 17.0583 -0.02474
C 31.96634 15.73768 0.00369
C 33.18474 14.99161 0.00455
C 33.06504 23.49781 0.01927
C 30.6839 0.71923 0.00307
C 30.74486 2.13503 0.00716
C 29.50453 2.84115 0.02108
C 30.63066 23.37088 -0.01854
C 30.58321 21.942 -0.01415
C 29.29074 21.17316 -0.03039
C 29.28201 19.70866 0.01836
C 30.65379 19.15755 0.03531
C 30.68816 17.78128 -0.00669
C 29.63866 16.99921 0.0101
C 29.62177 15.60154 0.01705
C 30.77432 14.84915 -0.0405
C 30.69577 13.42436 -0.01303
C 29.4416 12.82446 -0.01461
C 29.41642 11.4182 -0.02155
C 30.64034 10.61385 -0.00944
C 30.65486 9.17475 -0.03735
C 29.43528 8.5417 -0.00971
C 29.46835 7.14461 0.01518
C 30.7089 6.38816 0.01908
C 30.72426 4.99223 0.07705
C 29.48506 4.19089 0.0103
C 33.11683 13.56866 -0.00644
C 29.35566 24.14076 -0.02049
C 31.96375 12.74513 -0.01839
C 33.16323 10.60058 0.00199
C 1.20892 19.21134 -0.01678
C 1.22697 17.79837 0.01223
C 34.40015 17.09281 0.00648
C 34.42798 15.629 0.02114
C 1.25195 14.90897 -0.02957
C 1.21932 13.56176 0.00343
C 0.03583 12.88045 -0.02656
C 34.32323 11.34615 -0.02442
C 34.30408 19.89827 0.01951
C 1.22156 10.74653 -0.00027
C 34.40948 8.57048 -0.02302
C 34.39979 7.11262 -0.02849
C 1.20215 6.43826 0.02931
C 1.17206 4.98947 0.00628
C 0.00039 4.28644 -0.0345
C 34.32663 2.85332 -0.00931
C 1.22143 2.19981 -0.00939
C 1.26079 0.80557 -0.00468
C 1.20462 9.38523 -0.00583
C 34.40171 21.25786 -0.02213
C 1.1513 21.96731 0.02712
C 1.10445 23.41121 0.00723
C 33.16742 9.20042 0.04381
C 31.92806 8.50256 0.02806
C 31.95042 7.06543 0.01504
C 33.21073 6.39843 -0.00069
C 33.22808 4.95881 0.04926
C 32.03041 4.24456 -0.03838
C 31.94257 2.89066 0.00349
C 33.20412 2.20012 -0.00323
C 33.25591 0.7794 -0.00841
C 32.02441 0.08871 0.0001
C 0.07995 32.61747 -0.02927
C 1.27432 31.98987 -0.01404
C 1.27678 30.54117 0.01027
C 0.03089 29.87268 0.01831
C 34.3937 28.38572 -0.01037
C 1.21125 27.6956 -0.00439
C 1.17998 26.29874 -0.00598
C 34.40429 25.57726 -0.05239
C 34.32767 24.17793 0.03076
C 31.91845 11.39765 0.00137
C 3.6721 32.03628 -0.00094
C 29.40234 25.5316 0.03265
C 30.64078 27.72507 0.02326
C 22.08303 2.76371 0.00071
C 23.38353 2.07514 -0.01107
C 23.29861 0.68464 -0.01586
C 22.09323 34.03248 -0.01971
C 24.62329 32.65306 -0.02118
C 25.81421 31.91268 0.00733
C 25.8468 30.53737 -0.00178
C 24.6184 29.7737 0.00768
C 22.10354 4.27422 -0.00225
C 24.4471 28.31082 -0.0276
C 25.71682 26.23053 -0.04078
C 24.50707 25.5019 0.02117
C 24.47276 24.07721 0.02737
C 25.66491 23.39411 -0.00498
C 25.4924 21.88511 0.00135
C 24.1157 21.50096 0.03102
C 25.86828 10.55463 0.02555
C 25.85087 9.13906 0.01423
C 25.65887 27.68199 0.03005
C 23.35382 4.93143 0.01515
C 23.37563 6.37309 -0.0055
C 22.1651 7.12265 0.02734
C 20.74873 6.43953 0.01277
C 20.81142 4.94996 0.00096
C 19.56443 4.26019 -0.01527
C 19.56229 2.8762 0.01087
C 20.81933 2.13982 0.00199
C 20.834 0.69878 0.01511
C 19.59146 0.07009 -0.00478
C 22.17894 32.67341 -0.01662
C 23.41797 31.90248 -0.01185
C 23.42208 30.46917 0.01126
C 22.17848 29.86292 0.01852
C 22.12943 28.41856 -0.00381
C 23.21143 27.71046 0.03046
C 23.23747 26.24794 0.0296
C 22.09311 25.44998 0.03374
C 22.13215 24.03119 -0.02845
C 23.23165 23.27394 -0.03213
C 23.42345 9.0754 0.02239
C 22.26197 8.51401 0.01153
C 24.57773 8.48338 -0.00285
C 30.69589 26.27876 0.00261
C 24.58473 6.99457 -0.009
C 25.81796 4.96775 -0.00229
C 27.17524 12.8294 0.02316
C 26.93079 11.3987 0.04185
C 28.23251 10.66264 0.00194
C 28.2784 9.28683 -0.00621
C 27.18921 8.48746 0.02611
C 27.12301 7.03358 0.02198
C 28.31469 6.29825 0.01094
C 28.23526 4.93368 0.00235
C 28.20123 13.59302 0.01257
C 27.06528 4.2261 0.01495
C 28.23549 2.10151 0.01799
C 28.2611 0.72736 0.01699
C 27.00739 0.02757 -0.00416
C 29.4533 32.63891 0.01177
C 30.75115 32.04499 0.04266
C 30.70568 30.60866 0.01324
C 29.48935 29.83317 0.0014
C 29.40449 28.45026 0.00924
C 27.03672 2.80422 0.01259
C 28.2193 15.17997 0.00152
C 27.45959 16.4297 -0.00294
C 28.24814 17.46257 0.00826
C 24.59341 4.26504 -0.00938
C 24.57762 2.84229 -0.0264
C 25.83943 2.10659 -0.01154
C 25.83943 0.78788 0.00684
C 24.56096 0.00101 -0.01052
C 27.00023 32.67184 -0.01679
C 28.22066 31.98618 0.00367
C 28.32825 30.61483 0.04306
C 27.0345 29.88302 0.00996
C 26.98655 28.47616 0.00195
C 28.0709 27.63978 -0.00802
C 28.09059 26.21203 -0.00218
C 26.89593 25.45976 -0.01654
C 26.91368 24.0974 -0.00037
C 28.16183 23.35455 -0.0032
C 28.13077 21.98379 0.00622
C 26.9212 21.18297 -0.02815
C 26.95408 19.75363 -0.00942
C 27.99206 18.8332 0.00487
C 25.91735 6.33768 -0.01199
C 2.43567 32.67623 -0.02566
