354
Graphene
C 34.37016 0.00317 0.01295
C 9.71735 0.09205 -0.02696
C 12.26776 32.68862 -0.00114
C 13.50283 32.01833 0.00228
C 13.50317 30.57737 0.00798
C 12.32579 29.91898 0.00422
C 12.28554 28.44926 0.0351
C 13.50322 27.69897 -0.03113
C 13.53118 26.27079 0.02098
C 11.00265 0.65286 -0.00368
C 12.32155 25.53357 0.01848
C 13.50834 23.3787 -0.02162
C 13.47624 21.84559 0.00889
C 12.23846 11.14126 -0.00481
C 13.56719 10.77173 0.00979
C 13.48709 9.23809 0.01443
C 12.22249 8.51756 0.03505
C 12.30497 7.05126 -0.02815
C 13.49883 6.35731 -0.04147
C 12.33227 24.0725 -0.00619
C 13.48808 4.92085 -0.05302
C 11.03139 2.17769 -0.0108
C 9.7824 4.14901 0.02058
C 11.06959 31.97012 -0.0014
C 11.05798 30.55964 0.02162
C 9.87913 29.87116 0.0076
C 9.84044 28.48162 0.01241
C 11.06722 27.70881 -0.01454
C 11.09148 26.30268 0.01945
C 9.83506 25.52248 0.01416
C 9.91201 24.04858 0.03542
C 9.8425 2.77891 -0.01957
C 11.15416 23.4087 0.02299
C 9.858 21.44056 -0.01717
C 9.7628 11.45535 0.05265
C 10.93564 10.78576 -0.01952
C 11.0249 9.29993 -0.02813
C 9.87047 8.53378 0.00374
C 9.84607 7.04626 0.00052
C 11.02918 6.33172 -0.03682
C 11.03633 4.90729 0.01965
C 10.92824 21.95794 0.00244
C 9.72544 32.70197 0.00415
C 12.28324 4.19043 0.00213
C 13.52874 2.19677 -0.00289
C 14.76259 2.8181 0.00143
C 16.02566 2.09014 -0.017
C 15.93424 0.73712 0.00364
C 14.74467 0.01229 -0.00831
C 17.19056 32.66228 -0.02957
C 18.45174 31.8768 -0.04422
C 18.41403 30.46861 0.00654
C 17.1062 29.78643 -0.00703
C 14.7745 4.2537 0.00667
C 17.16657 28.45263 -0.04076
C 18.00968 19.13553 0.0058
C 18.84222 17.95479 -0.00865
C 17.21864 15.56218 0.00675
C 18.38042 14.86067 -0.00311
C 18.3963 13.3987 0.00742
C 17.13643 12.71421 -0.01594
C 17.16319 11.34257 0.0106
C 18.37366 10.59438 -0.01154
C 17.27791 20.19411 -0.00652
C 12.22763 2.78954 -0.00066
C 15.94068 5.08923 -0.0054
C 14.68978 7.08534 0.01739
C 13.52099 0.76536 0.00028
C 12.24127 0.03142 -0.02213
C 14.6799 32.70015 0.03698
C 15.93914 32.01617 -0.00109
C 15.92223 30.56995 -0.00491
C 14.71747 29.84493 0.03338
C 14.84201 28.40299 -0.0258
C 16.09014 27.60219 -0.0331
C 15.93782 6.44524 0.00755
C 15.79745 26.30088 -0.00316
C 14.84577 24.01148 -0.01979
C 16.11604 23.33938 0.02691
C 16.20122 21.82481 -0.01581
C 14.80263 21.44146 0.01452
C 14.822 11.53645 0.04892
C 15.93552 10.64133 -0.00111
C 15.90446 9.1966 -0.03557
C 14.73721 8.47292 0.03754
C 14.73203 25.49226 0.02188
C 7.25892 0.03255 -0.02162
C 8.46187 0.76845 0.01363
C 8.56151 2.14238 0.01877
C 2.50694 7.14593 0.00054
C 3.69105 6.4652 0.03007
C 3.73441 5.04406 -0.00095
C 2.4362 4.338 0.01572
C 2.34692 2.86642 -0.04848
C 3.6456 2.15448 -0.00892
C 3.61801 0.765 -0.01362
C 2.40701 0.03539 -0.0008
C 2.49983 8.56133 -0.00494
C 4.83143 32.68298 0.0288
C 6.08146 30.57905 0.00895
C 4.8441 29.84655 0.00685
C 4.95425 28.46742 0.02888
C 6.1689 27.76624 -0.00482
C 6.17817 26.29146 -0.01384
C 4.94153 25.58541 0.03693
C 4.91561 24.21752 0.01745
C 6.16088 23.3961 0.00488
C 6.03094 31.978 0.00393
C 6.16726 22.04566 -0.01004
C 3.69514 9.24964 -0.00562
C 2.44455 11.42226 0.01849
C 3.62164 30.61198 -0.01343
C 2.38196 29.84349 0.00988
C 2.43928 28.41964 0.0276
C 3.69969 27.74799 0.01305
C 3.67382 26.24883 -0.00077
C 2.43599 25.60446 0.03368
C 2.42533 24.20664 -0.02929
C 3.71745 23.47778 -0.00966
C 3.71214 10.63256 -0.01142
C 3.65894 22.0095 -0.03337
C 2.40418 19.93091 0.00873
C 3.67882 19.20992 -0.00049
C 3.64725 17.79464 0.00848
C 2.4672 17.0674 -0.01303
C 2.44814 15.64932 -0.01378
C 3.59981 14.93092 0.02635
C 3.7675 13.54234 0.0127
C 2.42073 12.76227 0.01396
C 2.44107 21.32636 0.01227
C 4.96155 21.28986 -0.02896
C 4.98293 19.82023 -0.00131
C 6.27222 19.05484 -0.01118
C 8.57936 27.72715 0.02841
C 8.64821 26.30035 -0.01111
C 7.44624 25.54233 -0.01275
C 7.44293 24.11672 0.00985
C 8.66977 23.44189 -0.02245
C 8.54854 22.06748 -0.00428
C 7.38448 21.2854 0.03101
C 7.39518 19.87789 -0.01536
C 7.38572 28.44827 0.00943
C 7.34866 12.81894 -0.02689
C 8.66737 10.68692 -0.00891
C 8.66251 9.24873 0.02819
C 7.49917 8.55953 0.00165
C 7.42386 7.14873 -0.02971
C 8.5744 6.43213 0.02894
C 8.58665 4.95688 -0.01789
C 7.39103 4.3105 0.00444
C 7.38166 2.90549 -0.00925
C 7.37147 11.37175 -0.01046
C 7.31738 29.84975 0.00406
C 8.54637 30.55582 0.03592
C 8.48142 31.99628 0.00572
C 6.07402 17.67089 -0.014
C 4.84824 17.11167 0.02147
C 4.83804 15.66319 0.00373
C 6.12084 15.0306 -0.00191
C 6.32669 13.66199 0.00438
C 4.9427 12.83813 0.01291
C 4.92506 11.3895 0.00093
C 6.12466 10.62915 0.00057
C 6.14154 9.24108 -0.01634
C 4.93837 8.51896 -0.00334
C 4.94012 7.17198 0.02339
C 6.16753 6.4307 0.01641
C 6.17523 4.99014 -0.00719
C 4.8748 4.3257 0.01364
C 4.87517 2.88273 -0.01062
C 6.18248 2.20333 -0.00033
C 6.05845 0.75363 0.03589
C 4.92616 0.03838 -0.02759
C 7.23429 32.67425 0.0402
C 18.38753 9.21484 -0.01721
C 17.13825 8.51323 -0.02422
C 17.11652 7.14539 0.01277
C 18.3818 6.44172 0.00096
C 29.48377 0.02111 0.01713
C 31.88718 32.71764 -0.01694
C 33.1403 31.98877 0.01428
C 33.11883 30.54976 -0.02142
C 31.88263 29.83188 0.0544
C 31.8625 28.35017 0.00026
C 33.11329 27.69882 0.00682
C 33.12416 26.2238 -0.01779
C 30.7483 0.76052 0.00346
C 31.88545 25.61521 0.03794
C 33.13394 23.41453 0.01574
C 33.17319 22.02396 -0.02383
C 31.87732 21.27096 -0.01429
C 31.79247 19.84653 -0.0136
C 33.0297 19.06447 0.00594
C 33.04526 17.63477 -0.02474
C 31.82429 15.61574 0.00369
C 33.10486 14.97033 0.00455
C 31.9287 24.1799 0.01927
C 33.14242 13.54785 -0.00644
C 30.7905 2.16408 0.00307
C 29.55555 4.26505 0.02108
C 29.47245 29.82908 -0.01415
C 29.55768 28.37774 -0.03039
C 30.72321 27.64934 0.01836
C 30.66636 26.30724 0.03531
C 29.41888 25.6597 -0.00669
C 29.71453 24.45186 0.0101
C 30.70711 23.37275 0.01705
C 30.68534 21.97267 -0.0405
C 29.49334 2.82996 0.00716
C 29.35512 21.30393 -0.01303
C 29.5722 12.86418 -0.02155
C 29.58348 11.4108 -0.00944
C 30.81263 10.68535 -0.03735
C 30.77099 9.24187 -0.00971
C 29.65004 8.4886 0.01518
C 29.54343 7.02799 0.01908
C 30.83494 6.42404 0.07705
C 30.76505 4.99062 0.0103
C 30.72599 13.48022 -0.01461
C 31.97546 12.81055 -0.01839
C 31.98018 11.4177 0.00137
C 33.2078 10.60208 0.00199
C 1.06866 19.20186 -0.01678
C 1.25206 17.81509 0.01223
C 34.41419 17.02528 0.00648
C 34.33053 15.64328 0.02114
C 1.14195 14.95863 -0.02957
C 1.21313 13.4637 0.00343
C 34.38192 12.81598 -0.02656
C 34.37751 11.40981 -0.02442
C 34.2375 19.83827 0.01951
C 1.2332 10.59521 -0.00027
C 34.42096 8.50265 -0.02302
C 0.04312 7.03627 -0.02849
C 1.24281 6.42203 0.02931
C 1.24072 4.99478 0.00628
C 34.42445 4.2547 -0.0345
C 0.00662 2.8573 -0.00931
C 1.18279 2.15379 -0.00939
C 1.14822 0.70198 -0.00468
C 1.26878 9.22183 -0.00583
C 34.32531 21.28186 -0.02213
C 1.19966 22.01417 0.02712
C 1.20325 23.48384 0.00723
C 33.23323 9.27128 0.04381
C 32.03427 8.54238 0.02806
C 32.03593 7.12977 0.01504
C 33.20341 6.39684 -0.00069
C 33.17557 4.94652 0.04926
C 31.96617 4.27564 -0.03838
C 32.00791 2.81757 0.00349
C 33.20501 2.14815 -0.00323
C 33.12072 0.71404 -0.00841
C 31.95243 0.01095 0.0001
C 34.35176 32.63986 -0.02927
C 1.17527 31.98378 -0.01404
C 1.16844 30.52094 0.01027
C 34.31749 29.86935 0.01831
C 34.33418 28.35262 -0.01037
C 1.22819 27.68639 -0.00439
C 1.18428 26.24897 -0.00598
C 34.3457 25.60471 -0.05239
C 34.35641 24.20896 0.03076
C 30.6452 30.49734 -0.01854
C 3.57434 31.99721 0.01087
C 30.70442 31.94401 -0.02049
C 27.01428 0.00121 0.00261
C 20.85755 4.99505 -0.01107
C 19.60859 4.3197 -0.01586
C 19.63372 2.86291 -0.01971
C 20.86385 2.17699 -0.02118
C 20.85185 0.74809 0.00733
C 19.63893 34.02959 -0.00178
C 22.05566 32.70572 0.00768
C 23.25806 32.01084 -0.0276
C 20.90496 6.45904 0.00071
C 23.3706 30.52638 0.03005
C 21.98024 17.06 0.02117
C 22.00794 15.59612 0.02737
C 23.21306 14.93777 -0.00498
C 23.43318 13.55038 0.00135
C 22.21158 12.79607 0.03102
C 22.19583 11.38005 0.02555
C 23.46979 10.70253 0.01423
C 23.34786 9.23623 -0.00285
C 23.20193 17.4523 -0.04078
C 22.11275 8.51984 -0.009
C 19.63418 7.14823 -0.00225
C 20.92725 9.19473 -0.0055
C 18.38704 5.0801 -0.01527
C 17.21369 4.37332 0.01087
C 17.17667 2.93551 0.00199
C 18.4013 2.16386 0.01511
C 18.40464 0.70107 -0.00478
C 17.20628 34.07332 -0.01662
C 19.65274 32.58796 -0.01185
C 20.926 31.91057 0.01126
C 19.67476 8.55944 0.01515
C 20.84046 30.55735 0.01852
C 20.7548 17.85078 0.03046
C 19.74689 16.87982 0.0296
C 19.57048 15.49643 0.03374
C 20.82398 14.76102 -0.02845
C 20.86389 13.41302 -0.03213
C 19.67204 12.67813 0.02239
C 19.66656 11.2561 0.01153
C 20.86879 10.6415 0.02734
C 19.74738 29.81979 -0.00381
C 22.16591 7.14015 -0.01199
C 23.39672 6.41258 -0.00229
C 23.41145 4.97106 -0.00938
C 27.01772 32.61283 0.04185
C 28.25833 31.88792 0.00194
C 28.1677 30.39166 -0.00621
C 26.97794 29.6802 0.02611
C 27.03144 28.24215 0.02198
C 28.15767 27.81828 0.01094
C 27.16215 12.77294 0.00235
C 27.16711 11.27237 0.01495
C 24.55857 34.02675 0.02316
C 28.37099 10.60316 0.01259
C 27.14704 8.51722 0.01699
C 27.09753 7.0946 -0.00416
C 28.30964 6.39185 0.01177
C 28.28248 4.95993 0.04266
C 27.06003 4.28404 0.01324
C 27.01794 2.83784 0.0014
C 28.26787 2.13119 0.00924
C 28.30212 0.72749 0.02326
C 28.40791 9.21129 0.01799
C 25.84593 0.70778 0.01257
C 25.82851 2.12324 0.00152
C 24.63129 2.78779 -0.00294
C 22.09449 4.32016 -0.0264
C 22.11343 2.838 -0.01154
C 23.35949 2.15943 0.00684
C 23.32215 0.69009 -0.01052
C 22.12213 34.0573 -0.01679
C 24.56073 32.63603 0.00367
C 25.79502 31.90972 0.04306
C 25.81734 30.45885 0.00996
C 24.46264 30.09187 0.00195
C 26.0021 13.27173 -0.00802
C 24.67026 12.86854 -0.00218
C 24.64583 11.40392 -0.01654
C 25.89628 10.6536 -0.00037
C 25.83613 9.19926 -0.0032
C 24.64878 8.54572 0.00622
C 24.62246 7.11884 -0.02815
C 25.91976 6.39462 -0.00942
C 25.88677 4.99278 0.00487
C 24.57812 4.23342 0.00826
C 29.41292 32.67151 0.03265
C 2.38654 32.70344 -0.05697
