355
Graphene
C 0.02388 0.0356 0.01295
C 9.89658 12.75801 -0.00368
C 9.80838 11.41868 -0.02696
C 11.04941 10.67771 -0.00114
C 11.13235 9.22866 0.00228
C 9.87223 8.57117 0.00798
C 9.85055 7.13284 0.00422
C 10.99476 6.32984 0.0351
C 11.01932 4.9381 -0.03113
C 9.80791 15.51565 -0.0108
C 9.82133 4.20858 0.02098
C 11.13129 2.15769 -0.00619
C 11.10564 0.69199 -0.02162
C 9.87844 34.06299 0.00889
C 12.32289 32.65635 -0.00481
C 13.49144 32.03315 0.00979
C 13.53409 30.5113 0.01443
C 12.28686 29.7429 0.03505
C 12.23457 28.35914 -0.02815
C 9.90579 2.7598 0.01848
C 13.4665 27.6749 -0.04147
C 9.8295 17.06087 -0.01957
C 11.11327 19.1079 0.01965
C 7.32719 4.32745 0.00415
C 7.30242 2.91801 -0.0014
C 8.63436 2.16753 0.02162
C 8.63808 0.72329 0.0076
C 7.39375 0.01643 0.01241
C 9.85688 32.66308 -0.01454
C 11.05744 31.97275 0.01945
C 11.0744 30.53451 0.01416
C 11.08399 17.75209 0.02058
C 9.84495 29.90146 0.03542
C 11.05056 27.68789 0.00244
C 11.05405 26.31782 -0.01717
C 9.86486 25.49006 0.05265
C 9.8448 24.10318 -0.01952
C 11.09856 23.44001 -0.02813
C 11.14215 21.99889 0.00374
C 9.81143 21.24447 0.00052
C 9.83012 19.9127 -0.03682
C 9.87479 28.36921 0.02299
C 13.45055 26.26703 -0.05302
C 12.30578 25.54742 0.00213
C 12.36267 24.14135 -0.00066
C 15.98395 4.97564 0.00143
C 14.79099 4.30593 -0.017
C 14.72412 2.93788 0.00364
C 15.97468 2.16906 -0.00831
C 15.95478 0.66082 -0.02957
C 14.76612 34.04942 -0.04422
C 17.21603 32.70191 0.00654
C 18.44426 31.92495 -0.00703
C 15.94557 23.46869 0.00667
C 18.44292 30.54216 -0.04076
C 17.24191 28.37483 0.0058
C 18.5045 27.73998 -0.00865
C 18.46934 26.22979 0.00675
C 17.23646 25.56354 -0.00311
C 17.2377 24.0878 0.00742
C 18.50255 23.35177 -0.01594
C 18.3951 4.93972 0.0106
C 17.19126 4.27649 -0.01154
C 17.25048 29.77277 -0.00652
C 14.77737 24.10216 -0.0054
C 14.72849 25.59957 0.00755
C 15.94106 26.2565 0.01739
C 13.50365 23.43338 -0.00289
C 13.48632 22.08156 0.00028
C 12.33253 21.31899 -0.02213
C 12.2506 19.91843 0.03698
C 12.30785 8.43443 -0.00109
C 12.31674 7.07244 -0.00491
C 13.52337 6.38838 0.03338
C 13.54084 5.01811 -0.0258
C 12.33574 4.28404 -0.0331
C 12.30131 2.86033 -0.00316
C 13.53365 2.09603 0.02188
C 13.51198 0.68612 -0.01979
C 12.29209 0.00886 0.02691
C 14.7994 32.69003 -0.01581
C 15.96297 31.95226 0.01452
C 15.97182 30.53116 0.04892
C 14.72513 29.83749 -0.00111
C 14.74957 28.38314 -0.03557
C 15.93733 27.68705 0.03754
C 8.60423 4.97925 -0.02162
C 17.24649 2.81867 -0.01721
C 8.58431 6.38043 0.01363
C 7.36655 8.4577 -0.00925
C 2.4212 7.05314 -0.00494
C 3.71241 6.35799 0.00054
C 3.65355 4.93854 0.03007
C 2.47984 4.23827 -0.00095
C 2.49699 2.85957 0.01572
C 3.64687 2.18006 -0.04848
C 3.70169 0.66806 -0.00892
C 2.43682 34.07752 -0.01362
C 2.43427 8.51717 -0.00562
C 4.92508 32.71885 -0.0008
C 6.15233 30.49319 0.00393
C 4.89852 29.8547 0.00895
C 4.87724 28.43715 0.00685
C 6.11121 27.6914 0.02888
C 6.13236 26.27229 -0.00482
C 4.90794 25.60189 -0.01384
C 4.94607 24.08608 0.03693
C 6.16336 23.46052 0.01745
C 6.16593 31.97408 0.0288
C 6.13847 22.02289 0.00488
C 3.63014 9.30461 -0.01142
C 2.47004 11.40146 0.01396
C 3.67571 30.52194 0.01087
C 2.42915 29.81782 -0.01343
C 2.40717 28.4295 0.00988
C 3.71106 27.66244 0.0276
C 3.7354 26.30468 0.01305
C 2.44713 25.56025 -0.00077
C 2.54985 24.13245 0.03368
C 3.72169 23.42977 -0.02929
C 3.6244 10.6505 0.01849
C 3.64424 22.1005 -0.00966
C 2.47113 19.89662 0.01227
C 3.74374 19.16893 0.00873
C 3.67367 17.78056 -0.00049
C 2.50404 17.02344 0.00848
C 2.44356 15.58007 -0.01303
C 3.74682 14.89841 -0.01378
C 3.62906 13.44979 0.02635
C 2.44513 12.85813 0.0127
C 2.40169 21.35144 -0.03337
C 4.87585 21.33809 -0.01004
C 4.95866 19.94388 -0.02896
C 6.15033 19.10406 -0.00131
C 8.65201 27.71498 0.00943
C 8.63591 26.31142 0.02841
C 7.37208 25.60973 -0.01111
C 7.36595 24.15387 -0.01275
C 8.5602 23.38062 0.00985
C 8.58206 21.98936 -0.02245
C 7.39983 21.31335 -0.00428
C 7.38345 19.85209 0.03101
C 7.37021 28.43717 0.00406
C 8.61941 19.22736 -0.01536
C 7.355 17.04534 -0.01046
C 7.45968 15.61676 -0.00891
C 8.6893 14.89694 0.02819
C 8.65069 13.52209 0.00165
C 7.34679 12.68697 -0.02971
C 7.35474 11.34252 0.02894
C 8.54467 10.66234 -0.01789
C 8.54853 9.17324 0.00444
C 8.5989 17.75836 -0.02689
C 7.35292 29.85537 0.03592
C 8.57747 30.55647 0.00572
C 8.64567 31.89169 0.0402
C 6.12968 17.77352 -0.01118
C 4.9027 17.06878 -0.014
C 4.95254 15.65525 0.02147
C 6.15441 14.91738 0.00373
C 6.17052 13.50888 -0.00191
C 4.96588 12.81746 0.00438
C 4.91079 11.37446 0.01291
C 6.10769 10.68689 0.00093
C 6.19558 9.22706 0.00057
C 4.93234 8.59252 -0.01634
C 4.92475 7.14909 -0.00334
C 6.18557 6.46433 0.02339
C 6.10564 5.08307 0.01641
C 4.90679 4.31423 -0.00719
C 4.92159 2.87744 0.01364
C 6.08423 2.15482 -0.01062
C 6.15835 0.76319 -0.00033
C 4.93798 0.00394 0.03589
C 7.40355 32.63671 -0.02759
C 7.3631 7.13351 0.01877
C 3.66186 32.00821 -0.05697
C 18.44885 2.12844 -0.02422
C 17.14304 34.07605 0.00096
C 31.91997 32.69125 0.01713
C 33.19218 31.91787 -0.01694
C 33.22319 30.50682 0.01428
C 31.93604 29.86401 -0.02142
C 31.96251 28.42208 0.0544
C 33.26026 27.76142 0.00026
C 33.21721 26.23389 0.00682
C 31.96051 25.5726 -0.01779
C 29.46296 34.05494 0.00346
C 31.98918 24.14427 0.03794
C 33.1841 22.03632 0.01574
C 31.89603 21.30535 -0.02383
C 31.91664 19.89336 -0.01429
C 33.16605 19.12219 -0.0136
C 33.19795 17.79849 0.00594
C 31.93461 17.03708 -0.02474
C 32.00761 15.6532 0.00369
C 33.21617 14.86242 0.00455
C 33.19757 23.41993 0.01927
C 33.20184 13.49501 -0.00644
C 30.77272 0.69822 0.00307
C 29.54108 2.88439 0.02108
C 30.72821 22.0146 -0.01415
C 29.50172 21.31024 -0.03039
C 29.5028 19.88206 0.01836
C 30.68233 19.21517 0.03531
C 30.78159 17.74407 -0.00669
C 29.51178 16.99231 0.0101
C 29.55924 15.58025 0.01705
C 30.76215 14.93368 -0.0405
C 30.73706 2.15112 0.00716
C 30.75339 13.50718 -0.01303
C 29.49694 11.34054 -0.02155
C 30.74498 10.63347 -0.00944
C 30.72194 9.25744 -0.03735
C 29.56475 8.55748 -0.00971
C 29.53294 7.02532 0.01518
C 30.7875 6.35998 0.01908
C 30.76587 4.98806 0.07705
C 29.51456 4.30042 0.0103
C 29.51175 12.72576 -0.01461
C 31.92166 12.78766 -0.01839
C 32.00852 11.30191 0.00137
C 33.15921 10.59634 0.00199
C 1.20227 19.19468 -0.01678
C 1.19561 17.71652 0.01223
C 34.38168 17.06087 0.00648
C 34.41691 15.61518 0.02114
C 1.23967 14.85712 -0.02957
C 1.25813 13.48251 0.00343
C 0.0065 12.80253 -0.02656
C 0.04253 11.34817 -0.02442
C 34.42192 19.81033 0.01951
C 1.23787 10.67773 -0.00027
C 0.03203 8.4979 -0.02302
C 34.39609 7.08854 -0.02849
C 1.22453 6.34635 0.02931
C 1.22302 4.95715 0.00628
C 34.41546 4.26546 -0.0345
C 0.02336 2.8897 -0.00931
C 1.22677 2.14697 -0.00939
C 1.27862 0.7748 -0.00468
C 1.18915 9.25757 -0.00583
C 34.42468 21.29846 -0.02213
C 1.20564 22.01855 0.02712
C 1.2766 23.49517 0.00723
C 33.22519 9.21214 0.04381
C 31.94081 8.4898 0.02806
C 31.96314 7.13589 0.01504
C 33.1955 6.4153 -0.00069
C 33.23271 5.02995 0.04926
C 31.93272 4.19733 -0.03838
C 31.93912 2.81353 0.00349
C 33.19186 2.12186 -0.00323
C 33.26656 0.69926 -0.00841
C 31.91749 34.04057 0.0001
C 34.37709 32.67597 -0.02927
C 1.20797 31.90683 -0.01404
C 1.19307 30.52466 0.01027
C 34.42171 29.77789 0.01831
C 0.00803 28.45781 -0.01037
C 1.23305 27.73045 -0.00439
C 1.23245 26.27229 -0.00598
C 34.42887 25.55637 -0.05239
C 34.39063 24.12496 0.03076
C 30.70406 23.44904 -0.01854
C 18.43747 0.72674 0.01277
C 29.54177 24.0654 -0.02049
C 30.73508 26.24623 0.00261
C 23.32292 26.30536 -0.01107
C 22.13974 25.60524 -0.01586
C 22.1215 24.19043 -0.01971
C 23.33146 23.45849 -0.02118
C 23.33506 4.97345 0.00733
C 22.12029 4.30965 -0.00178
C 22.13421 2.83391 0.00768
C 23.36815 2.13999 -0.0276
C 23.32154 27.67109 0.00071
C 23.33436 0.70523 0.03005
C 24.55762 32.67411 0.02117
C 25.8094 32.04624 0.02737
C 25.83782 30.50745 -0.00498
C 24.60145 29.80221 0.00135
C 24.52835 28.39162 0.03102
C 25.81354 27.70959 0.02555
C 25.86088 26.2709 0.01423
C 24.52244 25.49477 -0.00285
C 22.09819 34.0653 -0.04078
C 24.6095 24.1236 -0.009
C 22.10471 28.35249 -0.00225
C 23.32906 30.5353 -0.0055
C 19.69911 32.61953 -0.01527
C 20.91654 31.92765 0.01087
C 20.94138 30.52689 0.00199
C 19.65845 29.79595 0.01511
C 19.69384 28.34718 -0.00478
C 20.87948 27.65692 -0.01662
C 20.8714 26.25272 -0.01185
C 19.69302 25.5482 0.01126
C 22.17493 29.78164 0.01515
C 19.66297 24.12579 0.01852
C 20.82087 4.93278 0.03046
C 19.60414 4.25477 0.0296
C 19.66472 2.74814 0.03374
C 20.86455 2.12891 -0.02845
C 20.94197 0.69611 -0.03213
C 19.7026 0.01219 0.02239
C 22.03872 32.66042 0.01153
C 23.27351 31.88949 0.02734
C 20.93054 23.42246 -0.00381
C 25.83109 23.3897 -0.01199
C 25.83571 21.99383 -0.00229
C 24.66035 7.06457 -0.00938
C 28.34343 13.53643 0.04185
C 28.29559 10.66112 0.00194
C 28.28071 9.18757 -0.00621
C 27.0338 8.47242 0.02611
C 27.03479 7.14873 0.02198
C 28.34815 6.32423 0.01094
C 28.35783 4.92864 0.00235
C 27.02664 4.22772 0.01495
C 28.28033 14.80802 0.02316
C 27.08836 2.8407 0.01259
C 28.28664 0.67541 0.01699
C 27.08854 0.01976 -0.00416
C 29.47642 32.64484 0.01177
C 30.74123 31.95887 0.04266
C 30.79117 30.52258 0.01324
C 29.57877 29.82832 0.0014
C 29.55314 28.42688 0.00924
C 30.75857 27.71277 0.02326
C 28.33124 2.0535 0.01799
C 28.29952 17.76346 0.01257
C 28.27533 19.17227 0.00152
C 27.03612 19.96131 -0.00294
C 25.78478 6.39509 -0.0264
C 25.83694 4.99204 -0.01154
C 24.53761 4.29772 0.00684
C 24.59865 2.81703 -0.01052
C 25.87713 2.15383 -0.01679
C 25.81686 0.78142 0.00367
C 24.58667 34.05641 0.04306
C 27.0812 32.72531 0.00996
C 28.31109 31.94579 0.00195
C 28.34644 30.50858 -0.00802
C 27.00397 29.79762 -0.00218
C 27.07169 28.42498 -0.01654
C 28.27288 27.66953 -0.00037
C 28.43115 26.31126 -0.0032
C 27.03376 25.58905 0.00622
C 27.06816 24.11834 -0.02815
C 28.2928 23.38534 -0.00942
C 28.19302 22.01228 0.00487
C 26.9345 21.30057 0.00826
C 29.48406 25.5206 0.03265
C 2.41758 32.65275 -0.00725
