356
Graphene
C 0.06156 0.04526 0.01295
C 11.11711 14.923 -0.0108
C 11.05846 13.48589 -0.00368
C 9.82609 12.82057 -0.02696
C 9.83852 11.36274 -0.00114
C 11.12449 10.67311 0.00228
C 11.01566 9.28726 0.00798
C 9.8022 8.47063 0.00422
C 9.78186 7.06926 0.0351
C 9.93898 15.58406 -0.01957
C 11.053 6.3459 -0.03113
C 9.8829 4.25455 0.01848
C 9.8884 2.83156 -0.00619
C 11.1426 2.05922 -0.02162
C 11.12842 0.67975 0.00889
C 9.89111 0.05032 -0.00481
C 12.33533 32.62565 0.00979
C 13.47678 31.8602 0.01443
C 13.46134 30.45189 0.03505
C 11.10856 4.95697 0.02098
C 12.21906 29.7637 -0.02815
C 9.83228 17.03755 0.02058
C 11.04828 19.13851 -0.03682
C 7.29472 4.40808 -0.02162
C 7.31162 2.95082 0.00415
C 8.55543 2.23868 -0.0014
C 8.59365 0.82507 0.02162
C 7.40927 0.06542 0.0076
C 9.83976 32.72477 0.01241
C 11.06239 32.00977 -0.01454
C 11.03113 30.57223 0.01945
C 11.07761 17.71197 0.01965
C 9.82604 29.82873 0.01416
C 10.98094 27.71078 0.02299
C 11.02673 26.29443 0.00244
C 9.84943 25.53644 -0.01717
C 9.80744 24.07146 0.05265
C 11.10539 23.40949 -0.01952
C 11.15753 21.96441 -0.02813
C 9.87371 21.317 0.00374
C 9.87364 19.85325 0.00052
C 9.84485 28.48917 0.03542
C 12.24233 28.33857 -0.04147
C 13.56633 27.66726 -0.05302
C 13.60749 26.26711 0.00213
C 13.51907 0.74653 0.00667
C 12.34484 34.04337 0.00143
C 14.67272 32.71602 -0.017
C 15.83692 31.92951 0.00364
C 15.90479 30.53649 -0.00831
C 14.69635 29.81121 -0.02957
C 14.76498 28.38659 -0.04422
C 16.09824 27.63148 0.00654
C 13.48999 2.12479 -0.0054
C 15.88646 26.35051 -0.00703
C 14.72807 24.01187 -0.00652
C 14.80135 21.42753 0.0058
C 14.89549 19.95328 -0.00865
C 15.94819 19.13717 0.00675
C 16.1253 17.7879 -0.00311
C 14.76387 17.00237 0.00742
C 14.69267 15.59679 -0.01594
C 15.89969 14.89624 0.0106
C 14.90955 25.43123 -0.04076
C 12.30798 2.85317 0.00755
C 12.3314 4.19816 0.01739
C 13.48191 4.96434 0.03754
C 12.3049 25.66631 -0.00066
C 12.27298 24.23174 -0.00289
C 13.46932 23.50148 0.00028
C 13.57492 22.04745 -0.02213
C 12.38883 21.23927 0.03698
C 12.3316 19.86611 -0.00109
C 13.57126 19.19849 -0.00491
C 13.63832 17.75566 0.03338
C 12.34074 17.05592 -0.0258
C 12.35922 15.65019 -0.0331
C 13.50448 14.85466 -0.00316
C 13.47753 13.47804 0.02188
C 12.2228 12.82747 -0.01979
C 12.32428 11.39438 0.02691
C 13.52895 10.66003 -0.01581
C 13.47076 9.22331 0.01452
C 12.22926 8.54461 0.04892
C 12.20031 7.07604 -0.00111
C 13.51241 6.40209 -0.03557
C 8.60571 4.96765 0.01363
C 15.94694 13.47267 -0.01154
C 8.55903 6.37886 0.01877
C 7.33526 8.50864 0.00444
C 2.44846 7.09664 -0.00562
C 3.66199 6.42582 -0.00494
C 3.65406 4.97997 0.00054
C 2.43354 4.26938 0.03007
C 2.45647 2.86927 -0.00095
C 3.74555 2.12447 0.01572
C 3.72826 0.7227 -0.04848
C 2.47942 34.04542 -0.00892
C 2.36117 8.51445 -0.01142
C 4.9844 32.67139 -0.01362
C 6.09992 30.55771 0.0288
C 4.88301 29.80274 0.00393
C 4.8725 28.42455 0.00895
C 6.11177 27.73601 0.00685
C 6.12319 26.34887 0.02888
C 4.94892 25.55267 -0.00482
C 4.971 24.18829 -0.01384
C 6.1554 23.43812 0.03693
C 6.17997 31.93019 -0.0008
C 6.17162 22.04437 0.01745
C 3.61058 9.24983 0.01849
C 2.42288 11.44368 0.0127
C 3.66352 30.48215 -0.05697
C 2.40336 29.81261 0.01087
C 2.44592 28.42729 -0.01343
C 3.68314 27.72241 0.00988
C 3.72796 26.25932 0.0276
C 2.49104 25.57083 0.01305
C 2.5213 24.18042 -0.00077
C 3.75505 23.47998 0.03368
C 3.63081 10.75377 0.01396
C 3.60192 22.06181 -0.02929
C 2.47053 19.93007 -0.03337
C 3.70726 19.22462 0.01227
C 3.65977 17.73977 0.00873
C 2.44867 17.00082 -0.00049
C 2.50208 15.5742 0.00848
C 3.69197 14.88521 -0.01303
C 3.71646 13.48964 -0.01378
C 2.42466 12.80218 0.02635
C 2.41485 21.33936 -0.00966
C 4.90959 21.37442 0.00488
C 4.97425 19.90895 -0.01004
C 6.15185 19.16896 -0.02896
C 8.64076 27.73501 0.00406
C 8.66133 26.30061 0.00943
C 7.41413 25.60229 0.02841
C 7.3943 24.19142 -0.01111
C 8.57541 23.36107 -0.01275
C 8.61008 21.95436 0.00985
C 7.36269 21.25551 -0.02245
C 7.37655 19.85109 -0.00428
C 7.39304 28.40264 0.03592
C 8.60815 19.17795 0.03101
C 7.3736 17.04011 -0.02689
C 7.40735 15.59759 -0.01046
C 8.60194 14.86886 -0.00891
C 8.57859 13.44046 0.02819
C 7.37229 12.74435 0.00165
C 7.32596 11.30056 -0.02971
C 8.58682 10.60733 0.02894
C 8.54929 9.17484 -0.01789
C 8.59698 17.79865 -0.01536
C 7.37455 29.84165 0.00572
C 8.59427 30.5273 0.0402
C 8.64286 31.99119 -0.02759
C 6.10701 17.71051 -0.00131
C 4.88578 17.10215 -0.01118
C 4.99092 15.65431 -0.014
C 6.24008 14.92721 0.02147
C 6.17268 13.47843 0.00373
C 4.89261 12.78136 -0.00191
C 4.83071 11.41851 0.00438
C 6.12213 10.63519 0.01291
C 6.11939 9.26515 0.00093
C 4.87882 8.63467 0.00057
C 4.88865 7.17446 -0.01634
C 6.07976 6.51465 -0.00334
C 6.08523 5.11036 0.02339
C 4.88816 4.33226 0.01641
C 4.8353 2.93188 -0.00719
C 6.09624 2.17581 0.01364
C 6.15146 0.70133 -0.01062
C 4.96401 0.03676 -0.00033
C 7.44123 32.67218 0.03589
C 7.3891 7.08522 -0.00925
C 14.74436 12.78837 -0.01721
C 14.73411 11.40696 -0.02422
C 15.91874 10.61956 0.01277
C 30.69461 4.93893 0.01713
C 29.43152 4.27216 -0.01694
C 29.48755 2.86925 0.01428
C 30.7222 2.15191 -0.02142
C 30.73326 0.77159 0.0544
C 29.5281 0.00158 0.00026
C 31.93581 32.61429 0.00682
C 33.20339 31.94839 -0.01779
C 30.7151 6.4093 0.00346
C 33.19972 30.52267 0.03794
C 31.93339 28.5111 0.01574
C 32.95358 27.63265 -0.02383
C 33.20134 26.30779 -0.01429
C 33.21684 19.13368 -0.0136
C 33.05121 17.75866 0.00594
C 31.89743 17.0374 -0.02474
C 31.93582 15.69476 0.00369
C 33.21082 14.91315 0.00455
C 31.95516 29.83429 0.01927
C 33.15967 13.47746 -0.00644
C 29.47378 7.15888 0.00307
C 30.71467 9.26126 0.02108
C 27.08127 8.46505 -0.01415
C 26.99742 7.06351 -0.03039
C 28.25937 6.45874 0.01836
C 28.26798 4.99382 0.03531
C 27.03383 4.2133 -0.00669
C 27.11082 2.77749 0.0101
C 28.31763 2.11957 0.01705
C 28.3035 0.69537 -0.0405
C 29.4989 8.5847 0.00716
C 27.09171 0.04201 -0.01303
C 30.71467 31.85545 -0.02155
C 30.69836 30.48249 -0.00944
C 29.43783 29.99009 -0.03735
C 30.82417 14.87239 -0.00971
C 30.76383 13.50559 0.01518
C 29.56108 12.70936 0.01908
C 29.5247 11.31682 0.07705
C 30.78615 10.69285 0.0103
C 29.5704 32.66385 -0.01461
C 32.02323 12.71661 -0.01839
C 31.98999 11.36433 0.00137
C 33.26069 10.58425 0.00199
C 1.20189 19.13538 -0.01678
C 1.21511 17.73565 0.01223
C 34.37151 17.06298 0.00648
C 34.42989 15.60904 0.02114
C 1.21767 14.89409 -0.02957
C 1.18348 13.48236 0.00343
C 0.00246 12.79947 -0.02656
C 0.01666 11.35586 -0.02442
C 34.29903 19.89099 0.01951
C 1.27488 10.66714 -0.00027
C 0.02571 8.49198 -0.02302
C 0.0045 7.08125 -0.02849
C 1.20424 6.36716 0.02931
C 1.24431 4.953 0.00628
C 34.41424 4.35872 -0.0345
C 34.40652 2.87958 -0.00931
C 1.23658 2.19605 -0.00939
C 1.24858 0.76113 -0.00468
C 1.22023 9.27273 -0.00583
C 0.0544 21.28782 -0.02213
C 1.18453 22.06064 0.02712
C 1.24842 23.48799 0.00723
C 33.23658 9.13361 0.04381
C 31.93799 8.54506 0.02806
C 31.92333 7.06684 0.01504
C 33.15466 6.42997 -0.00069
C 33.15644 4.99427 0.04926
C 31.91557 4.26183 -0.03838
C 31.93881 2.77513 0.00349
C 33.22169 2.14722 -0.00323
C 33.2201 0.72965 -0.00841
C 31.95773 34.02538 0.0001
C 34.42933 32.71024 -0.02927
C 1.17751 31.91112 -0.01404
C 1.16881 30.51364 0.01027
C 34.39954 29.84179 0.01831
C 34.39035 28.35872 -0.01037
C 1.18381 27.75873 -0.00439
C 1.21163 26.28425 -0.00598
C 34.29772 25.48743 -0.05239
C 0.00243 24.08773 0.03076
C 28.27085 9.2102 -0.01854
C 28.31232 10.69214 -0.02049
C 27.05994 11.33805 0.03265
C 27.11171 12.84582 0.00261
C 17.19007 8.54357 -0.01107
C 17.16023 7.1454 -0.01586
C 18.4181 6.41596 -0.01971
C 18.41085 5.04549 -0.02118
C 17.22174 4.25074 0.00733
C 17.19531 2.86641 -0.00178
C 18.44872 2.18262 0.00768
C 18.44073 0.72529 -0.0276
C 18.44124 9.18561 0.00071
C 17.24931 34.04772 0.03005
C 20.88532 31.98885 0.02117
C 20.66668 30.65263 0.02737
C 19.78113 29.84979 -0.00498
C 20.85181 13.34764 0.00135
C 19.65543 12.77261 0.03102
C 19.69434 11.36038 0.02555
C 20.84057 10.56484 0.01423
C 20.91413 9.19641 -0.00285
C 19.58889 32.69324 -0.04078
C 18.43761 10.6081 -0.00225
C 17.1429 11.29204 0.01515
C 17.18222 12.70551 -0.0055
C 15.9313 9.25148 0.00096
C 14.73458 8.48536 -0.01527
C 14.71859 7.09186 0.01087
C 15.98549 6.35669 0.00199
C 15.93762 4.925 0.01511
C 14.69672 4.2109 -0.00478
C 14.73815 2.79963 -0.01662
C 15.99016 2.12611 -0.01185
C 15.98475 0.73842 0.01126
C 14.76397 0.1112 0.01852
C 17.12369 32.65752 -0.00381
C 18.35118 31.87011 0.03046
C 18.45124 30.37357 0.0296
C 17.19501 29.73578 0.03374
C 17.25817 28.40489 -0.02845
C 17.20825 17.0326 -0.03213
C 17.17834 15.58642 0.02239
C 18.2174 14.78096 0.01153
C 18.42079 13.47106 0.02734
C 19.63427 8.45133 -0.009
C 3.71581 31.94413 -0.00725
C 19.64753 7.10314 -0.01199
C 20.83812 4.99881 -0.00938
C 25.82652 13.41843 0.04185
C 24.63402 12.77774 0.00194
C 24.59628 11.29693 -0.00621
C 25.81254 10.59257 0.02611
C 25.86289 9.21315 0.02198
C 24.64819 8.45401 0.01094
C 24.58694 7.02145 0.00235
C 25.83953 6.34 0.01495
C 25.96846 32.03601 0.02316
C 25.84156 4.90803 0.01259
C 24.55307 2.84664 0.01699
C 25.82446 2.13382 -0.00416
C 25.88485 0.70645 0.01177
C 24.5914 0.05661 0.04266
C 27.09046 32.69603 0.01324
C 28.29982 31.9848 0.0014
C 28.38107 30.66528 0.00924
C 28.34706 13.25487 0.02326
C 24.59266 4.25428 0.01799
C 24.67312 32.56544 0.01257
C 22.13187 0.03867 0.00152
C 23.37135 0.70694 -0.00294
C 19.6435 4.33723 -0.0264
C 19.60915 2.88998 -0.01154
C 20.82352 2.15568 0.00684
C 20.88874 0.77964 -0.01052
C 19.63133 0.04254 -0.01679
C 22.15871 32.65107 0.00367
C 23.35866 32.1598 0.04306
C 23.45928 13.40919 0.00996
C 22.1627 12.86039 0.00195
C 22.12714 11.31189 -0.00802
C 23.32326 10.60431 -0.00218
C 23.54968 9.25283 -0.01654
C 22.17837 8.53342 -0.00037
C 22.13971 7.11255 -0.0032
C 23.32861 6.34048 0.00622
C 23.31105 4.94544 -0.02815
C 22.08861 4.25135 -0.00942
C 22.0386 2.85933 0.00487
C 23.30685 2.16687 0.00826
C 20.96833 6.38388 -0.00229
C 2.4866 32.60128 0.02322
