344
Graphene
C 34.39002 34.03947 0.01295
C 9.82032 15.73669 0.02098
C 11.09242 14.93646 0.01848
C 11.06257 13.56859 -0.00619
C 9.82956 12.8536 -0.02162
C 9.91115 11.35122 0.00889
C 11.09461 10.56068 -0.00481
C 11.10725 9.1278 0.00979
C 9.83324 8.46385 0.01443
C 9.8439 7.04963 0.03505
C 11.10493 6.317 -0.02815
C 11.08104 4.94235 -0.04147
C 9.87962 4.27951 -0.05302
C 9.90871 2.85782 0.00213
C 11.07981 2.03987 -0.00066
C 11.10841 0.62229 -0.00289
C 9.84586 0.02016 0.00028
C 12.37777 32.78133 -0.02213
C 9.79694 17.17024 -0.03113
C 11.0131 17.83888 0.0351
C 11.10084 19.16879 0.00422
C 9.86202 21.30128 0.00798
C 8.5557 6.35248 0.03542
C 8.68196 4.90339 0.02299
C 7.37019 4.28864 0.00244
C 7.39315 2.89679 -0.01717
C 8.66934 2.2125 0.05265
C 8.56818 0.78584 -0.01952
C 7.35948 0.06456 -0.02813
C 9.82277 32.67599 0.00374
C 13.52191 31.97407 0.03698
C 11.05941 32.00673 0.00052
C 9.7931 29.86311 0.01965
C 9.83416 28.45628 0.02058
C 11.02909 27.74203 -0.01957
C 11.04008 26.34611 -0.0108
C 9.84651 25.5872 -0.00368
C 9.87704 24.04874 -0.02696
C 11.05225 23.33818 -0.00114
C 11.11725 21.98946 0.00228
C 11.07238 30.5967 -0.03682
C 7.36174 7.13396 0.01416
C 13.58926 30.49834 -0.00109
C 12.23738 28.43434 0.03338
C 13.51384 0.74581 0.00654
C 12.34512 0.04164 -0.00703
C 14.76017 32.60501 -0.04076
C 16.00852 31.89813 -0.00652
C 15.97858 30.50513 0.0058
C 14.75338 29.80372 -0.00865
C 14.73657 28.33751 0.00675
C 16.02069 27.79774 -0.00311
C 14.73623 25.72403 0.00742
C 14.84427 24.33651 -0.01594
C 15.78323 23.4084 0.0106
C 16.03581 22.05629 -0.01154
C 14.79635 21.2982 -0.01721
C 14.69419 19.96061 -0.02422
C 15.8557 19.12776 0.01277
C 15.96861 17.70212 0.00096
C 14.77166 17.03767 -0.01527
C 12.27144 2.83968 -0.04422
C 12.28213 4.2302 -0.02957
C 12.28978 6.99657 -0.00831
C 12.41525 8.36868 0.00364
C 13.46618 27.65861 -0.0258
C 13.46522 26.27935 -0.0331
C 12.26728 25.61724 -0.00316
C 12.29414 24.12198 0.02188
C 13.57562 23.4563 -0.01979
C 13.58432 22.03189 0.02691
C 12.32227 21.26681 -0.01581
C 12.26194 19.83245 0.01452
C 12.26333 29.8479 -0.00491
C 13.51845 19.17448 0.04892
C 12.26858 17.04557 -0.03557
C 12.35097 15.6561 0.03754
C 13.54389 14.89445 0.01739
C 13.50318 13.46181 0.00755
C 12.26268 12.79184 -0.0054
C 12.24301 11.37996 0.00667
C 13.52154 10.65486 0.00143
C 13.3674 9.28077 -0.017
C 13.61683 17.76663 -0.00111
C 14.7589 15.57379 0.01087
C 7.37606 8.5371 0.01945
C 8.70298 10.65199 0.01241
C 2.44392 7.10763 0.00895
C 3.68406 6.39382 0.00685
C 3.66813 4.94182 0.02888
C 2.45722 4.21722 -0.00482
C 2.4325 2.76055 -0.01384
C 3.75606 2.20029 0.03693
C 3.70634 0.75562 0.01745
C 2.45219 34.05812 0.00488
C 4.94425 32.7052 -0.01004
C 6.13317 32.0008 -0.02896
C 6.1301 30.57199 -0.00131
C 4.89021 29.81495 -0.01118
C 4.87221 28.41801 -0.014
C 6.10689 27.73293 0.02147
C 6.13278 26.25178 0.00373
C 4.88483 25.54622 -0.00191
C 4.93347 24.10226 0.00438
C 2.42521 8.50644 0.00393
C 3.6348 9.21655 0.0288
C 3.72182 10.75369 -0.0008
C 2.47613 11.35854 -0.01362
C 3.6192 30.59367 0.00873
C 2.36679 29.8742 -0.00049
C 2.43608 28.44823 0.00848
C 3.63543 27.7168 -0.01303
C 3.58531 26.33173 -0.01378
C 2.36943 25.53785 0.02635
C 2.42839 24.09239 0.0127
C 3.59937 23.41812 0.01396
C 6.11853 23.40048 0.01291
C 3.58778 22.01457 0.01849
C 2.38338 19.8548 -0.00562
C 3.66143 19.16272 -0.00494
C 3.72611 17.7768 0.00054
C 2.46844 16.9978 0.03007
C 2.44315 15.61501 -0.00095
C 3.65613 14.96146 0.01572
C 3.70801 13.54098 -0.04848
C 2.47742 12.79323 -0.00892
C 2.43252 21.24064 -0.01142
C 8.57654 9.20219 -0.01454
C 6.17996 22.00047 0.00093
C 4.91889 19.83639 -0.01634
C 7.3729 29.78158 -0.02689
C 7.37059 28.41874 -0.01046
C 8.6027 27.73881 -0.00891
C 8.62998 26.36421 0.02819
C 7.36524 25.57704 0.00165
C 7.42358 24.10759 -0.02971
C 8.65655 23.36198 0.02894
C 8.58518 21.90578 -0.01789
C 7.3465 21.1314 0.00444
C 7.3136 19.68271 -0.00925
C 8.48882 17.81592 0.01877
C 7.3163 17.09532 0.01363
C 7.40374 15.62121 -0.02162
C 8.58725 14.90366 0.00415
C 8.65345 13.50642 -0.0014
C 7.38405 12.80571 0.02162
C 7.46254 11.39276 0.0076
C 8.52506 30.54469 -0.01536
C 8.59489 32.04524 0.03101
C 7.33777 32.74737 -0.00428
C 4.98665 0.09698 -0.02245
C 6.09336 19.07217 -0.00334
C 6.03814 17.69463 0.02339
C 4.87471 16.98653 0.01641
C 4.9545 15.5883 -0.00719
C 6.15888 14.94853 0.01364
C 6.19964 13.49021 -0.01062
C 4.94973 12.78677 -0.00033
C 4.93932 11.4166 0.03589
C 4.84423 21.25856 0.00057
C 6.21709 10.72519 -0.02759
C 4.84755 8.53205 0.00572
C 4.86849 7.13464 0.03592
C 6.11287 6.45529 0.00406
C 6.05783 5.0378 0.00943
C 4.86627 4.31597 0.02841
C 4.94926 2.86828 -0.01111
C 6.16092 2.2293 -0.01275
C 6.21409 0.77371 0.00985
C 6.17617 9.28537 0.0402
C 16.0226 14.89635 0.00199
C 16.03398 13.44581 0.01511
C 14.76172 12.69416 -0.00478
C 31.74307 29.67767 -0.02142
C 31.98775 28.36661 0.0544
C 33.19876 27.73385 0.00026
C 33.1497 26.3091 0.00682
C 32.08708 25.4912 -0.01779
C 31.91021 24.18191 0.03794
C 33.09234 23.41721 0.01927
C 33.16941 22.06114 0.01574
C 31.90774 21.35077 -0.02383
C 31.87007 19.86167 -0.01429
C 33.15945 19.2034 -0.0136
C 33.16529 17.79205 0.00594
C 31.99377 17.12852 -0.02474
C 31.97529 15.6398 0.00369
C 33.21386 14.9346 0.00455
C 33.21801 13.51677 -0.00644
C 31.98648 12.80897 -0.01839
C 33.14565 30.49135 0.01428
C 33.12286 31.92161 -0.01694
C 31.86011 32.6598 0.01713
C 29.5939 33.98085 0.00346
C 30.61018 19.18204 0.03531
C 30.78731 17.73806 -0.00669
C 29.60535 17.00211 0.0101
C 29.5083 15.59648 0.01705
C 30.75538 14.92005 -0.0405
C 30.75813 13.48533 -0.01303
C 29.49851 12.77144 -0.01461
C 29.48711 11.37955 -0.02155
C 31.92713 11.36234 0.00137
C 30.70602 10.65494 -0.00944
C 29.54043 8.44062 -0.00971
C 29.49931 7.06609 0.01518
C 30.75688 6.41069 0.01908
C 30.75701 4.96982 0.07705
C 29.52672 4.21693 0.0103
C 29.48026 2.84924 0.02108
C 30.72061 2.15996 0.00716
C 30.78815 0.73337 0.00307
C 30.7415 9.27747 -0.03735
C 29.35042 19.85319 0.01836
C 33.12989 10.61826 0.00199
C 31.95395 8.5245 0.02806
C 1.2143 17.76963 0.01223
C 34.42745 17.0668 0.00648
C 34.42385 15.63689 0.02114
C 1.20561 14.94166 -0.02957
C 1.23817 13.49999 0.00343
C 34.39075 12.76735 -0.02656
C 0.01746 11.36982 -0.02442
C 1.30386 10.64066 -0.00027
C 1.24636 9.21099 -0.00583
C 0.0205 8.51846 -0.02302
C 0.06049 7.12855 -0.02849
C 1.22643 6.42302 0.02931
C 1.24719 4.96021 0.00628
C 0.04305 4.2496 -0.0345
C 34.41767 2.87674 -0.00931
C 1.22002 2.09722 -0.00939
C 1.25566 0.5813 -0.00468
C 1.21274 19.21312 -0.01678
C 34.4278 19.88511 0.01951
C 34.40121 21.30125 -0.02213
C 1.19965 21.95639 0.02712
C 31.98476 7.0922 0.01504
C 33.26756 6.38515 -0.00069
C 33.2702 5.00995 0.04926
C 32.01984 4.24341 -0.03838
C 32.03187 2.87475 0.00349
C 33.22524 2.15621 -0.00323
C 33.21979 0.74336 -0.00841
C 31.96757 0.0009 0.0001
C 33.1126 9.23561 0.04381
C 34.35044 32.65419 -0.02927
C 1.17827 30.60485 0.01027
C 34.35198 29.86888 0.01831
C 34.39207 28.46841 -0.01037
C 1.21564 27.76607 -0.00439
C 1.14018 26.31066 -0.00598
C 34.30463 25.56739 -0.05239
C 34.25421 24.10504 0.03076
C 1.20431 23.39298 0.00723
C 1.20902 32.04319 -0.01404
C 30.62269 21.91578 -0.03039
C 30.63116 30.48869 -0.01415
C 30.66987 31.86324 -0.01854
C 19.67449 11.33117 -0.00178
C 20.90542 10.78387 0.00768
C 20.86158 9.4191 -0.0276
C 20.71787 0.34382 0.03005
C 19.35897 34.05331 -0.04078
C 21.99764 16.94732 0.02117
C 22.20824 15.62424 0.02737
C 23.39446 14.9704 -0.00498
C 23.34786 13.54134 0.00135
C 22.13122 12.88072 0.03102
C 22.09871 11.49564 0.02555
C 23.28879 10.70898 0.01423
C 23.26849 9.28757 -0.00285
C 21.93673 8.53537 -0.009
C 22.20078 7.15007 -0.01199
C 23.32889 6.47822 -0.00229
C 23.35851 5.08358 -0.00938
C 19.65877 12.86674 0.00733
C 20.86838 13.61855 -0.02118
C 20.93056 15.01967 -0.01971
C 19.68978 15.64683 -0.01586
C 14.74087 11.344 -0.01662
C 15.96737 10.57741 -0.01185
C 14.62957 34.02749 0.01126
C 17.04713 32.76953 0.01852
C 17.12086 29.8312 -0.00381
C 17.07038 19.71855 0.03046
C 18.26466 19.15406 0.0296
C 18.39758 17.81811 0.03374
C 22.25296 4.20028 -0.0264
C 17.29401 17.02854 -0.02845
C 18.46418 14.95697 0.02239
C 18.4341 13.45815 0.01153
C 17.16229 12.67342 0.02734
C 17.24644 11.12012 -0.0055
C 18.50538 10.59551 0.01515
C 17.53416 0.09363 -0.00225
C 20.87294 17.70591 0.00071
C 19.59799 17.18269 -0.01107
C 17.24256 15.63129 -0.03213
C 22.10008 2.92087 -0.01154
C 23.23997 2.06256 0.00684
C 23.30626 0.54841 -0.01052
C 27.20391 17.2465 0.02611
C 27.13546 15.69067 0.02198
C 28.2772 14.90632 0.01094
C 28.26216 13.47846 0.00235
C 27.08473 12.78716 0.01495
C 27.02302 11.41549 0.01259
C 28.18922 10.68706 0.01799
C 28.25776 9.24249 0.01699
C 28.41392 17.76211 -0.00621
C 27.01753 8.52922 -0.00416
C 28.30477 6.3445 0.04266
C 28.32453 4.94525 0.01324
C 27.06308 4.27943 0.0014
C 26.99145 2.82823 0.00924
C 28.28928 2.06748 0.02326
C 28.31706 0.71448 0.00261
C 27.05856 0.03389 0.03265
C 29.51741 32.57774 -0.02049
C 27.05982 7.09785 0.01177
C 3.70735 31.97798 0.01227
C 28.28215 31.92812 0.00194
C 24.56472 0.10925 0.02316
C 22.06915 0.20896 -0.01679
C 25.92047 17.6802 0.00367
C 24.81487 17.01819 0.04306
C 24.54547 15.61396 0.00996
C 25.8661 14.9371 0.00195
C 25.81113 13.51002 -0.00802
C 24.55283 12.84013 -0.00218
C 24.56557 11.33603 -0.01654
C 27.21299 32.72834 0.04185
C 25.79277 10.56484 -0.00037
C 24.51163 8.60649 0.00622
C 24.60236 7.14277 -0.02815
C 25.87899 6.39864 -0.00942
C 25.81697 4.98315 0.00487
C 24.51221 4.24509 0.00826
C 24.46091 2.78477 -0.00294
C 25.74583 2.1405 0.00152
C 25.82925 0.64279 0.01257
C 25.7788 9.21176 -0.0032
C 2.43898 32.64865 -0.03337
