312
Graphene
C 34.39754 34.02566 0.01295
C 12.37519 3.04729 -0.0331
C 13.42943 2.07654 -0.00316
C 13.56087 0.59897 0.02188
C 12.30602 34.04536 -0.01979
C 14.68585 32.59182 0.02691
C 15.94645 31.99457 -0.01581
C 15.96848 30.56665 0.01452
C 14.70589 29.88756 0.04892
C 14.65005 28.36409 -0.00111
C 15.91373 27.70114 -0.03557
C 15.98489 26.25449 0.03754
C 14.78692 25.49715 0.01739
C 14.95822 24.0729 0.00755
C 16.37785 23.40586 -0.0054
C 16.10287 22.07342 0.00667
C 13.63917 19.06604 -0.0258
C 12.34995 19.7139 0.03338
C 12.36395 21.16357 -0.00491
C 13.74594 21.89944 -0.00109
C 9.77899 19.64975 -0.00619
C 11.05415 19.04728 -0.02162
C 9.77716 2.75137 0.00889
C 11.0636 2.27649 -0.00481
C 11.02324 0.81619 0.00979
C 9.78983 0.11775 0.01443
C 12.25566 32.69199 0.03505
C 14.986 21.30109 0.00143
C 13.43948 31.95078 -0.02815
C 12.26491 29.76574 -0.05302
C 12.26026 28.33526 0.00213
C 13.49706 27.65683 -0.00066
C 13.53843 26.19249 -0.00289
C 12.29064 25.39647 0.00028
C 12.39839 23.99599 -0.02213
C 13.74383 23.31951 0.03698
C 13.45758 30.52719 -0.04147
C 9.83866 21.16206 0.01848
C 14.83575 19.67457 -0.017
C 14.77236 4.11237 -0.00831
C 18.40946 2.08366 0.00199
C 18.41942 0.74134 0.01511
C 17.17462 0.00394 -0.00478
C 19.60195 32.70649 -0.01662
C 20.84262 31.98984 -0.01185
C 20.86169 30.50117 0.01126
C 19.67296 29.80666 0.01852
C 19.68886 28.42104 -0.00381
C 20.90262 27.73423 0.03046
C 20.85187 26.22424 0.0296
C 19.602 25.52053 0.03374
C 18.89897 24.19065 -0.02845
C 19.52541 13.12258 -0.03213
C 19.49887 11.61281 0.02239
C 20.74274 10.78329 0.01153
C 17.19564 2.81448 0.01087
C 17.21047 4.26268 -0.01527
C 18.56544 4.90888 0.00096
C 18.8426 6.18252 0.01277
C 14.65218 2.77602 -0.02957
C 15.93692 2.08059 -0.04422
C 15.97743 0.68258 0.00654
C 14.80804 34.06143 -0.00703
C 17.12776 32.6903 -0.04076
C 18.34176 31.94288 -0.00652
C 18.41064 30.5377 0.0058
C 15.9071 4.8724 0.00364
C 17.22025 29.81225 -0.00865
C 18.48065 27.76837 -0.00311
C 18.44808 26.40989 0.00742
C 17.26632 25.7062 -0.01594
C 17.66621 24.2314 0.0106
C 18.55817 14.03453 -0.01154
C 18.38095 10.72094 -0.01721
C 18.54686 9.3831 -0.02422
C 17.16784 28.38458 0.00675
C 20.96261 9.36047 0.02734
C 11.13123 21.784 0.02098
C 9.89453 24.08234 0.0351
C 3.65463 6.45769 0.0402
C 3.76901 5.09656 0.00572
C 2.47353 4.34977 0.03592
C 2.47188 2.89813 0.00406
C 3.67859 2.1265 0.00943
C 3.7226 0.64161 0.02841
C 2.50627 34.03964 -0.01111
C 4.89101 32.66192 -0.01275
C 6.1343 31.94957 0.00985
C 6.15177 30.51054 -0.02245
C 4.85105 29.80037 -0.00428
C 4.82909 28.39236 0.03101
C 6.09195 27.68233 -0.01536
C 6.18336 26.20863 -0.02689
C 4.88714 25.51312 -0.01046
C 2.44036 7.22505 -0.02759
C 2.34016 8.71456 0.03589
C 2.37849 11.5089 -0.00033
C 2.45087 12.73032 -0.01062
C 3.57059 30.54891 -0.00131
C 2.35743 29.82612 -0.01118
C 2.33425 28.33171 -0.014
C 3.56495 27.70103 0.02147
C 3.67178 26.28081 0.00373
C 2.43595 25.57685 -0.00191
C 2.43469 24.1355 0.00438
C 4.89687 24.11736 -0.00891
C 3.73795 23.40874 0.01291
C 2.51075 21.37506 0.00057
C 2.51049 19.89081 -0.01634
C 3.64874 19.13157 -0.00334
C 3.60252 17.77488 0.02339
C 2.41493 17.0783 0.01641
C 2.51065 15.6043 -0.00719
C 3.66424 14.87091 0.01364
C 3.74813 22.01595 0.00093
C 11.19865 23.21312 -0.03113
C 6.12853 23.42222 0.02819
C 4.9373 21.28072 -0.02971
C 7.44198 21.30569 -0.01952
C 7.3732 19.84177 -0.02813
C 8.44665 18.98435 0.00374
C 7.15134 2.98021 0.00052
C 8.50102 2.32626 -0.03682
C 8.54172 0.77852 0.01965
C 7.32924 0.08659 0.02058
C 9.80455 32.75064 -0.01957
C 10.97698 32.01217 -0.0108
C 11.04044 30.61082 -0.00368
C 9.8052 29.85248 -0.02696
C 9.81824 28.39992 -0.00114
C 11.06341 27.58228 0.00228
C 11.07755 26.11998 0.00798
C 9.86544 25.53435 0.00422
C 8.64568 21.89504 0.05265
C 8.64948 23.37363 -0.01717
C 7.4046 24.07534 0.00244
C 7.30118 25.46849 0.02299
C 4.87281 19.89872 0.02894
C 6.04658 19.1395 -0.01789
C 5.89 17.77547 0.00444
C 4.85605 16.97715 -0.00925
C 4.97943 4.22604 0.01877
C 4.87859 2.85582 0.01363
C 6.10562 2.13907 -0.02162
C 6.14737 21.97358 0.00165
C 6.17025 0.68761 0.00415
C 7.3321 32.70475 0.02162
C 8.59646 32.07379 0.0076
C 8.58496 30.46615 0.01241
C 7.37733 29.86178 -0.01454
C 7.34845 28.38206 0.01945
C 8.57379 27.63702 0.01416
C 8.58429 26.23545 0.03542
C 4.92131 34.0574 -0.0014
C 19.73143 8.6784 -0.0055
C 19.71713 7.31939 0.01515
C 20.42362 6.1582 -0.00225
C 33.15472 23.44035 0.01927
C 33.23263 22.02286 0.01574
C 31.97909 21.24947 -0.02383
C 31.95861 19.85587 -0.01429
C 33.18251 19.23978 -0.0136
C 33.23763 17.81289 0.00594
C 31.99685 17.05753 -0.02474
C 31.89031 15.70282 0.00369
C 33.17351 15.00587 0.00455
C 33.08883 13.56199 -0.00644
C 31.87487 12.84239 -0.01839
C 31.83917 11.41277 0.00137
C 33.08267 10.7296 0.00199
C 33.11368 9.29651 0.04381
C 31.8086 8.60634 0.02806
C 31.94747 24.07708 0.03794
C 31.87905 25.47866 -0.01779
C 33.0997 26.23135 0.00682
C 33.14078 27.66354 0.00026
C 29.22086 12.89989 -0.00944
C 29.43117 11.58266 -0.03735
C 30.57705 10.71183 -0.00971
C 30.63803 9.29045 0.01518
C 30.70059 6.44022 0.01908
C 30.67503 5.01756 0.07705
C 29.5127 4.23877 0.0103
C 31.9597 7.1412 0.01504
C 29.44914 2.80596 0.02108
C 30.66903 0.74214 0.00307
C 29.44682 0.07621 0.00346
C 31.95152 32.65258 0.01713
C 33.17884 31.90076 -0.01694
C 33.10448 30.54243 0.01428
C 31.85747 29.83008 -0.02142
C 31.8979 28.40124 0.0544
C 30.70487 2.14249 0.00716
C 30.57499 13.63091 -0.02155
C 33.14944 6.43243 -0.00069
C 31.94563 4.39265 -0.03838
C 0.0332 15.72882 0.02114
C 1.19765 15.01508 -0.02957
C 1.16318 13.5672 0.00343
C 34.35475 12.89501 -0.02656
C 34.3204 11.43742 -0.02442
C 1.04821 10.68759 -0.00027
C 1.07418 9.29901 -0.00583
C 34.28642 8.58896 -0.02302
C 34.34707 7.23313 -0.02849
C 1.25583 6.52572 0.02931
C 1.25827 5.07324 0.00628
C 0.03243 4.34595 -0.0345
C 0.00262 2.89707 -0.00931
C 1.22101 2.15843 -0.00939
C 1.21497 0.68805 -0.00468
C 0.00491 17.12935 0.00648
C 1.22928 17.84654 0.01223
C 1.20571 19.25979 -0.01678
C 34.39391 19.91612 0.01951
C 31.90621 2.82669 0.00349
C 33.15913 2.13679 -0.00323
C 33.1811 0.71226 -0.00841
C 31.89462 0.00451 0.0001
C 34.40595 32.59907 -0.02927
C 1.21057 31.93964 -0.01404
C 1.14138 30.5642 0.01027
C 33.19828 5.02268 0.04926
C 34.36685 29.81788 0.01831
C 1.12699 27.69218 -0.00439
C 1.15947 26.32437 -0.00598
C 34.38991 25.60364 -0.05239
C 34.37775 24.16173 0.03076
C 1.19297 23.45383 0.00723
C 1.23393 22.01042 0.02712
C 0.00917 21.29708 -0.02213
C 34.33213 28.34307 -0.01037
C 30.59366 14.97258 -0.01461
C 29.32975 15.69601 -0.01303
C 29.44083 17.08343 -0.0405
C 22.13395 0.07288 -0.01199
C 24.6043 32.67348 -0.00229
C 25.77695 31.99207 -0.00938
C 25.76492 30.55598 -0.0264
C 24.51241 29.78382 -0.01154
C 24.57345 28.33519 0.00684
C 25.82159 27.72401 -0.01052
C 25.78889 26.2908 -0.01679
C 24.59461 25.55699 0.00367
C 24.86216 24.12699 0.04306
C 25.86448 23.40667 0.00996
C 26.66114 13.8223 0.00195
C 24.46828 4.1965 -0.00802
C 24.63005 2.84348 -0.00218
C 25.79373 2.07165 -0.01654
C 23.36746 0.7964 -0.009
C 23.34062 2.22381 -0.00285
C 22.11952 2.88288 0.01423
C 22.11829 4.321 0.02555
C 20.78518 4.91826 0.00071
C 19.63692 4.10562 -0.01107
C 19.60616 2.78132 -0.01586
C 20.87293 2.11657 -0.01971
C 20.92948 0.75234 -0.02118
C 19.64956 0.04968 0.00733
C 22.10437 32.75258 -0.00178
C 25.83328 0.73637 -0.00037
C 23.35404 32.03415 0.00768
C 22.10322 29.84371 0.03005
C 22.11827 28.4701 -0.04078
C 23.30254 27.71283 0.02117
C 23.2617 26.2693 0.02737
C 22.02974 25.60712 -0.00498
C 21.76736 11.63278 0.00135
C 23.38758 4.83712 0.03102
C 23.3364 30.52895 -0.0276
C 24.54449 0.04596 -0.0032
C 27.039 32.76034 0.00622
C 28.22541 32.04917 -0.02815
C 26.98569 0.05537 0.04266
C 29.46012 32.7444 0.01324
C 30.66941 31.9223 0.0014
C 30.67759 30.50701 0.00924
C 29.40793 29.85565 0.02326
C 29.41922 28.41039 0.00261
C 30.68042 27.65039 0.03265
C 28.2559 0.74435 0.01177
C 30.6454 26.24194 -0.02049
C 29.55012 24.14151 -0.01415
C 30.72177 23.37571 -0.03039
C 30.69671 21.92647 0.01836
C 29.47121 21.2854 0.03531
C 29.46635 19.89345 -0.00669
C 30.70904 19.14067 0.0101
C 30.73858 17.77034 0.01705
C 29.41762 25.54231 -0.01854
C 3.66463 31.9498 -0.02896
C 28.20249 2.14823 -0.00416
C 27.04763 4.32591 0.01799
C 28.19877 30.53613 -0.00942
C 26.98638 29.86237 0.00487
C 26.95253 28.42596 0.00826
C 28.17665 27.63599 -0.00294
C 28.25649 26.22837 0.00152
C 27.00894 25.53168 0.01257
C 27.07471 24.1031 0.02316
C 26.96508 2.86658 0.01699
C 28.31298 23.40212 0.04185
C 26.86658 21.34624 -0.00621
C 28.27158 19.07725 0.02611
C 28.27773 17.84951 0.02198
C 26.55506 15.01284 0.01094
C 28.13987 15.02025 0.00235
C 28.10049 13.63609 0.01495
C 28.17027 4.82319 0.01259
C 28.17852 21.91362 0.00194
C 2.47562 32.66377 -0.01004
