327
Graphene
C 0.04581 34.06691 0.01295
C 13.4579 0.66176 0.00213
C 12.20892 0.15687 -0.00066
C 14.87652 32.71971 -0.00289
C 16.00858 31.89997 0.00028
C 14.88281 19.88109 -0.02213
C 15.99908 19.10382 0.03698
C 15.96935 17.70077 -0.00109
C 13.5026 2.09634 -0.05302
C 14.73089 17.06497 -0.00491
C 16.01552 14.8134 -0.0258
C 16.02122 13.38721 -0.0331
C 14.80817 12.79678 -0.00316
C 14.76337 11.4008 0.02188
C 16.00685 10.66716 -0.01979
C 15.98307 9.28641 0.02691
C 14.70811 8.58264 -0.01581
C 14.75824 15.59745 0.03338
C 12.27598 2.80434 -0.04147
C 12.21521 4.25708 -0.02815
C 13.56519 4.89564 0.03505
C 9.73906 2.78852 -0.0108
C 10.97493 2.10215 -0.00368
C 10.95869 0.58903 -0.02696
C 9.7014 0.14737 -0.00114
C 13.76071 19.07776 0.00228
C 13.5036 17.79108 0.00798
C 12.27791 17.15245 0.00422
C 12.31295 15.69502 0.0351
C 13.52557 14.85842 -0.03113
C 13.62511 13.46343 0.02098
C 12.34274 12.74672 0.01848
C 12.31339 11.3258 -0.00619
C 13.55223 10.6638 -0.02162
C 13.50956 9.24342 0.00889
C 12.27507 8.5564 -0.00481
C 12.29824 7.05847 0.00979
C 13.57407 6.33426 0.01443
C 14.70711 7.14442 0.01452
C 9.84421 4.28411 -0.01957
C 16.01519 6.41764 0.04892
C 14.73415 4.19988 -0.03557
C 18.48364 13.51555 0.0106
C 17.25286 12.76428 -0.01154
C 17.24945 11.34365 -0.01721
C 18.52296 10.68067 -0.02422
C 18.45955 9.29545 0.01277
C 17.18852 8.56342 0.00096
C 17.23809 7.2301 -0.01527
C 18.45415 14.92912 -0.01594
C 18.3968 6.46427 0.01087
C 17.15095 4.24144 0.01511
C 17.13829 2.85703 -0.00478
C 18.35956 2.12088 -0.01662
C 18.45834 0.68383 -0.01185
C 17.23485 34.02491 0.01126
C 19.69329 32.723 0.01852
C 20.9833 31.88192 -0.00381
C 18.38164 5.03368 0.00199
C 17.1621 15.57643 0.00742
C 17.11481 16.98806 -0.00311
C 18.43549 17.6824 0.00675
C 14.72654 2.76623 0.03754
C 15.9252 2.11356 0.01739
C 15.9401 0.68305 0.00755
C 14.75469 34.00778 -0.0054
C 17.173 32.65152 0.00667
C 18.49264 32.08331 0.00143
C 18.33977 30.69142 -0.017
C 17.18219 29.91458 0.00364
C 17.44006 28.53599 -0.00831
C 18.43682 27.78131 -0.02957
C 18.74309 26.46766 -0.04422
C 17.33736 24.39348 0.00654
C 18.42904 23.49414 -0.00703
C 18.33146 22.09906 -0.04076
C 17.3378 21.23986 -0.00652
C 17.19866 19.86414 0.0058
C 18.4432 19.18194 -0.00865
C 15.99124 4.98867 -0.00111
C 20.78427 30.42848 0.03046
C 11.06428 4.98037 0.02058
C 9.83754 7.11895 -0.03682
C 3.74244 4.89752 0.00438
C 2.42867 4.216 0.01291
C 2.4307 2.76515 0.00093
C 3.60532 2.05494 0.00057
C 3.614 0.6551 -0.01634
C 2.45892 34.00015 -0.00334
C 5.03659 32.62121 0.02339
C 3.70931 6.3906 -0.00191
C 4.82574 21.28259 0.01641
C 6.27119 19.15715 0.01364
C 6.11979 17.75212 -0.01062
C 4.85919 17.06325 -0.00033
C 4.95503 15.62271 0.03589
C 6.14128 14.92742 -0.02759
C 6.17358 13.49128 0.0402
C 4.95217 12.73756 0.00572
C 5.07565 19.90226 -0.00719
C 2.45775 7.132 0.00373
C 2.43543 8.4851 0.02147
C 3.70898 9.17586 -0.014
C 3.51845 30.58506 -0.00892
C 2.4769 29.77711 -0.01362
C 2.37182 28.44492 -0.0008
C 2.35597 25.51835 0.0288
C 2.35124 24.20883 0.00393
C 3.6265 22.0355 0.00895
C 2.40919 21.44126 0.00685
C 2.46409 19.95379 0.02888
C 3.67526 19.28789 -0.00482
C 3.68205 17.87277 -0.01384
C 2.48609 17.15147 0.03693
C 2.49804 15.65421 0.01745
C 3.68935 15.00604 0.00488
C 3.65381 13.49866 -0.01004
C 2.49536 12.77751 -0.02896
C 2.39091 11.36703 -0.00131
C 3.67497 10.60712 -0.01118
C 4.9264 11.36017 0.03592
C 11.0722 6.3614 0.01965
C 6.1696 10.67938 0.00406
C 4.93879 8.52614 0.02841
C 8.62272 4.90375 -0.0014
C 7.36533 4.18964 0.02162
C 7.35017 2.77349 0.0076
C 8.49168 2.04595 0.01241
C 8.42058 0.60691 -0.01454
C 7.15376 0.05205 0.01945
C 11.13813 17.83487 0.01416
C 8.53819 6.3811 0.00415
C 9.83381 17.13047 0.03542
C 11.10187 15.0275 0.00244
C 11.09894 13.56092 -0.01717
C 9.86711 12.82402 0.05265
C 9.85394 11.41681 -0.01952
C 11.06481 10.66729 -0.02813
C 11.09424 9.27911 0.00374
C 9.79647 8.56385 0.00052
C 9.88426 15.70933 0.02299
C 7.3625 7.1586 -0.02162
C 7.37945 8.58494 0.01363
C 8.58879 9.30018 0.01877
C 4.95815 7.02812 -0.01111
C 6.15427 6.40342 -0.01275
C 6.14469 4.89583 0.00985
C 4.91991 4.2204 -0.02245
C 4.87948 2.9121 -0.00428
C 6.0735 2.14705 0.03101
C 5.90428 0.70777 -0.01536
C 4.82819 33.9672 -0.02689
C 8.42766 19.21717 -0.01046
C 8.59156 17.765 -0.00891
C 7.37579 16.99273 0.02819
C 7.38504 15.67494 0.00165
C 8.66919 14.95522 -0.02971
C 8.65681 13.53712 0.02894
C 7.37918 12.84203 -0.01789
C 7.38484 11.43384 0.00444
C 8.62452 10.76102 -0.00925
C 6.10576 9.24854 0.00943
C 3.80679 31.86999 -0.04848
C 19.51006 29.9357 0.0296
C 19.53406 25.46646 -0.02845
C 33.29381 30.68301 0.00682
C 33.22051 27.74201 -0.01779
C 33.43884 26.45242 0.03794
C 33.17141 23.65547 0.01927
C 32.95244 22.29403 0.01574
C 31.99805 21.26826 -0.02383
C 31.96614 19.8278 -0.01429
C 33.23233 32.02951 0.00026
C 33.15662 19.13583 -0.0136
C 31.94881 17.06569 -0.02474
C 31.92779 15.61279 0.00369
C 33.1558 14.92805 0.00455
C 33.09497 13.55482 -0.00644
C 31.88249 12.86606 -0.01839
C 31.93445 11.37261 0.00137
C 33.16718 10.6843 0.00199
C 33.17818 17.74695 0.00594
C 31.99896 32.59491 0.0544
C 29.44562 33.984 -0.02142
C 30.63677 0.61723 0.01428
C 30.70159 19.1382 -0.0405
C 30.73571 17.67568 -0.01303
C 29.512 17.02326 -0.01461
C 29.45868 15.61247 -0.02155
C 30.65356 14.87765 -0.00944
C 30.67362 13.5245 -0.03735
C 29.42944 12.74171 -0.00971
C 29.45022 11.3612 0.01518
C 30.67967 10.67833 0.01908
C 30.66117 9.2497 0.07705
C 29.38445 8.44175 0.0103
C 29.49774 7.10231 0.02108
C 30.76499 6.41315 0.00716
C 30.82747 4.99343 0.00307
C 29.56639 4.2604 0.00346
C 29.46882 2.848 0.01713
C 30.72508 2.11488 -0.01694
C 33.13227 9.21159 0.04381
C 29.53604 19.80195 0.01705
C 31.9417 8.50708 0.02806
C 33.16157 6.3757 -0.00069
C 0.00953 17.06057 0.00648
C 34.38797 15.64603 0.02114
C 1.2468 14.87005 -0.02957
C 1.24894 13.4518 0.00343
C 34.33283 12.79351 -0.02656
C 0.00608 11.40236 -0.02442
C 1.19238 10.63995 -0.00027
C 1.21917 17.80751 0.01223
C 1.17024 9.14729 -0.00583
C 34.43196 7.09047 -0.02849
C 1.2049 6.35155 0.02931
C 1.2355 4.91717 0.00628
C 0.00421 4.23331 -0.0345
C 34.40902 2.88281 -0.00931
C 1.19295 2.12715 -0.00939
C 1.24359 0.70236 -0.00468
C 34.41708 8.49655 -0.02302
C 1.19826 19.26938 -0.01678
C 34.32976 19.98329 0.01951
C 34.34609 21.41348 -0.02213
C 33.18476 4.94204 0.04926
C 31.97292 4.23697 -0.03838
C 31.97158 2.82112 0.00349
C 33.21801 2.08129 -0.00323
C 33.22407 0.67627 -0.00841
C 31.96886 0.06821 0.0001
C 0.05072 32.70441 -0.02927
C 1.25104 31.98826 -0.01404
C 1.18827 30.56479 0.01027
C 34.35912 29.88977 0.01831
C 34.3759 28.55975 -0.01037
C 1.16348 27.77793 -0.00439
C 1.29949 26.37019 -0.00598
C 0.1186 25.65689 -0.05239
C 34.40406 24.22477 0.03076
C 1.22987 23.44128 0.00723
C 1.15014 22.0865 0.02712
C 31.94322 7.14642 0.01504
C 19.512 28.53182 0.03374
C 30.71026 32.12765 0.0101
C 27.03541 34.07078 0.03531
C 20.88216 2.15696 0.00135
C 20.99547 0.75732 0.03102
C 19.73198 0.05624 0.02555
C 22.13131 32.70046 0.01423
C 21.9601 21.21092 -0.00285
C 22.06359 19.87616 -0.009
C 23.32931 19.13492 -0.01199
C 19.65887 2.84379 -0.00498
C 23.31314 17.65899 -0.00229
C 22.08519 15.56811 -0.0264
C 23.39713 14.86777 -0.01154
C 23.34692 13.47765 0.00684
C 22.07758 12.73195 -0.01052
C 22.13274 11.36082 -0.01679
C 23.31701 10.62738 0.00367
C 23.33897 9.22854 0.04306
C 22.10561 17.00489 -0.00938
C 19.67224 4.25472 0.02737
C 20.90908 4.91392 0.02117
C 20.86952 6.36029 -0.04078
C 19.75953 24.09118 -0.03213
C 20.86477 23.47385 0.02239
C 21.05858 22.12386 0.01153
C 19.72768 21.36882 0.02734
C 19.67889 19.96397 -0.0055
C 20.86529 19.17512 0.01515
C 20.80014 17.71936 -0.00225
C 19.59506 17.00347 0.00071
C 19.62195 15.589 -0.01107
C 20.86789 14.90337 -0.01586
C 20.85878 13.51683 -0.01971
C 19.65104 12.75462 -0.02118
C 19.76034 11.36121 0.00733
C 20.93191 10.66307 -0.00178
C 20.8636 9.22848 0.00768
C 19.68697 8.5152 -0.0276
C 19.66881 7.06462 0.03005
C 22.09359 8.47864 0.00996
C 29.4744 32.68767 -0.00669
C 22.2073 7.03207 0.00195
C 23.42119 4.77696 -0.00218
C 24.5628 33.93152 0.01799
C 27.04557 19.73554 0.01699
C 28.24957 19.34008 -0.00416
C 28.23418 17.77767 0.01177
C 27.03514 16.97791 0.04266
C 27.05589 15.56109 0.01324
C 28.27163 14.88287 0.0014
C 25.78913 0.17047 0.01259
C 28.20777 13.43499 0.00924
C 27.03218 11.30017 0.00261
C 28.24157 10.60769 0.03265
C 28.1924 9.11345 -0.02049
C 27.00554 8.47502 -0.01854
C 26.94295 2.65099 -0.01415
C 28.2464 2.17722 -0.03039
C 28.20186 0.56319 0.01836
C 27.03532 12.69771 0.02326
C 25.67103 2.62605 0.01495
C 24.44522 2.93955 0.00235
C 24.55651 7.13345 0.01094
C 22.112 4.18 -0.01654
C 22.09517 2.77812 -0.00037
C 23.27859 2.05274 -0.0032
C 23.33804 0.59351 0.00622
C 22.13662 34.03942 -0.02815
C 24.57748 19.8534 -0.00942
C 25.78169 19.20595 0.00487
C 25.77969 17.69504 0.00826
C 24.5743 16.90531 -0.00294
C 24.56469 15.50962 0.00152
C 25.83287 14.8648 0.01257
C 25.78981 13.41825 0.02316
C 24.59877 12.73141 0.04185
C 24.60485 11.32379 0.00194
C 25.84655 10.60135 -0.00621
C 25.75829 9.19265 0.02611
C 24.54025 8.50933 0.02198
C 23.43699 6.20931 -0.00802
C 2.4982 32.59294 0.01572
