382
Graphene
C 34.35919 0.0472 0.01295
C 11.02205 2.05948 0.01241
C 11.01156 0.68396 -0.01454
C 9.95407 33.82567 0.01945
C 12.23512 32.76831 0.01416
C 13.44888 32.02145 0.03542
C 13.36411 30.63829 0.02299
C 12.13133 29.99155 0.00244
C 12.24203 28.51401 -0.01717
C 13.47278 27.7488 0.05265
C 13.47822 26.33603 -0.01952
C 12.28295 25.58967 -0.02813
C 12.31817 24.1478 0.00374
C 13.57888 23.36706 0.00052
C 13.56245 21.92898 -0.03682
C 12.34095 21.29384 0.01965
C 12.31623 19.82223 0.02058
C 13.591 19.19031 -0.01957
C 13.59072 17.8088 -0.0108
C 12.35824 17.03904 -0.00368
C 9.68898 2.78427 0.0076
C 9.81383 4.30834 0.02162
C 11.07856 4.96226 -0.0014
C 11.11178 6.4196 0.00415
C 11.09644 27.79066 -0.01111
C 11.06879 26.25863 -0.01275
C 9.84208 25.59295 0.00985
C 9.81481 24.15714 -0.02245
C 11.09087 23.45538 -0.00428
C 11.11531 22.04891 0.03101
C 9.89339 21.33246 -0.01536
C 9.87427 19.91635 -0.02689
C 11.01791 19.13629 -0.01046
C 12.29104 15.67674 -0.02696
C 11.00965 17.76306 -0.00891
C 9.84934 15.58877 0.00165
C 11.04364 14.86275 -0.02971
C 11.04226 13.44036 0.02894
C 9.84762 12.71133 -0.01789
C 9.82442 11.32997 0.00444
C 11.09915 10.70204 -0.00925
C 11.12467 9.27859 0.01877
C 9.81306 8.54196 0.01363
C 9.84093 7.14058 -0.02162
C 9.81145 17.07859 0.02819
C 13.52593 14.929 -0.00114
C 13.47808 13.48175 0.00228
C 12.26894 12.78342 0.00798
C 14.80124 19.85999 -0.0258
C 16.02263 19.09751 -0.0331
C 16.0409 17.63025 -0.00316
C 14.77817 17.02791 0.02188
C 14.75949 15.60109 -0.01979
C 16.00674 14.85488 0.02691
C 16.00106 13.50495 -0.01581
C 14.78686 12.78348 0.01452
C 14.79783 11.37189 0.04892
C 14.79074 21.232 0.03338
C 15.94501 10.60582 -0.00111
C 14.84968 8.4901 0.03754
C 14.99739 7.07705 0.01739
C 16.14084 6.37857 0.00755
C 14.71803 4.11282 -0.0054
C 14.85642 2.80314 0.00667
C 15.97848 0.63958 0.00143
C 14.76458 34.04954 -0.017
C 17.15135 32.65164 0.00364
C 18.27061 31.80796 -0.00831
C 15.98103 9.25456 -0.03557
C 9.91587 28.5138 0.02841
C 15.93537 21.90181 -0.00491
C 14.79679 24.03238 0.03698
C 12.3623 11.29902 0.00422
C 13.55016 10.58097 0.0351
C 13.60527 9.18627 -0.03113
C 12.35919 8.50898 0.02098
C 12.35026 7.11205 0.01848
C 13.62038 6.42036 -0.00619
C 13.53547 4.9852 -0.02162
C 12.30048 4.28041 0.00889
C 12.29631 2.87135 -0.00481
C 16.0022 23.31106 -0.00109
C 13.50753 2.21874 0.00979
C 12.35971 0.14708 0.03505
C 14.70026 32.60201 -0.02815
C 15.89577 31.91407 -0.04147
C 15.89706 30.49203 -0.05302
C 14.6575 29.86193 0.00213
C 14.7531 28.41275 -0.00066
C 15.98269 27.66071 -0.00289
C 15.92908 26.25083 0.00028
C 14.72407 25.51931 -0.02213
C 13.53486 0.7316 0.01443
C 9.80364 29.93515 0.00943
C 10.96889 30.75052 0.00406
C 10.9637 32.26252 0.03592
C 3.65817 4.99827 0.02322
C 2.44029 4.33472 -0.00725
C 2.38893 2.8737 -0.05697
C 3.62625 2.22093 0.01087
C 3.52927 0.74648 -0.01343
C 2.32496 34.07539 0.00988
C 4.88047 32.78043 0.0276
C 6.12427 32.25646 0.01305
C 6.16643 30.75713 -0.00077
C 3.63864 6.41861 -0.00094
C 4.87903 29.96899 0.03368
C 6.03721 27.77187 -0.00966
C 6.19295 26.30446 -0.03337
C 4.95912 25.63389 0.01227
C 4.90824 24.24226 0.00873
C 6.15163 23.45951 -0.00049
C 6.22553 22.01814 0.00848
C 4.89665 21.34118 -0.01303
C 4.93612 19.94494 -0.01378
C 6.2115 19.24587 0.02635
C 4.846 28.5905 -0.02929
C 6.21379 17.81312 0.0127
C 2.39916 7.11885 -0.02566
C 3.61121 9.31446 0.017
C 3.61146 30.6174 0.01402
C 2.4312 29.86531 0.02379
C 2.39771 28.37319 0.00907
C 3.66366 27.75457 0.00643
C 3.77562 26.35358 -0.01509
C 2.50304 25.7026 0.03267
C 2.44998 24.18076 0.02374
C 3.68139 23.55774 0.00402
C 3.66108 22.07958 0.0073
C 2.45775 8.55022 -0.03113
C 2.43237 21.36255 0.0174
C 3.67601 19.2722 0.01226
C 3.78142 17.77835 -0.00279
C 2.41845 17.13033 0.01996
C 2.38928 15.73752 -0.03996
C 3.61367 14.97508 0.01465
C 3.60544 13.48865 -0.00074
C 2.39114 12.82798 -0.00518
C 2.39671 11.40692 0.0086
C 3.64663 10.68924 -0.00643
C 2.48732 19.92668 0.03828
C 18.2698 30.37838 -0.02957
C 4.95272 17.10642 0.01396
C 6.19832 14.91538 -0.01142
C 7.42187 19.98302 -0.014
C 8.64093 19.26077 0.02147
C 8.61706 17.87876 0.00373
C 7.39218 17.11819 -0.00191
C 7.39763 15.61028 0.00438
C 8.63641 14.93544 0.01291
C 8.59947 13.58133 0.00093
C 7.36824 12.81901 0.00057
C 7.39151 11.39392 -0.01634
C 7.38213 21.40822 -0.01118
C 8.58017 10.70481 -0.00334
C 7.35819 8.53087 0.01641
C 7.34168 7.13316 -0.00719
C 8.64718 6.43925 0.01364
C 8.57948 5.00527 -0.01062
C 7.35566 4.16151 -0.00033
C 7.33881 2.7385 0.03589
C 8.56419 1.98693 -0.02759
C 8.56311 0.43591 0.0402
C 7.10712 33.79019 0.00572
C 8.60497 9.25531 0.02339
C 4.94662 15.61925 0.01849
C 8.61437 22.07449 -0.00131
C 7.37572 24.21947 -0.01004
C 6.12224 13.52308 -0.00562
C 4.87544 12.81697 -0.00494
C 4.85275 11.3462 0.00054
C 6.10506 10.75306 0.03007
C 6.02127 9.31908 -0.00095
C 4.82715 8.54535 0.01572
C 4.88075 7.11659 -0.04848
C 6.11496 6.41684 -0.00892
C 6.08817 4.95883 -0.01362
C 8.57587 23.49097 -0.02896
C 4.82352 4.25493 -0.0008
C 6.07142 2.11551 0.00393
C 6.06691 0.62548 0.00895
C 4.77106 0.08177 0.00685
C 8.54295 30.70776 0.02888
C 7.34286 29.98224 -0.00482
C 7.31221 28.56655 -0.01384
C 8.62392 27.87729 0.03693
C 8.66029 26.44297 0.01745
C 7.42453 25.64584 0.00488
C 4.85346 2.8969 0.0288
C 17.06135 29.70805 -0.04422
C 17.20424 28.23485 0.00654
C 18.52653 27.56437 -0.00703
C 29.46558 8.52053 0.0103
C 29.47643 7.1249 0.02108
C 30.67409 6.35808 0.00716
C 30.62587 4.96742 0.00307
C 29.41541 4.2805 0.00346
C 29.54231 2.87971 0.01713
C 30.69522 2.14613 -0.01694
C 30.65331 0.69241 0.01428
C 29.43062 34.07423 -0.02142
C 30.69612 9.16133 0.07705
C 31.8218 32.70223 0.0544
C 33.15713 30.5995 0.00682
C 31.91254 29.92833 -0.01779
C 31.89066 28.48506 0.03794
C 33.09713 27.60997 0.01927
C 33.20552 26.24809 0.01574
C 33.21359 23.51933 -0.02383
C 33.27553 22.18358 -0.01429
C 33.16136 19.23919 -0.0136
C 33.27238 17.86027 0.00594
C 33.09919 32.0368 0.00026
C 32.00801 17.05699 -0.02474
C 30.69987 10.62216 0.01908
C 29.58123 12.79335 -0.00971
C 28.254 10.70165 0.0014
C 28.2018 9.25123 0.00924
C 27.00356 8.54753 0.02326
C 26.9937 7.07845 0.00261
C 28.24462 6.3999 0.03265
C 28.21419 4.96357 -0.02049
C 26.96495 4.23097 -0.01854
C 27.02499 2.81335 -0.01415
C 28.26529 2.10423 -0.03039
C 29.47195 11.38624 0.01518
C 28.19704 0.70637 0.01836
C 29.42717 32.59156 -0.00669
C 30.6787 31.9543 0.0101
C 30.70085 30.58737 0.01705
C 29.56977 29.75935 -0.0405
C 30.7878 17.58879 -0.01303
C 29.54943 17.05675 -0.01461
C 29.473 15.56703 -0.02155
C 30.71921 14.96688 -0.00944
C 30.79196 13.47618 -0.03735
C 26.99205 33.98659 0.03531
C 27.01862 11.42143 0.01324
C 31.99384 15.68103 0.00369
C 33.18014 13.51424 -0.00644
C 34.37951 21.34275 -0.02213
C 34.38317 19.88646 0.01951
C 1.22344 19.19236 -0.01678
C 1.21959 17.83471 0.01223
C 0.05566 17.10769 0.00648
C 0.00536 15.64297 0.02114
C 1.14047 14.96863 -0.02957
C 1.2032 13.56407 0.00343
C 34.41316 12.88734 -0.02656
C 1.19882 22.01008 0.02712
C 34.3667 11.37662 -0.02442
C 1.20507 9.22115 -0.00583
C 34.36836 8.52849 -0.02302
C 34.31783 7.12022 -0.02849
C 1.1051 6.41622 0.02931
C 1.22914 5.03261 0.00628
C 34.42834 4.35271 -0.0345
C 34.37726 2.90881 -0.00931
C 1.12051 2.14137 -0.00939
C 1.13002 0.79563 -0.00468
C 1.19786 10.7012 -0.00027
C 33.21255 14.93135 0.00455
C 1.20201 23.46221 0.00723
C 0.00306 25.65449 -0.05239
C 31.95239 12.82134 -0.01839
C 31.89251 11.41491 0.00137
C 33.14812 10.67502 0.00199
C 33.19299 9.2924 0.04381
C 31.93948 8.54485 0.02806
C 31.91111 7.05767 0.01504
C 33.10176 6.40048 -0.00069
C 33.1258 4.96906 0.04926
C 31.87342 4.27761 -0.03838
C 0.02857 24.26556 0.03076
C 31.88218 2.83661 0.00349
C 33.14364 0.78693 -0.00841
C 31.87806 34.06269 0.0001
C 34.39729 32.64883 -0.02927
C 1.18258 31.85494 -0.01404
C 1.20181 30.49709 0.01027
C 34.38471 29.77912 0.01831
C 34.34057 28.35355 -0.01037
C 1.12317 27.74206 -0.00439
C 1.26502 26.35747 -0.00598
C 33.15135 2.24952 -0.00323
C 3.57611 31.9945 -0.003
C 26.9635 12.91451 0.04266
C 28.22063 14.8647 -0.00416
C 19.70563 28.32583 0.03046
C 20.95114 27.64927 0.0296
C 20.87272 26.24079 0.03374
C 19.72446 25.40784 -0.02845
C 19.64623 24.01297 -0.03213
C 19.67565 21.28451 0.02239
C 19.75729 19.81884 0.01153
C 20.92793 19.0321 0.02734
C 21.0638 17.68026 -0.0055
C 19.56834 29.7861 -0.00381
C 19.83358 16.95927 0.01515
C 20.82606 14.7933 0.00071
C 20.96018 13.42122 -0.01107
C 19.71592 12.70408 -0.01586
C 19.66684 11.30046 -0.01971
C 20.84421 10.61658 -0.02118
C 20.83314 9.19125 0.00733
C 19.56459 8.43166 -0.00178
C 19.14483 7.10599 0.00768
C 20.73803 0.55084 -0.0276
C 19.67671 15.55687 -0.00225
C 19.63447 33.9679 0.03005
C 20.77999 30.55221 0.01852
C 19.56884 32.55188 -0.01185
C 18.5311 26.14474 -0.04076
C 17.24805 25.5003 -0.00652
C 17.24677 24.01585 0.0058
C 18.4472 23.31049 -0.00865
C 18.3954 21.90835 0.00675
C 17.21938 21.18105 -0.00311
C 17.27754 19.7802 0.00742
C 18.45054 19.13048 -0.01594
C 18.53007 17.72034 0.0106
C 20.74015 31.96337 0.01126
C 17.29838 17.00922 -0.01154
C 18.46441 14.84788 -0.02422
C 18.49208 13.43352 0.01277
C 17.24032 12.80346 0.00096
C 17.18256 11.32882 -0.01527
C 18.41175 10.67211 0.01087
C 18.41094 9.32421 0.00199
C 17.23067 8.57059 0.01511
C 17.37246 7.03092 -0.00478
C 17.07438 34.05807 -0.01662
C 17.24606 15.64116 -0.01721
C 28.33227 13.43058 0.01177
C 21.95531 32.71117 -0.04078
C 23.19731 30.58391 0.02737
C 25.77126 15.1341 0.00622
C 25.75098 13.56676 -0.02815
C 24.59096 12.80382 -0.00942
C 24.6009 11.38598 0.00487
C 25.82647 10.62362 0.00826
C 25.83894 9.19584 -0.00294
C 24.56286 8.52348 0.00152
C 24.4723 7.09428 0.01257
C 25.70051 6.42041 0.02316
C 24.44193 15.66238 -0.0032
C 25.76018 5.03331 0.04185
C 24.58667 2.87663 -0.00621
C 25.75046 2.15796 0.02611
C 25.76014 0.66734 0.02198
C 24.55451 33.99458 0.01094
C 27.02444 32.54625 0.00235
C 28.26044 31.83159 0.01495
C 28.21005 30.4675 0.01259
C 26.92984 29.90433 0.01799
C 27.08717 15.64778 0.01699
C 24.54641 4.24717 0.00194
C 23.22115 32.01191 0.02117
C 24.34066 29.76341 -0.00037
C 25.78379 31.91408 -0.00218
C 21.93623 29.85594 -0.00498
C 22.17595 28.51024 0.00135
C 22.24888 16.86846 0.03102
C 22.05311 15.52522 0.02555
C 23.31839 14.84038 0.01423
C 23.3747 13.47014 -0.00285
C 22.1869 12.63483 -0.009
C 22.12886 11.30692 -0.01199
C 23.44389 10.67921 -0.00229
C 25.68034 30.47477 -0.01654
C 23.30375 9.20328 -0.00938
C 22.01061 7.15481 -0.01154
C 23.18533 6.37393 0.00684
C 23.29477 4.97756 -0.01052
C 22.0948 4.22937 -0.01679
C 22.21622 2.89782 0.00367
C 23.22809 2.0923 0.04306
C 23.34063 0.6323 0.00996
C 22.00441 34.04562 0.00195
C 24.50625 32.58917 -0.00802
C 22.07433 8.54709 -0.0264
C 2.34309 32.65787 0.00031
