313
Graphene
C 0.01398 0.0269 0.01295
C 17.25638 17.01127 -0.0331
C 17.15501 15.68762 -0.00316
C 18.44234 14.93992 0.02188
C 18.49069 13.48097 -0.01979
C 17.25902 12.84341 0.02691
C 17.25264 11.39289 -0.01581
C 18.40424 0.66805 0.01452
C 17.1825 34.06676 0.04892
C 19.66898 32.56691 -0.00111
C 20.89562 31.90513 -0.03557
C 20.98093 30.56761 0.03754
C 20.94849 23.36983 0.01739
C 20.92468 21.99594 0.00755
C 19.723 21.27701 -0.0054
C 19.63986 19.94329 0.00667
C 18.46351 17.72613 -0.0258
C 18.4301 19.10716 0.03338
C 17.16193 19.82993 -0.00491
C 17.29506 21.20722 -0.00109
C 13.48856 0.70935 -0.00619
C 12.27095 0.05688 -0.02162
C 14.72959 32.62015 0.00889
C 14.6838 21.36059 -0.00481
C 14.68144 19.9276 0.00979
C 16.00186 19.20709 0.01443
C 15.99996 17.75223 0.03505
C 20.93364 19.17162 0.00143
C 14.75848 17.04845 -0.02815
C 15.96862 14.94023 -0.05302
C 15.99165 13.47434 0.00213
C 15.99702 0.71511 -0.00066
C 14.77922 0.07076 -0.00289
C 17.2673 32.65038 0.00028
C 18.4293 32.02127 -0.02213
C 18.43345 21.94222 0.03698
C 14.77979 15.62052 -0.04147
C 13.56099 2.12465 0.01848
C 20.97204 17.7394 -0.017
C 19.66844 15.58303 -0.00831
C 23.364 19.17912 0.00199
C 23.37035 17.70613 0.01511
C 22.08902 17.02016 -0.00478
C 22.1437 15.60743 -0.01662
C 23.4282 14.91004 -0.01185
C 23.38561 13.48719 0.01126
C 22.14209 12.77525 0.01852
C 22.11245 11.40998 -0.00381
C 23.35497 10.65143 0.03046
C 23.3682 9.18115 0.0296
C 23.36167 6.30858 0.03374
C 23.38287 5.0317 -0.02845
C 22.13202 2.79453 -0.03213
C 23.32785 2.18913 0.02239
C 23.37581 0.7321 0.01153
C 22.15955 19.83855 0.01087
C 22.16667 21.3514 -0.01527
C 23.34291 21.96322 0.00096
C 23.38158 23.41869 0.01277
C 20.91598 14.91328 -0.02957
C 20.93436 13.46412 -0.04422
C 19.63984 12.79652 0.00654
C 19.66169 11.30287 -0.00703
C 20.91343 10.6233 -0.04076
C 20.95946 0.69646 -0.00652
C 19.66742 0.0462 0.0058
C 19.65663 17.0632 0.00364
C 22.10019 32.65654 -0.00865
C 23.30633 30.5754 -0.00311
C 22.1166 29.83105 0.00742
C 22.15331 28.3724 -0.01594
C 23.40127 27.64675 0.0106
C 23.36327 26.27232 -0.01154
C 22.14366 25.58432 -0.01721
C 22.09822 24.1759 -0.02422
C 23.40842 31.97052 0.00675
C 13.49679 14.93619 0.02098
C 12.3279 15.54105 -0.03113
C 12.27814 16.98879 0.0351
C 4.90984 32.64796 -0.02759
C 6.18795 31.97728 0.0402
C 6.11136 30.53869 0.00572
C 6.10085 26.30333 0.03592
C 4.87448 25.59431 0.00406
C 4.91102 24.12208 0.00943
C 6.09376 23.44633 0.02841
C 6.14458 22.02476 -0.01111
C 4.95273 21.31906 -0.01275
C 4.9059 19.88086 0.00985
C 6.1343 19.13687 -0.02245
C 6.10263 17.73155 -0.00428
C 4.91355 17.02589 0.03101
C 6.12243 0.65391 -0.01536
C 4.92605 34.05956 -0.02689
C 2.49273 0.01751 0.03589
C 3.65705 0.76983 -0.00033
C 3.70157 2.15119 -0.01062
C 2.45275 2.85376 0.01364
C 3.66372 30.5772 -0.02896
C 2.48185 29.87618 -0.00131
C 2.49157 28.32978 -0.01118
C 3.65152 27.69734 -0.014
C 3.64967 26.30426 0.02147
C 2.43056 25.57289 0.00373
C 2.46152 24.16589 -0.00191
C 7.40914 32.73381 -0.01046
C 3.7265 23.38868 0.00438
C 2.48203 21.32827 0.00093
C 2.47591 19.893 0.00057
C 3.69848 19.19879 -0.01634
C 3.66547 17.8167 -0.00334
C 2.48247 17.08263 0.02339
C 2.47131 15.61736 0.01641
C 3.69622 14.92579 -0.00719
C 3.64523 22.04913 0.01291
C 8.66935 31.89185 -0.00891
C 8.66478 30.54755 0.02819
C 7.345 29.81525 0.00165
C 11.14748 23.38138 0.05265
C 11.05858 21.98651 -0.01952
C 9.77368 21.27553 -0.02813
C 9.81791 19.94167 0.00374
C 11.05373 19.17086 0.00052
C 11.11393 17.73908 -0.03682
C 9.83773 17.07688 0.01965
C 9.91122 24.13933 -0.01717
C 11.0123 0.62697 0.02058
C 12.33965 32.64658 -0.0108
C 13.48527 31.92902 -0.00368
C 13.5348 22.02958 -0.02696
C 12.26398 21.33394 -0.00114
C 12.28084 19.90295 0.00228
C 13.54239 19.19958 0.00798
C 13.49897 17.70018 0.00422
C 9.88457 0.01756 -0.01957
C 22.12813 0.01531 0.02734
C 9.82926 25.58497 0.00244
C 9.83624 29.80987 0.03542
C 7.35821 28.36277 -0.02971
C 8.58968 27.67744 0.02894
C 8.64412 26.2799 -0.01789
C 7.37034 25.5393 0.00444
C 7.36804 24.16369 -0.00925
C 8.61533 23.48057 0.01877
C 8.58736 22.01437 0.01363
C 9.91827 28.38667 0.02299
C 7.42594 21.28322 -0.02162
C 8.63505 19.21954 -0.0014
C 8.58231 17.6532 0.02162
C 7.36288 17.00982 0.0076
C 7.30669 0.02823 0.01241
C 9.79889 32.59449 -0.01454
C 11.06768 31.95135 0.01945
C 11.03541 30.58689 0.01416
C 7.34188 19.90388 0.00415
C 3.6842 31.90479 -0.01004
C 24.57767 32.6833 -0.0055
C 25.80072 30.55964 -0.00225
C 33.24221 26.27818 0.01927
C 31.97702 25.53764 0.01574
C 32.00515 24.14409 -0.02383
C 33.23777 23.46046 -0.01429
C 33.1983 22.01675 -0.0136
C 31.92937 21.34107 0.00594
C 32.01365 19.87935 -0.02474
C 33.22936 19.18429 0.00369
C 33.21816 17.75479 0.00455
C 32.02672 17.06814 -0.00644
C 31.92428 15.68842 -0.01839
C 33.17337 14.91919 0.00137
C 33.19388 13.49455 0.00199
C 31.90505 12.77811 0.04381
C 31.98391 11.38452 0.02806
C 33.2237 27.69139 0.03794
C 31.98226 28.37169 -0.01779
C 31.94362 29.84699 0.00682
C 33.18253 30.57317 0.00026
C 30.75883 13.48392 -0.00944
C 29.4692 12.80168 -0.03735
C 29.46507 11.39245 -0.00971
C 30.74805 10.6278 0.01518
C 30.76656 9.2306 0.01908
C 29.48263 8.56816 0.07705
C 29.47429 7.10771 0.0103
C 33.23391 10.71851 0.01504
C 30.76279 6.36098 0.02108
C 29.51527 4.25741 0.00307
C 29.46398 2.81428 0.00346
C 30.73168 2.12153 0.01713
C 30.72962 0.73574 -0.01694
C 29.45792 34.07105 0.01428
C 31.94302 32.64832 -0.02142
C 33.1954 31.90188 0.0544
C 30.75237 4.99686 0.00716
C 30.71276 14.909 -0.02155
C 33.21357 9.27397 -0.00069
C 31.97773 7.07887 -0.03838
C 1.21891 19.16154 0.02114
C 1.22539 17.7697 -0.02957
C 0.03535 17.04291 0.00343
C 0.00944 15.63708 -0.02656
C 1.20645 14.90448 -0.02442
C 1.19726 13.53677 -0.00027
C 0.00569 12.76655 -0.00583
C 34.36187 11.41243 -0.02302
C 0.02895 8.49006 -0.02849
C 34.43083 7.069 0.02931
C 1.26271 4.91907 0.00628
C 0.00268 4.2583 -0.0345
C 34.43204 2.84485 -0.00931
C 1.26773 2.14992 -0.00939
C 1.24066 0.70286 -0.00468
C 34.43235 19.84385 0.00648
C 34.41294 21.31436 0.01223
C 1.28166 22.05539 -0.01678
C 1.23304 23.38185 0.01951
C 33.23899 6.37959 0.00349
C 33.20617 4.9707 -0.00323
C 31.96577 4.2721 -0.00841
C 31.97504 2.80113 0.0001
C 33.16148 2.13856 -0.02927
C 33.244 0.68199 -0.01404
C 31.946 34.03543 0.01027
C 31.95012 8.53989 0.04926
C 34.40041 32.63625 0.01831
C 1.20203 30.54068 -0.00439
C 34.42744 29.83049 -0.00598
C 0.00866 28.37885 -0.05239
C 1.2471 27.68814 0.03076
C 1.22475 26.31636 0.00723
C 0.03837 25.5564 0.02712
C 34.4257 24.08169 -0.02213
C 1.23825 31.97603 -0.01037
C 29.53537 15.60856 -0.01461
C 29.4928 17.03464 -0.01303
C 30.78776 17.73905 -0.0405
C 24.60047 8.51418 -0.01199
C 24.55097 7.12175 -0.00229
C 25.85593 6.46058 -0.00938
C 25.81059 4.98951 -0.0264
C 24.6444 4.31458 -0.01154
C 24.56286 2.87098 0.00684
C 25.81419 2.1048 -0.01052
C 25.8493 0.68852 -0.01679
C 24.62192 0.05091 0.00367
C 27.0989 32.66874 0.04306
C 28.25398 31.91699 0.00996
C 28.28131 30.55376 0.00195
C 27.06027 29.84923 -0.00802
C 27.0872 28.47306 -0.00218
C 28.24256 27.62932 -0.01654
C 25.8012 9.21025 -0.009
C 25.82598 10.63592 -0.00285
C 24.65187 11.35686 0.01423
C 24.53781 12.73015 0.02555
C 24.52951 29.85757 0.00071
C 24.58466 28.35877 -0.01107
C 25.80955 27.68812 -0.01586
C 25.81716 26.23666 -0.01971
C 24.57892 25.60568 -0.02118
C 24.58022 24.1818 0.00733
C 25.82137 23.40527 -0.00178
C 28.28668 26.24742 -0.00037
C 25.76407 21.9839 0.00768
C 24.54139 19.90704 0.03005
C 25.79738 19.17552 -0.04078
C 25.84354 17.72501 0.02117
C 24.6108 17.04512 0.02737
C 24.59129 15.68094 -0.00498
C 25.82423 14.9437 0.00135
C 25.8171 13.52987 0.03102
C 24.56282 21.32999 -0.0276
C 27.04519 25.56453 -0.0032
C 27.04673 24.16426 0.00622
C 28.30103 23.41223 -0.02815
C 28.31164 0.69833 0.04266
C 27.04271 34.05514 0.01324
C 29.498 32.64091 0.0014
C 30.73003 31.94793 0.00924
C 30.74073 30.56924 0.02326
C 29.50079 29.76529 0.00261
C 29.50672 28.35153 0.03265
C 28.2141 2.11265 0.01177
C 30.74371 27.6687 -0.02049
C 29.5459 25.57924 -0.01415
C 29.48933 24.10552 -0.03039
C 30.72736 23.41279 0.01836
C 30.74513 22.00447 0.03531
C 29.51271 21.24254 -0.00669
C 29.47989 19.88992 0.0101
C 30.7745 19.13241 0.01705
C 30.76336 26.26449 -0.01854
C 25.85105 31.97824 0.01515
C 27.02676 2.81623 -0.00416
C 28.30342 4.91081 0.01799
C 28.27263 21.97814 -0.00942
C 27.01193 21.27778 0.00487
C 27.04308 19.87307 0.00826
C 28.30691 19.15975 -0.00294
C 28.274 17.77149 0.00152
C 27.0006 17.04484 0.01257
C 26.99337 15.59321 0.02316
C 27.04803 4.19796 0.01699
C 28.25588 14.91028 0.04185
C 27.08779 12.78055 -0.00621
C 27.08467 11.36671 0.02611
C 28.20661 10.65704 0.02198
C 28.24795 9.17815 0.01094
C 27.07299 8.50924 0.00235
C 27.05514 7.08506 0.01495
C 28.31397 6.35753 0.01259
C 28.31848 13.46006 0.00194
C 2.47079 32.66363 0.00488
