432
Graphene
C 0.04906 34.02163 0.01295
C 13.53674 6.38972 0.01364
C 13.46772 5.04131 -0.01062
C 12.27532 4.28336 -0.00033
C 12.27459 2.8003 0.03589
C 13.51743 2.09506 -0.02759
C 13.54381 0.67831 0.0402
C 12.2243 0.03024 0.00572
C 14.72019 32.65709 0.03592
C 16.00353 31.90308 0.00406
C 16.00799 30.50554 0.00943
C 14.7757 29.83112 0.02841
C 14.77282 28.4362 -0.01111
C 16.00811 27.72665 -0.01275
C 16.06472 26.19354 0.00985
C 14.75332 25.52724 -0.02245
C 14.71246 24.09826 -0.00428
C 15.97932 23.42083 0.03101
C 15.88416 22.01298 -0.01536
C 14.73397 21.24044 -0.02689
C 14.74239 19.84753 -0.01046
C 16.00275 19.20213 -0.00891
C 15.99026 17.76145 0.02819
C 14.73465 17.07614 0.00165
C 12.3271 7.18027 -0.00719
C 14.78997 15.61733 -0.02971
C 12.31361 8.54593 0.01641
C 13.49754 10.69789 -0.00334
C 11.05152 0.74688 0.0288
C 9.79923 0.03503 0.00393
C 12.27827 32.72349 0.00895
C 13.52613 31.92813 0.00685
C 13.51804 30.50309 0.02888
C 12.23106 29.8441 -0.00482
C 12.24596 28.47639 -0.01384
C 13.5344 27.77586 0.03693
C 13.62444 26.3074 0.01745
C 12.37656 25.61034 0.00488
C 12.29667 24.13202 -0.01004
C 13.46618 23.38014 -0.02896
C 13.4093 22.00617 -0.00131
C 12.14911 21.33464 -0.01118
C 12.18965 19.95185 -0.014
C 13.51137 19.18103 0.02147
C 13.51874 17.72958 0.00373
C 12.2067 17.0815 -0.00191
C 12.2986 15.6289 0.00438
C 13.45123 14.96074 0.01291
C 13.49281 13.54264 0.00093
C 12.23842 12.90492 0.00057
C 12.21531 11.5294 -0.01634
C 13.49255 9.2484 0.02339
C 11.02485 2.15095 -0.0008
C 15.96181 14.89077 0.02894
C 14.72052 12.86742 0.00444
C 17.17831 17.04876 -0.02696
C 17.18335 15.67446 -0.00114
C 18.35809 14.85217 0.00228
C 18.3859 13.414 0.00798
C 17.11378 12.79254 0.00422
C 17.20994 11.30361 0.0351
C 18.38554 10.6112 -0.03113
C 18.39941 9.17537 0.02098
C 17.17419 8.49946 0.01848
C 17.1693 7.07164 -0.00619
C 18.40643 6.35891 -0.02162
C 18.45234 4.90542 0.00889
C 17.18332 4.25909 -0.00481
C 17.14488 2.83191 0.00979
C 18.46171 2.1835 0.01443
C 18.38923 0.71724 0.03505
C 17.18457 34.06159 -0.02815
C 19.59745 32.68091 -0.04147
C 20.83478 32.03621 -0.05302
C 20.8431 30.54534 0.00213
C 19.68836 29.80374 -0.00066
C 19.69362 28.41662 -0.00289
C 20.96802 27.68961 0.00028
C 18.3814 17.77429 -0.00368
C 15.96857 13.53679 -0.01789
C 18.41262 19.23073 -0.0108
C 17.12795 21.22381 0.02058
C 14.71008 11.41455 -0.00925
C 15.93874 10.70728 0.01877
C 15.99421 9.28453 0.01363
C 14.73953 8.50959 -0.02162
C 14.66424 7.14307 0.00415
C 15.93456 6.4002 -0.0014
C 15.97521 4.98978 0.02162
C 14.73441 4.25158 0.0076
C 14.63861 2.85114 0.01241
C 15.9551 2.11236 -0.01454
C 15.91197 0.72851 0.01945
C 14.76712 34.05326 0.01416
C 17.26308 32.67465 0.03542
C 18.41504 31.95054 0.02299
C 18.51883 30.50618 0.00244
C 17.27594 29.80281 -0.01717
C 17.30772 28.32725 0.05265
C 18.52418 27.64405 -0.01952
C 18.51053 26.23306 -0.02813
C 17.28668 25.54786 0.00374
C 17.22955 24.11016 0.00052
C 18.46049 23.42252 -0.03682
C 18.43362 22.00345 0.01965
C 17.1612 19.86381 -0.01957
C 20.94381 26.20966 -0.02213
C 9.83785 2.87629 -0.01362
C 11.04487 5.06062 -0.04848
C 2.44924 34.05155 -0.02805
C 4.8889 32.71203 0.00081
C 6.14123 31.98983 0.00245
C 6.13318 30.61164 0.02728
C 6.0436 22.08064 -0.00039
C 4.87254 21.30104 0.0064
C 4.89663 19.83455 0.00211
C 6.17566 19.20248 -0.00449
C 6.18633 17.75536 -0.01979
C 4.89595 17.08074 0.02784
C 4.87471 15.62821 -0.01977
C 6.09938 14.85846 -0.00561
C 6.06084 13.5125 0.00208
C 4.85376 12.71784 0.01707
C 4.8531 11.30939 0.02769
C 6.12248 10.64743 -0.03291
C 6.15334 9.24625 -0.04999
C 4.8739 8.56746 0.04505
C 4.94256 7.17172 0.03284
C 6.11201 6.41853 -0.04307
C 6.14537 5.05015 0.03189
C 4.93246 4.29843 0.00031
C 4.9092 2.92401 -0.003
C 3.68594 0.78432 -0.01386
C 6.16613 2.1928 0.01402
C 3.70468 2.22096 -0.0059
C 2.46726 4.29765 -0.02375
C 3.80174 30.55316 -0.04306
C 2.68877 29.63457 -0.03672
C 2.46849 28.2188 0.01913
C 2.38314 25.60315 0.00267
C 2.55979 24.25327 0.00787
C 3.77721 23.36491 0.02426
C 3.67233 21.97982 0.01218
C 2.4348 21.22616 -0.01471
C 2.51215 19.85212 -0.02827
C 3.70744 19.15745 0.01078
C 3.62579 17.73609 -0.00112
C 2.43824 17.01751 0.03345
C 2.40256 15.56032 0.00748
C 3.63299 14.86855 0.00662
C 3.61299 13.46042 -0.0154
C 2.37945 12.697 -0.01299
C 2.35342 11.27639 -0.00407
C 3.58425 10.58122 0.01138
C 3.66131 9.20672 0.03278
C 2.43183 8.49234 -0.00177
C 2.42794 7.1794 0.04421
C 3.67788 6.40335 0.00088
C 3.70838 4.94782 0.00828
C 2.417 2.84403 0.00558
C 9.88146 4.25847 -0.00892
C 6.11526 0.83797 0.02379
C 7.33827 32.69603 0.00643
C 10.9522 30.60458 0.01305
C 9.53297 29.91568 -0.00077
C 9.84345 28.57174 0.03368
C 11.05132 27.6892 -0.02929
C 11.16247 26.29046 -0.00966
C 9.88653 24.23698 -0.03337
C 11.03321 23.50608 0.01227
C 10.96843 22.16759 0.00873
C 9.71515 21.40123 -0.00049
C 9.84097 20.01196 0.00848
C 11.0757 19.25028 -0.01303
C 11.03672 17.84117 -0.01378
C 9.84292 17.07384 0.02635
C 9.77429 15.64459 0.0127
C 11.02368 14.93985 0.01396
C 10.97158 13.58562 0.01849
C 9.77469 12.90425 -0.01142
C 9.72234 11.40055 -0.00562
C 11.0 10.75896 -0.00494
C 11.03289 9.35661 0.00054
C 9.8028 8.559 0.03007
C 9.83665 7.1609 -0.00095
C 11.07671 6.47719 0.01572
C 10.97256 31.9897 0.0276
C 4.86016 0.01997 0.00907
C 9.77574 32.68804 0.00988
C 8.57006 0.78699 0.01087
C 8.49804 32.04733 -0.01509
C 8.32527 30.64316 0.03267
C 8.70593 23.54179 0.02374
C 8.55823 22.17286 0.00402
C 7.26921 21.3792 0.0073
C 7.30783 19.98216 0.0174
C 8.58804 19.26883 0.03828
C 8.67719 17.84184 0.01226
C 7.44182 17.12369 -0.00279
C 7.39778 15.64573 0.01996
C 8.56762 14.96802 -0.03996
C 8.54146 13.53813 0.01465
C 7.30068 12.82625 -0.00074
C 7.3511 11.38294 -0.00518
C 8.542 10.71535 0.0086
C 8.59752 9.24683 -0.00643
C 7.31179 8.56666 0.017
C 7.47203 7.1518 -0.03113
C 8.59464 6.37529 -0.02566
C 8.6294 4.98912 -0.00094
C 7.39955 4.30175 0.02322
C 7.4284 2.9185 -0.00725
C 8.61205 2.18407 -0.05697
C 7.30454 0.02438 -0.01343
C 19.71546 25.60753 0.03698
C 19.65111 24.08297 -0.00109
C 20.89186 23.43657 -0.00491
C 30.62799 13.46021 -0.01303
C 29.46277 12.76712 -0.01461
C 29.47737 11.29388 -0.02155
C 30.67432 10.58028 -0.00944
C 30.69937 9.19244 -0.03735
C 29.41622 8.46821 -0.00971
C 29.51072 7.08837 0.01518
C 30.71124 6.24434 0.01908
C 30.74866 4.85798 0.07705
C 29.50152 4.20687 0.0103
C 29.51962 2.81749 0.02108
C 30.75241 2.04909 0.00716
C 30.74147 0.62374 0.00307
C 29.45742 34.02744 0.00346
C 32.03089 32.55334 0.01713
C 33.24133 31.89466 -0.01694
C 33.24206 30.48587 0.01428
C 31.98306 29.78484 -0.02142
C 31.98602 28.41019 0.0544
C 33.12513 27.70215 0.00026
C 33.10134 26.26518 0.00682
C 31.93586 25.55388 -0.01779
C 31.9222 24.15159 0.03794
C 30.70475 14.90159 -0.0405
C 33.16346 23.42952 0.01927
C 29.45185 15.61096 0.01705
C 30.74414 17.78642 -0.00669
C 27.02357 8.54996 0.02611
C 26.98304 7.14706 0.02198
C 28.23431 6.38976 0.01094
C 28.31464 4.97042 0.00235
C 27.08152 4.19024 0.01495
C 27.05491 2.78879 0.01259
C 28.27655 2.08085 0.01799
C 28.21376 0.70111 0.01699
C 27.00017 34.03706 -0.00416
C 29.48107 32.61638 0.01177
C 30.78324 31.88911 0.04266
C 30.75554 30.50151 0.01324
C 29.44987 29.80556 0.0014
C 29.41504 28.40108 0.00924
C 30.73195 27.69679 0.02326
C 30.72479 26.3544 0.00261
C 29.5279 25.61166 0.03265
C 29.45426 24.15795 -0.02049
C 30.66195 23.52525 -0.01854
C 30.67665 22.07594 -0.01415
C 29.49704 21.3535 -0.03039
C 29.50735 19.89922 0.01836
C 30.72825 19.16847 0.03531
C 29.48671 17.04356 0.0101
C 28.18339 9.23237 -0.00621
C 33.13719 22.0275 0.01574
C 31.93209 19.9403 -0.01429
C 34.42431 24.15754 0.03076
C 1.32358 23.49091 0.00723
C 1.20654 22.05307 0.02712
C 34.3567 21.36641 -0.02213
C 0.01283 19.951 0.01951
C 1.3044 19.2142 -0.01678
C 1.22342 17.76266 0.01223
C 0.0344 16.97398 0.00648
C 34.37605 15.61783 0.02114
C 1.16619 14.87789 -0.02957
C 1.16538 13.46671 0.00343
C 34.33157 12.63741 -0.02656
C 34.36711 11.26028 -0.02442
C 1.13701 10.61002 -0.00027
C 1.14243 9.14655 -0.00583
C 34.40472 8.44653 -0.02302
C 34.38133 7.02862 -0.02849
C 1.21975 6.34374 0.02931
C 1.21784 4.96899 0.00628
C 0.01962 4.19877 -0.0345
C 0.00853 2.81155 -0.00931
C 1.27224 2.1322 -0.00939
C 1.23981 0.67839 -0.00468
C 34.36904 25.54034 -0.05239
C 31.94952 21.28667 -0.02383
C 1.14294 26.24099 -0.00598
C 34.37595 28.40606 -0.01037
C 33.22415 19.16526 -0.0136
C 33.23419 17.79091 0.00594
C 31.94458 17.11511 -0.02474
C 31.85191 15.62907 0.00369
C 33.14011 14.90692 0.00455
C 33.13083 13.50841 -0.00644
C 31.87491 12.7844 -0.01839
C 31.95967 11.26845 0.00137
C 33.10784 10.5819 0.00199
C 33.12935 9.1045 0.04381
C 31.91857 8.40827 0.02806
C 31.90428 6.98164 0.01504
C 33.14782 6.27632 -0.00069
C 33.18859 4.87764 0.04926
C 31.98847 4.16892 -0.03838
C 31.97082 2.7977 0.00349
C 33.22093 2.03624 -0.00323
C 33.2312 0.59081 -0.00841
C 32.01741 34.02593 0.0001
C 34.43297 32.56359 -0.02927
C 1.27559 31.91687 -0.01404
C 1.3996 30.45399 0.01027
C 0.0627 29.822 0.01831
C 1.21632 27.66533 -0.00439
C 28.19442 10.63748 0.00194
C 26.98808 11.38705 0.04185
C 27.01702 12.77168 0.02316
C 23.3656 27.74558 0.0058
C 23.3751 26.26863 -0.00865
C 22.18684 25.5338 0.00675
C 22.15149 24.11456 -0.00311
C 23.38947 23.44024 0.00742
C 23.35329 21.96783 -0.01594
C 22.1332 21.26097 0.0106
C 22.14174 19.86764 -0.01154
C 23.3842 19.17906 -0.01721
C 23.31023 17.74655 -0.02422
C 22.11102 17.05965 0.01277
C 22.08995 15.673 0.00096
C 23.31124 14.97083 -0.01527
C 23.2872 13.56104 0.01087
C 22.05498 12.81506 0.00199
C 22.08699 11.35784 0.01511
C 23.30688 10.67848 -0.00478
C 23.32776 9.23474 -0.01662
C 22.09671 8.57114 -0.01185
C 22.15049 7.10149 0.01126
C 23.43171 6.41322 0.01852
C 23.35357 4.93119 -0.00381
C 22.17273 4.27418 0.03046
C 22.1437 28.43725 -0.00652
C 22.10259 2.85099 0.0296
C 22.09588 29.75951 -0.04076
C 23.27878 31.96472 0.00654
C 20.86676 22.05248 0.03338
C 19.67685 21.32117 -0.0258
C 19.58433 19.90618 -0.0331
C 20.82431 19.20364 -0.00316
C 20.82088 17.73735 0.02188
C 19.65718 17.03883 -0.01979
C 19.60527 15.63108 0.02691
C 20.90796 14.90144 -0.01581
C 20.84464 13.50271 0.01452
C 19.65169 12.6989 0.04892
C 19.69721 11.28158 -0.00111
C 20.89863 10.67297 -0.03557
C 20.87284 9.2393 0.03754
C 19.67266 8.48738 0.01739
C 19.67789 7.01934 0.00755
C 20.98969 6.33866 -0.0054
C 20.85931 4.95596 0.00667
C 19.67596 4.24105 0.00143
C 19.6548 2.85834 -0.017
C 20.85122 2.20037 0.00364
C 20.84056 0.78409 -0.00831
C 19.57994 0.01518 -0.02957
C 22.10356 32.7538 -0.04422
C 23.35436 30.48243 -0.00703
C 23.36869 2.11475 0.03374
C 23.34002 0.72612 -0.02845
C 22.08109 0.05105 -0.03213
C 24.62055 2.83015 -0.00938
C 25.8167 2.03623 -0.0264
C 25.79671 0.65546 -0.01154
C 24.54579 34.0469 0.00684
C 26.95376 32.60202 -0.01052
C 28.2132 31.93187 -0.01679
C 28.23944 30.55734 0.00367
C 27.03798 29.80241 0.04306
C 27.0038 28.39682 0.00996
C 28.2597 27.67032 0.00195
C 28.29415 26.25594 -0.00802
C 27.10953 25.58284 -0.00218
C 27.05101 24.15201 -0.01654
C 28.28176 23.4647 -0.00037
C 28.33582 22.0589 -0.0032
C 27.02769 21.31373 0.00622
C 27.0987 19.90202 -0.02815
C 28.24605 19.18557 -0.00942
C 28.25716 17.7356 0.00487
C 27.05515 17.02424 0.00826
C 27.03396 15.6324 -0.00294
C 28.26757 14.88047 0.00152
C 28.29113 13.49972 0.01257
C 24.72633 4.28216 -0.00229
C 25.91299 4.98363 -0.01199
C 25.76462 6.44573 -0.009
C 24.60956 7.14334 -0.00285
C 24.54967 32.70398 0.02239
C 25.79671 31.98481 0.01153
C 25.77388 30.54996 0.02734
C 24.61703 29.81759 -0.0055
C 24.62083 28.42875 0.01515
C 25.81911 27.73305 -0.00225
C 25.84983 26.29135 0.00071
C 24.65428 25.6013 -0.01107
C 24.65124 24.1507 -0.01586
C 25.84819 23.39279 -0.01971
C 25.76247 22.04033 -0.02118
C 3.69741 31.95918 -0.00012
C 24.52479 21.35426 0.00733
C 25.83424 19.14123 0.00768
C 25.8474 17.73802 -0.0276
C 24.5961 17.07992 0.03005
C 24.58889 15.67238 -0.04078
C 25.80352 14.92693 0.02117
C 25.80051 13.52494 0.02737
C 24.47522 12.81195 -0.00498
C 24.51256 11.38603 0.00135
C 25.7595 10.6504 0.03102
C 25.80665 9.28679 0.02555
C 24.60233 8.61255 0.01423
C 24.61179 19.88867 -0.00178
C 2.44505 32.7062 -0.00198
