423
Graphene
C 0.02316 33.98831 0.01295
C 13.50655 9.28344 0.03592
C 12.34147 8.66479 0.00406
C 12.12048 7.32571 0.00943
C 13.48567 6.46333 0.02841
C 13.50869 4.93253 -0.01111
C 12.31869 4.28384 -0.01275
C 12.29813 2.89362 0.00985
C 13.43722 2.0316 -0.02245
C 13.49828 0.71323 -0.00428
C 12.28077 0.00658 0.03101
C 13.5611 10.60861 0.00572
C 14.75864 32.71771 -0.01536
C 15.987 30.59845 -0.01046
C 14.79645 29.86023 -0.00891
C 14.82507 28.33446 0.02819
C 15.97454 27.62892 0.00165
C 15.91062 26.22153 -0.02971
C 14.74735 25.43774 0.02894
C 14.64083 24.06484 -0.01789
C 15.99113 23.36788 0.00444
C 16.03569 21.89734 -0.00925
C 14.79079 21.26831 0.01877
C 16.08579 31.93644 -0.02689
C 12.29242 12.97503 0.0402
C 13.44153 13.54634 -0.02759
C 13.5238 14.9544 0.03589
C 11.11976 5.08463 0.03693
C 9.87476 4.35557 0.01745
C 9.82146 2.90219 0.00488
C 11.01751 2.18106 -0.01004
C 11.06488 0.746 -0.02896
C 9.8414 0.08009 -0.00131
C 12.28431 32.63248 -0.01118
C 13.57266 31.93693 -0.014
C 13.55757 30.61021 0.02147
C 12.30693 29.87066 0.00373
C 12.27853 28.405 -0.00191
C 13.49783 27.67117 0.00438
C 13.53393 26.26424 0.01291
C 12.26947 25.57359 0.00093
C 12.2491 24.19139 0.00057
C 13.51287 23.35533 -0.01634
C 13.54597 21.94529 -0.00334
C 12.21362 21.34294 0.02339
C 12.23614 19.95096 0.01641
C 13.4621 19.23576 -0.00719
C 13.46115 17.75813 0.01364
C 12.27219 17.03986 -0.01062
C 12.33928 15.69877 -0.00033
C 14.76978 19.86874 0.01363
C 11.05104 6.46102 -0.01384
C 16.00667 19.12612 -0.02162
C 14.72074 17.10739 -0.0014
C 18.48665 19.16531 -0.03113
C 18.50953 17.81533 0.02098
C 17.21158 16.98599 0.01848
C 17.25205 15.63551 -0.00619
C 18.47845 14.90736 -0.02162
C 18.64232 13.46191 0.00889
C 17.44494 12.63801 -0.00481
C 17.15959 11.25103 0.00979
C 18.32631 9.31463 0.01443
C 17.12616 8.51832 0.03505
C 17.21531 19.8397 0.0351
C 17.15323 7.02715 -0.02815
C 18.32457 4.99533 -0.05302
C 17.12805 4.27965 0.00213
C 17.15955 2.86975 -0.00066
C 18.33682 2.1559 -0.00289
C 18.42153 0.72276 0.00028
C 17.25923 34.01074 -0.02213
C 19.69092 28.37703 0.03698
C 20.89508 27.72395 -0.00109
C 20.93433 26.2935 -0.00491
C 19.67722 25.56528 0.03338
C 18.39215 6.38136 -0.04147
C 17.18685 21.24105 0.00422
C 18.41267 21.99254 0.00798
C 18.37154 23.39846 0.00228
C 14.70543 15.68402 0.02162
C 16.01032 14.93816 0.0076
C 16.00593 13.49335 0.01241
C 14.72923 12.84257 -0.01454
C 14.70965 11.44704 0.01945
C 15.94484 10.5995 0.01416
C 15.93107 9.16119 0.03542
C 14.74455 8.50393 0.02299
C 14.75899 7.09073 0.00244
C 15.93417 6.37245 -0.01717
C 15.92764 4.93844 0.05265
C 14.69441 4.17026 -0.01952
C 14.66332 2.72847 -0.02813
C 15.91756 2.11564 0.00374
C 16.01187 0.64535 0.00052
C 14.82698 34.06178 -0.03682
C 17.28153 32.60347 0.01965
C 17.23046 29.79587 0.02058
C 17.2512 28.3945 -0.01957
C 18.48055 27.67804 -0.0108
C 18.4642 26.3216 -0.00368
C 17.20303 25.5316 -0.02696
C 17.19187 24.10945 -0.00114
C 15.9975 17.72175 0.00415
C 19.65293 24.12862 -0.0258
C 11.02706 13.57636 -0.00482
C 9.91266 15.6762 0.00685
C 3.58498 2.1981 0.02784
C 3.65489 0.7957 -0.01977
C 2.50114 0.03809 -0.00561
C 4.93733 32.60354 0.00208
C 6.12347 31.98676 0.01707
C 6.14172 30.55496 0.02769
C 4.9614 29.78335 -0.03291
C 4.9394 28.35459 -0.04999
C 6.14037 27.74544 0.04505
C 6.23644 26.28332 0.03284
C 2.35776 2.89608 -0.01979
C 4.95849 25.67152 -0.04307
C 6.11871 23.4905 0.00031
C 6.13854 22.0733 -0.003
C 4.8503 21.26574 0.01402
C 4.93279 19.89283 0.02379
C 6.14059 19.21399 0.00907
C 6.22943 17.73185 0.00643
C 4.97156 16.95114 -0.01509
C 4.93112 15.53222 0.03267
C 6.15482 14.82639 0.02374
C 6.0214 13.5084 0.00402
C 4.9445 24.17379 0.03189
C 2.44033 4.28505 -0.00449
C 3.66281 5.02309 0.00211
C 3.64856 6.41631 0.0064
C 3.71783 30.56546 0.01078
C 2.48587 29.78961 -0.00112
C 2.49216 28.37808 0.03345
C 3.69323 27.65162 0.00748
C 3.72504 26.26924 0.00662
C 2.51557 25.51385 -0.0154
C 2.45283 24.07044 -0.01299
C 3.70748 23.47358 -0.00407
C 3.6356 22.09497 0.01138
C 2.44212 21.35094 0.03278
C 2.45008 19.90495 -0.00177
C 3.75214 19.2215 0.04421
C 3.7567 17.7629 0.00088
C 2.49538 17.0953 0.00828
C 2.46814 15.60738 -0.02375
C 3.70081 14.86221 0.00558
C 3.5901 13.37433 -0.0059
C 2.37532 12.69901 -0.01386
C 2.42113 11.36892 -0.02805
C 3.64246 10.68877 0.00081
C 3.63584 9.25509 0.00245
C 2.39838 8.50281 0.02728
C 2.39599 7.1574 -0.00039
C 4.89089 12.64515 0.0073
C 11.12226 14.93714 0.02888
C 4.83772 11.29096 0.0174
C 4.97427 7.21128 0.01226
C 8.67404 5.08787 -0.00049
C 7.35392 4.33631 0.00848
C 7.25972 2.92418 -0.01303
C 8.5436 2.23435 -0.01378
C 8.57597 0.8427 0.02635
C 7.33302 0.13115 0.0127
C 9.80124 32.77351 0.01396
C 10.96734 32.02854 0.01849
C 11.07363 30.56835 -0.01142
C 9.77802 29.94845 -0.00562
C 8.56052 6.41831 0.00873
C 9.84119 28.57567 -0.00494
C 11.03385 26.36116 0.03007
C 9.86849 25.61818 -0.00095
C 9.81278 24.19032 0.01572
C 11.06634 23.4363 -0.04848
C 11.08475 22.02152 -0.00892
C 9.7726 21.35821 -0.01362
C 9.83761 19.93135 -0.0008
C 11.06655 19.20159 0.0288
C 11.04514 17.82169 0.00393
C 9.87455 17.01615 0.00895
C 11.04849 27.78948 0.00054
C 7.46127 7.05473 0.01227
C 8.64177 14.97076 -0.03337
C 7.41896 15.59375 -0.00966
C 6.19075 6.47331 -0.00279
C 6.19014 5.05234 0.01996
C 4.83569 4.34713 -0.03996
C 4.83111 2.90576 0.01465
C 6.07566 2.19727 -0.00074
C 6.09054 0.76384 -0.00518
C 4.88984 0.05696 0.0086
C 7.34572 32.76388 -0.00643
C 8.60157 32.1002 0.017
C 8.53186 30.61097 -0.03113
C 7.35999 29.83725 -0.02566
C 7.37237 28.40218 -0.00094
C 8.61198 27.72002 0.02322
C 8.66565 26.30633 -0.00725
C 7.47248 25.52406 -0.05697
C 7.38285 24.17899 0.01087
C 8.58089 23.45864 -0.01343
C 8.561 22.05516 0.00988
C 7.37157 21.28651 0.0276
C 7.35429 19.87598 0.01305
C 8.60657 19.14481 -0.00077
C 8.61224 17.70106 0.03368
C 7.4377 16.99991 -0.02929
C 4.85519 8.59386 0.03828
C 3.69966 31.89343 -0.02827
C 20.91444 23.43296 -0.0331
C 19.63549 21.32552 0.02188
C 29.58361 11.38311 -0.02155
C 30.73625 10.64292 -0.00944
C 30.72429 9.28302 -0.03735
C 29.50699 8.47967 -0.00971
C 29.49247 7.04981 0.01518
C 30.6904 6.286 0.01908
C 30.75003 4.93732 0.07705
C 29.54176 4.20975 0.0103
C 29.45781 2.86866 0.02108
C 30.65852 2.04249 0.00716
C 29.5258 12.82248 -0.01461
C 30.73713 0.64609 0.00307
C 31.99194 32.6031 0.01713
C 33.24312 31.91122 -0.01694
C 33.26551 30.5305 0.01428
C 31.99944 29.79654 -0.02142
C 31.96353 28.31528 0.0544
C 33.1806 27.61439 0.00026
C 33.22418 26.23159 0.00682
C 31.97105 25.48856 -0.01779
C 31.85231 24.09913 0.03794
C 33.16147 23.41501 0.01927
C 29.49906 34.02935 0.00346
C 30.72208 13.50196 -0.01303
C 30.71795 14.92987 -0.0405
C 29.50446 15.66454 0.01705
C 28.27312 6.42997 0.01094
C 28.27014 4.97812 0.00235
C 27.09379 4.29739 0.01495
C 27.11606 2.89977 0.01259
C 28.28413 2.12545 0.01799
C 28.2732 0.66666 0.01699
C 27.05739 0.0275 -0.00416
C 29.44533 32.66541 0.01177
C 30.75644 31.92268 0.04266
C 30.80049 30.53665 0.01324
C 29.5797 29.7535 0.0014
C 29.48089 28.44048 0.00924
C 30.74311 27.66629 0.02326
C 30.77193 26.23694 0.00261
C 29.46667 25.53539 0.03265
C 29.46652 24.1324 -0.02049
C 30.67818 23.37218 -0.01854
C 30.59235 21.97921 -0.01415
C 29.40891 21.24954 -0.03039
C 29.4882 19.88822 0.01836
C 30.73018 19.16371 0.03531
C 30.77062 17.77448 -0.00669
C 29.53461 17.14133 0.0101
C 33.09593 22.02025 0.01574
C 27.04412 7.10756 0.02198
C 31.91184 21.29033 -0.02383
C 33.1741 19.21599 -0.0136
C 1.19887 23.40048 0.00723
C 1.16251 22.0093 0.02712
C 34.39833 21.33429 -0.02213
C 34.37666 19.94707 0.01951
C 1.23101 19.23988 -0.01678
C 1.28321 17.83487 0.01223
C 0.04945 17.11259 0.00648
C 0.01057 15.6308 0.02114
C 1.23345 14.9397 -0.02957
C 1.12614 13.52629 0.00343
C 0.01388 24.0505 0.03076
C 34.39142 12.78206 -0.02656
C 1.18302 10.62013 -0.00027
C 1.13027 9.13092 -0.00583
C 34.32405 8.5302 -0.02302
C 34.37279 7.09773 -0.02849
C 1.22434 6.39996 0.02931
C 1.17443 4.95819 0.00628
C 34.38881 4.16821 -0.0345
C 34.31233 2.80174 -0.00931
C 1.11272 2.1195 -0.00939
C 1.23077 0.68009 -0.00468
C 34.39864 11.38366 -0.02442
C 0.03074 25.43744 -0.05239
C 1.237 26.19944 -0.00598
C 1.30609 27.61328 -0.00439
C 33.15656 17.78417 0.00594
C 31.99046 17.05386 -0.02474
C 31.94113 15.65363 0.00369
C 33.2196 14.90461 0.00455
C 33.19941 13.48606 -0.00644
C 31.92223 12.80684 -0.01839
C 31.95421 11.3877 0.00137
C 33.18208 10.56089 0.00199
C 33.17249 9.16086 0.04381
C 31.96174 8.41646 0.02806
C 31.90676 7.02968 0.01504
C 33.22072 6.29309 -0.00069
C 33.18601 4.89717 0.04926
C 31.93891 4.18956 -0.03838
C 31.89925 2.76065 0.00349
C 33.08224 2.07858 -0.00323
C 33.16653 0.6474 -0.00841
C 31.96951 34.05041 0.0001
C 0.04398 32.62399 -0.02927
C 1.29395 31.94106 -0.01404
C 1.28959 30.46535 0.01027
C 0.09545 29.72023 0.01831
C 0.07779 28.35197 -0.01037
C 31.97691 19.91618 -0.01429
C 20.8604 22.01059 -0.00316
C 27.03801 8.53972 0.02611
C 28.29913 10.63081 0.00194
C 23.31456 22.02894 -0.01594
C 22.07347 21.3122 0.0106
C 22.13192 19.88376 -0.01154
C 23.36215 19.18277 -0.01721
C 23.34898 17.74665 -0.02422
C 22.22863 17.02326 0.01277
C 22.16803 15.55534 0.00096
C 23.39025 14.93587 -0.01527
C 23.28909 13.46341 0.01087
C 21.88995 12.64625 0.00199
C 23.38116 23.37387 0.00742
C 22.08929 11.30993 0.01511
C 23.45068 9.24343 -0.01662
C 22.07488 8.63655 -0.01185
C 22.072 7.15832 0.01126
C 23.29834 6.46824 0.01852
C 23.28516 5.00421 -0.00381
C 22.05367 4.25422 0.03046
C 22.05167 2.87559 0.0296
C 23.29908 2.22767 0.03374
C 23.34517 0.76361 -0.02845
C 22.1078 0.02063 -0.03213
C 23.42743 10.60443 -0.00478
C 22.10813 24.10165 -0.00311
C 22.08603 25.54772 0.00675
C 23.38102 26.25405 -0.00865
C 19.688 19.892 -0.01979
C 20.93551 19.20898 0.02691
C 20.89204 17.7238 -0.01581
C 19.78465 17.07757 0.01452
C 19.69538 15.67955 0.04892
C 20.85572 14.91421 -0.00111
C 20.69652 13.44356 -0.03557
C 20.94004 9.35458 0.03754
C 19.62433 8.7467 0.01739
C 19.63329 7.1555 0.00755
C 20.82203 6.43099 -0.0054
C 20.84082 4.99297 0.00667
C 19.54015 4.26844 0.00143
C 19.58596 2.8469 -0.017
C 20.83127 2.16137 0.00364
C 20.87326 0.647 -0.00831
C 19.60061 0.08039 -0.02957
C 22.17524 32.64901 -0.04422
C 23.39447 31.91956 0.00654
C 23.37415 30.56203 -0.00703
C 22.17899 29.75584 -0.04076
C 22.15584 28.40806 -0.00652
C 23.34076 27.62649 0.0058
C 24.50748 32.6566 0.02239
C 28.31593 9.16219 -0.00621
C 25.82154 31.98005 0.01153
C 24.64489 29.76804 -0.0055
C 24.58585 0.0676 0.00684
C 27.0078 32.65622 -0.01052
C 28.23461 31.9562 -0.01679
C 28.28404 30.49508 0.00367
C 27.10238 29.78726 0.04306
C 27.02777 28.36122 0.00996
C 28.24714 27.67685 0.00195
C 28.24728 26.16842 -0.00802
C 27.03964 25.44548 -0.00218
C 27.03575 24.06249 -0.01654
C 25.9125 0.79878 -0.01154
C 28.20603 23.35252 -0.00037
C 26.95372 21.24165 0.00622
C 26.99095 19.83512 -0.02815
C 28.23325 19.21737 -0.00942
C 28.29075 17.75533 0.00487
C 27.02119 17.0197 0.00826
C 27.10755 15.66987 -0.00294
C 28.2953 15.02094 0.00152
C 28.29929 13.55876 0.01257
C 27.09735 12.74642 0.02316
C 27.13255 11.37694 0.04185
C 28.1635 21.94163 -0.0032
C 25.82527 2.17866 -0.0264
C 24.67585 2.85465 -0.00938
C 24.526 4.30619 -0.00229
C 24.58556 28.27717 0.01515
C 25.82711 27.6006 -0.00225
C 25.80304 26.22825 0.00071
C 24.60144 25.53563 -0.01107
C 24.54656 24.09455 -0.01586
C 25.79487 23.39951 -0.01971
C 25.78421 21.93162 -0.02118
C 24.50393 21.30236 0.00733
C 24.62122 19.82608 -0.00178
C 25.78412 19.10674 0.00768
C 25.84602 17.75812 -0.0276
C 24.60468 17.02557 0.03005
C 24.62123 15.58941 -0.04078
C 25.84583 14.88467 0.02117
C 25.86765 13.57298 0.02737
C 24.57566 12.81455 -0.00498
C 24.63621 11.33405 0.00135
C 25.90329 10.69009 0.03102
C 25.86467 9.20561 0.02555
C 24.62538 8.51708 0.01423
C 24.56796 7.10153 -0.00285
C 25.78056 6.39807 -0.009
C 25.81675 4.97605 -0.01199
C 25.84743 30.50924 0.02734
C 2.51056 32.64162 -0.01471
