380
Graphene
C 34.35855 0.06537 0.01295
C 13.53756 32.00029 -0.01454
C 13.52783 30.67237 0.01945
C 12.34209 29.92301 0.01416
C 13.56354 23.52677 0.03542
C 13.56225 22.01256 0.02299
C 12.27101 21.30234 0.00244
C 12.28547 19.88724 -0.01717
C 13.50759 19.22428 0.05265
C 13.53083 17.75305 -0.01952
C 12.32633 17.00874 -0.02813
C 12.3277 15.58159 0.00374
C 13.58795 14.86524 0.00052
C 13.58516 13.42415 -0.03682
C 12.35727 12.65737 0.01965
C 12.27816 11.3124 0.02058
C 13.56455 10.59161 -0.01957
C 13.57443 9.20968 -0.0108
C 12.29967 8.50849 -0.00368
C 12.32671 7.04895 -0.02696
C 12.19494 32.74111 0.01241
C 9.84303 0.13145 0.0076
C 11.11358 0.75361 0.02162
C 11.01133 2.22985 -0.0014
C 9.6407 29.9942 -0.01275
C 11.09375 22.11426 0.00985
C 9.84763 21.40213 -0.02245
C 9.80967 19.97054 -0.00428
C 11.10452 19.20632 0.03101
C 11.0856 17.76066 -0.01536
C 9.81948 17.06523 -0.02689
C 9.88678 15.62893 -0.01046
C 11.05682 14.86807 -0.00891
C 13.49676 6.33745 -0.00114
C 10.99642 13.40431 0.02819
C 9.83341 11.35584 -0.02971
C 11.0438 10.61775 0.02894
C 11.05626 9.23183 -0.01789
C 9.8482 8.54182 0.00444
C 9.79314 7.12529 -0.00925
C 11.02048 6.46761 0.01877
C 11.05105 4.97183 0.01363
C 9.74637 4.28096 -0.02162
C 9.79089 2.8493 0.00415
C 9.81716 12.79482 0.00165
C 13.47351 4.91799 0.00228
C 12.26293 4.21807 0.00798
C 12.27153 2.85411 0.00422
C 15.9903 9.16707 -0.0331
C 14.77576 8.44273 -0.00316
C 14.77708 7.04906 0.02188
C 15.98185 6.34704 -0.01979
C 16.01358 4.87597 0.02691
C 14.70872 4.27125 -0.01581
C 14.7896 2.85693 0.01452
C 16.00775 2.14895 0.04892
C 16.00025 0.7828 -0.00111
C 15.99615 10.51007 -0.0258
C 14.69349 0.06901 -0.03557
C 18.44596 31.92092 0.01739
C 18.44428 30.46979 0.00755
C 17.18372 29.79538 -0.0054
C 17.10219 28.31731 0.00667
C 18.41027 27.63007 0.00143
C 18.40839 26.22693 -0.017
C 17.16428 25.55057 0.00364
C 17.17998 24.08356 -0.00831
C 18.35002 23.43102 -0.02957
C 17.16492 32.64675 0.03754
C 11.02835 30.49944 -0.01111
C 14.75264 11.25799 0.03338
C 16.11474 13.35874 -0.00109
C 13.6002 2.16148 0.0351
C 13.49873 0.78707 -0.03113
C 12.28205 0.13115 0.02098
C 14.7782 32.72688 0.01848
C 15.99061 31.97906 -0.00619
C 16.05015 30.52082 -0.02162
C 14.77005 29.8498 0.00889
C 14.63144 28.45709 -0.00481
C 15.77889 27.56043 0.00979
C 14.81014 12.65633 -0.00491
C 15.89724 26.09526 0.01443
C 15.97304 23.38419 -0.02815
C 16.01186 21.9471 -0.04147
C 14.71264 21.29185 -0.05302
C 14.71715 19.92065 0.00213
C 15.87436 19.0682 -0.00066
C 15.93934 17.66947 -0.00289
C 14.74271 16.98113 0.00028
C 14.79972 15.57447 -0.02213
C 16.09783 14.82818 0.03698
C 14.68598 24.22889 0.03505
C 18.38221 22.03647 -0.04422
C 11.02349 32.0412 0.02841
C 7.3053 0.08829 0.00406
C 3.65142 4.99366 -0.05697
C 2.35347 4.25402 0.01087
C 2.35133 2.83457 -0.01343
C 3.60946 2.16666 0.00988
C 3.57384 0.69688 0.0276
C 2.35632 0.01641 0.01305
C 4.86287 32.72559 -0.00077
C 6.11362 32.00805 0.03368
C 6.04812 30.60467 -0.02929
C 4.8395 29.94891 -0.00966
C 4.9111 28.45376 -0.03337
C 6.18519 27.84476 0.01227
C 6.1181 26.36519 0.00873
C 4.85248 25.63665 -0.00049
C 4.94925 24.28476 0.00848
C 6.32585 23.53033 -0.01303
C 6.21029 22.06608 -0.01378
C 4.90375 21.41045 0.02635
C 4.99267 19.92773 0.0127
C 3.67919 6.39119 -0.00725
C 2.43569 7.06725 0.02322
C 2.43723 8.46484 -0.00094
C 3.72611 9.26859 -0.02566
C 3.64674 30.5547 0.00907
C 2.3757 29.8243 0.00643
C 2.44423 28.48587 -0.01509
C 3.70221 27.77499 0.03267
C 3.64722 26.33281 0.02374
C 2.39086 25.70365 0.00402
C 2.45781 24.2647 0.0073
C 3.67291 23.57509 0.0174
C 3.73486 22.13907 0.03828
C 6.22075 19.21458 0.01396
C 2.42727 21.41999 0.01226
C 3.65451 19.2694 0.01996
C 3.63771 17.83684 -0.03996
C 2.41312 17.15308 0.01465
C 2.36492 15.66877 -0.00074
C 3.61304 14.99005 -0.00518
C 3.62178 13.51787 0.0086
C 2.35876 12.77017 -0.00643
C 2.40069 11.33048 0.017
C 3.65217 10.6607 -0.03113
C 2.46654 19.91564 -0.00279
C 6.16561 17.86654 0.01849
C 4.8854 17.11852 -0.01142
C 4.90218 15.7274 -0.00562
C 7.40935 21.41968 0.02147
C 7.39968 19.98805 0.00373
C 8.62206 19.25348 -0.00191
C 8.58836 17.84045 0.00438
C 7.37527 17.17962 0.01291
C 7.41381 15.57629 0.00093
C 8.66078 14.92755 0.00057
C 8.59297 13.55055 -0.01634
C 7.4257 12.76964 -0.00334
C 8.61499 22.05438 -0.014
C 7.40906 11.41227 0.02339
C 8.57751 9.26241 -0.00719
C 7.4013 8.49598 0.01364
C 7.41527 7.13166 -0.01062
C 8.65745 6.41714 -0.00033
C 8.59107 4.99446 0.03589
C 7.34666 4.24949 -0.02759
C 7.32465 2.89922 0.0402
C 8.54843 2.22157 0.00572
C 8.56864 0.77698 0.03592
C 8.61637 10.71115 0.01641
C 9.81615 32.74538 0.00943
C 8.58425 23.46597 -0.01118
C 7.33017 25.73912 -0.02896
C 6.22066 14.97117 -0.00494
C 6.13755 13.54118 0.00054
C 4.8586 12.80573 0.03007
C 4.92386 11.35858 -0.00095
C 6.09053 10.66866 0.01572
C 6.09233 9.26355 -0.04848
C 4.87579 8.53497 -0.00892
C 4.92485 7.07875 -0.01362
C 6.14335 6.40151 -0.0008
C 7.49503 24.3502 -0.00131
C 6.11965 4.93319 0.0288
C 4.8168 2.84601 0.00895
C 6.0984 2.19536 0.00685
C 6.07857 0.72256 0.02888
C 4.819 0.03747 -0.00482
C 7.30059 32.79175 -0.01384
C 8.53861 32.08369 0.03693
C 8.54708 30.71491 0.01745
C 7.26795 29.89069 0.00488
C 7.42739 28.5011 -0.01004
C 4.80777 4.25324 0.00393
C 17.26674 21.20016 0.00654
C 17.0241 19.80767 -0.00703
C 17.0246 16.97452 -0.04076
C 29.43906 2.88222 0.02108
C 30.70682 2.12463 0.00716
C 30.71411 0.78417 0.00307
C 29.43998 0.03476 0.00346
C 31.90806 32.68363 0.01713
C 33.14251 31.95255 -0.01694
C 33.12673 30.53537 0.01428
C 31.91331 29.87049 -0.02142
C 31.97961 28.43837 0.0544
C 33.15048 27.7163 0.00026
C 33.1687 26.22362 0.00682
C 31.94205 25.53727 -0.01779
C 31.88184 24.10248 0.03794
C 33.07433 23.45078 0.01927
C 33.12505 21.97849 0.01574
C 31.9197 21.26091 -0.02383
C 32.01636 19.82175 -0.01429
C 33.22634 19.23981 -0.0136
C 33.26364 17.81803 0.00594
C 29.42705 4.3326 0.0103
C 30.63184 4.9733 0.07705
C 30.6878 6.39043 0.01908
C 29.44498 7.14163 0.01518
C 28.31984 2.22074 0.00924
C 28.26533 0.68335 0.02326
C 27.05987 34.02574 0.00261
C 29.46909 32.67574 0.03265
C 30.68589 31.97502 -0.02049
C 30.73124 30.54058 -0.01854
C 29.53391 29.91961 -0.01415
C 29.55064 28.47692 -0.03039
C 30.71112 27.72617 0.01836
C 32.03725 16.94853 -0.02474
C 30.77487 26.31546 0.03531
C 29.32765 24.20055 0.0101
C 30.52175 23.40153 0.01705
C 30.81473 22.02384 -0.0405
C 30.71057 13.39653 -0.01303
C 29.72884 12.75353 -0.01461
C 29.41709 11.37706 -0.02155
C 30.67446 10.68093 -0.00944
C 30.57319 9.33482 -0.03735
C 29.41951 8.52459 -0.00971
C 29.54069 25.57701 -0.00669
C 32.02566 15.72912 0.00369
C 33.23557 14.91041 0.00455
C 33.26632 13.50188 -0.00644
C 34.36946 21.40796 -0.02213
C 0.00329 19.95044 0.01951
C 1.21804 19.25768 -0.01678
C 1.18236 17.80376 0.01223
C 0.02828 17.01562 0.00648
C 34.41033 15.62349 0.02114
C 1.21676 14.99705 -0.02957
C 1.23045 13.48512 0.00343
C 34.42495 12.76599 -0.02656
C 1.19407 22.05798 0.02712
C 0.02662 11.36429 -0.02442
C 1.28568 9.2487 -0.00583
C 34.41778 8.46877 -0.02302
C 34.42796 7.10102 -0.02849
C 1.18973 6.36075 0.02931
C 1.23301 4.97345 0.00628
C 34.34192 4.2881 -0.0345
C 34.34781 2.94918 -0.00931
C 1.12261 2.11966 -0.00939
C 1.11943 0.73093 -0.00468
C 1.21747 10.58804 -0.00027
C 26.99399 2.84273 0.0014
C 1.18561 23.4898 0.00723
C 34.43235 25.64136 -0.05239
C 32.07636 12.78568 -0.01839
C 31.98516 11.27669 0.00137
C 33.18789 10.60467 0.00199
C 33.16506 9.16107 0.04381
C 31.86507 8.51035 0.02806
C 31.95068 7.06695 0.01504
C 33.16479 6.37696 -0.00069
C 33.13799 4.9342 0.04926
C 31.86808 4.29696 -0.03838
C 34.3624 24.21795 0.03076
C 31.92507 2.81487 0.00349
C 33.11676 0.76099 -0.00841
C 31.8988 34.07683 0.0001
C 34.36436 32.73484 -0.02927
C 1.14546 32.00836 -0.01404
C 1.17699 30.57554 0.01027
C 34.3754 29.82921 0.01831
C 34.34829 28.42691 -0.01037
C 1.23234 27.71819 -0.00439
C 1.21895 26.34235 -0.00598
C 33.14496 2.17938 -0.00323
C 27.02988 4.24665 0.01324
C 28.2063 5.04335 0.04266
C 28.18001 6.4143 0.01177
C 19.51868 24.15136 0.0296
C 20.91534 23.49286 0.03374
C 19.761 12.59802 -0.02845
C 19.58236 11.26618 -0.03213
C 20.85014 10.50993 0.02239
C 20.85652 9.13583 0.01153
C 19.6935 8.41765 0.02734
C 19.66306 7.01878 -0.0055
C 20.94516 6.29042 0.01515
C 19.60285 25.52534 0.03046
C 20.94504 4.948 -0.00225
C 19.66565 2.77965 -0.01107
C 20.9719 2.01347 -0.01586
C 20.95064 0.678 -0.01971
C 19.66167 34.04851 -0.02118
C 22.05452 32.6132 0.00733
C 23.41019 31.91109 -0.00178
C 23.34799 30.5173 0.00768
C 22.11034 29.77117 -0.0276
C 22.1901 28.34705 0.03005
C 19.67865 4.19865 0.00071
C 23.35986 27.65482 -0.04078
C 20.8623 26.2296 -0.00381
C 19.65049 28.33261 0.01126
C 17.33621 15.59331 -0.00652
C 18.49841 14.77076 0.0058
C 18.5266 13.40909 -0.00865
C 17.30214 12.72416 0.00675
C 17.24024 11.22627 -0.00311
C 18.37234 10.48695 0.00742
C 18.39416 9.12101 -0.01594
C 17.22237 8.38819 0.0106
C 17.24449 7.01348 -0.01154
C 20.88877 27.62326 0.01852
C 18.43808 6.41036 -0.01721
C 17.27136 4.26812 0.01277
C 17.18412 2.86559 0.00096
C 18.41812 2.10694 -0.01527
C 18.44563 0.65222 0.01087
C 17.23879 34.05676 0.00199
C 19.66795 32.6398 0.01511
C 20.86593 31.91969 -0.00478
C 20.82506 30.49168 -0.01662
C 19.58408 29.79654 -0.01185
C 18.54211 4.93102 -0.02422
C 3.6276 31.97442 0.02379
C 23.49043 26.29926 0.02117
C 21.91686 24.06972 -0.00498
C 25.73507 6.45012 -0.02815
C 25.80404 5.01239 -0.00942
C 24.55809 4.24681 0.00487
C 24.55395 2.77522 0.00826
C 25.80222 2.06123 -0.00294
C 25.81015 0.73066 0.00152
C 24.59005 0.054 0.01257
C 27.00046 32.67451 0.02316
C 28.26615 31.96685 0.04185
C 24.51633 7.1143 0.00622
C 28.27426 30.51135 0.00194
C 26.97332 28.41921 0.02611
C 28.26011 27.75216 0.02198
C 28.40944 26.3622 0.01094
C 27.12542 25.61376 0.00235
C 26.85203 11.16899 0.01495
C 28.21366 10.64943 0.01259
C 28.15833 9.26061 0.01799
C 26.98958 8.5935 0.01699
C 26.96223 7.19379 -0.00416
C 27.05709 29.8272 -0.00621
C 22.17553 25.57628 0.02737
C 24.46633 8.45865 -0.0032
C 25.81288 10.58791 -0.01654
C 22.10055 11.24694 0.00135
C 23.09411 10.62496 0.03102
C 23.2525 9.16269 0.02555
C 22.04514 8.44346 0.01423
C 22.06722 7.06864 -0.00285
C 23.25208 6.37094 -0.009
C 23.35772 4.8834 -0.01199
C 22.20707 4.16214 -0.00229
C 22.12326 2.74852 -0.00938
C 25.77032 9.17188 -0.00037
C 23.41372 2.14064 -0.0264
C 22.17528 34.07933 0.00684
C 24.60659 32.70017 -0.01052
C 25.75227 31.91703 -0.01679
C 25.85059 30.54442 0.00367
C 24.55891 29.82781 0.04306
C 24.66099 28.34546 0.00996
C 25.83703 27.60023 0.00195
C 25.88673 26.20761 -0.00802
C 24.59319 25.58279 -0.00218
C 23.34925 0.66851 -0.01154
C 2.41875 32.71511 0.01402
