418
Graphene
C 0.01842 0.02701 0.01295
C 13.56968 27.68089 0.02841
C 13.48438 26.32294 -0.01111
C 12.29091 25.61845 -0.01275
C 12.3177 24.13079 0.00985
C 13.55844 23.47492 -0.02245
C 13.5336 22.04188 -0.00428
C 12.24551 21.27365 0.03101
C 12.25473 19.85326 -0.01536
C 13.494 19.08253 -0.02689
C 13.54278 17.74298 -0.01046
C 12.33733 28.42046 0.00943
C 12.3559 17.0069 -0.00891
C 13.56568 14.90752 0.00165
C 13.56897 13.48603 -0.02971
C 12.2744 12.84872 0.02894
C 12.30391 11.35155 -0.01789
C 13.51653 10.58542 0.00444
C 13.47026 9.19502 -0.00925
C 12.34259 8.45816 0.01877
C 12.26911 7.0777 0.01363
C 13.50731 6.40195 -0.02162
C 13.51122 4.9384 0.00415
C 12.29067 15.65544 0.02819
C 12.23669 4.31265 -0.0014
C 12.31051 29.8603 0.00406
C 13.54225 31.96911 0.00572
C 9.8363 21.33912 -0.02896
C 9.85996 19.90911 -0.00131
C 11.06198 19.16358 -0.01118
C 11.07411 17.73583 -0.014
C 9.85426 17.06744 0.02147
C 9.85303 15.69873 0.00373
C 11.0538 14.94345 -0.00191
C 11.07347 13.55136 0.00438
C 9.84584 12.7396 0.01291
C 9.87589 11.35221 0.00093
C 13.53419 30.57454 0.03592
C 11.14556 10.63573 0.00057
C 9.83072 8.48351 -0.00334
C 9.84011 7.13963 0.02339
C 11.09185 6.37168 0.01641
C 11.03061 4.97258 -0.00719
C 9.85286 4.27015 0.01364
C 9.91969 2.88 -0.01062
C 11.06977 2.15727 -0.00033
C 11.07715 0.72219 0.03589
C 9.79967 0.06981 -0.02759
C 12.28982 32.68767 0.0402
C 11.06137 9.18803 -0.01634
C 11.04201 21.99511 -0.01004
C 12.31335 2.89169 0.02162
C 13.5275 0.68229 0.01241
C 15.96723 6.38808 0.01848
C 15.98267 4.99557 -0.00619
C 14.76406 4.26163 -0.02162
C 14.79718 2.90756 0.00889
C 15.97159 2.11091 -0.00481
C 15.99023 0.71499 0.00979
C 14.77104 0.01042 0.01443
C 17.23254 32.61545 0.03505
C 18.40017 31.95171 -0.02815
C 18.43864 30.53324 -0.04147
C 14.76808 7.0462 0.02098
C 17.2303 29.81274 -0.05302
C 18.4204 27.71362 -0.00066
C 18.41732 26.26674 -0.00289
C 17.21545 25.56824 0.00028
C 17.17405 24.17438 -0.02213
C 18.42589 23.46136 0.03698
C 18.42342 21.9877 -0.00109
C 17.23367 21.24544 -0.00491
C 17.21527 19.86366 0.03338
C 18.46658 19.18618 -0.0258
C 18.44102 17.76618 -0.0331
C 17.24202 28.41312 0.00213
C 13.5293 2.12673 0.0076
C 14.75292 8.45815 -0.03113
C 15.94267 10.63971 0.00422
C 12.29474 34.06231 -0.01454
C 14.78476 32.69871 0.01945
C 15.94965 31.97347 0.01416
C 15.95346 30.54595 0.03542
C 14.7461 29.83449 0.02299
C 14.76313 28.385 0.00244
C 15.94721 27.6871 -0.01717
C 15.99906 26.27253 0.05265
C 14.78121 25.52617 -0.01952
C 14.73232 24.12094 -0.02813
C 15.98005 9.15856 0.0351
C 15.95612 23.40433 0.00374
C 14.77651 21.28976 -0.03682
C 14.72459 19.85977 0.01965
C 16.00842 19.13475 0.02058
C 16.01672 17.76113 -0.01957
C 14.7363 17.0915 -0.0108
C 14.78933 15.59016 -0.00368
C 15.97321 14.89596 -0.02696
C 15.97572 13.49104 -0.00114
C 14.76356 12.83027 0.00228
C 14.75515 11.30458 0.00798
C 15.96287 22.01684 0.00052
C 11.0262 23.45945 0.00488
C 9.79976 24.12853 0.01745
C 9.83197 25.55775 0.03693
C 2.46746 2.89341 0.01707
C 3.72202 2.11575 0.02769
C 3.73239 0.71984 -0.03291
C 2.49821 0.00457 -0.04999
C 4.93322 32.6463 0.04505
C 6.09192 31.98642 0.03284
C 6.14487 30.53575 -0.04307
C 4.89144 29.77986 0.03189
C 4.89767 28.39356 0.00031
C 6.10787 27.73845 -0.003
C 2.49943 4.22377 0.00208
C 6.18485 26.30759 0.01402
C 4.90517 24.14861 0.00907
C 6.21239 23.4156 0.00643
C 6.13727 22.00666 -0.01509
C 4.87272 21.27804 0.03267
C 4.91374 19.96355 0.02374
C 6.18994 19.17977 0.00402
C 6.18963 17.73536 0.0073
C 4.90629 17.05913 0.0174
C 4.95717 15.60305 0.03828
C 6.13331 14.87602 0.01226
C 4.96723 25.55713 0.02379
C 6.04194 13.47127 -0.00279
C 3.67589 5.02265 -0.00561
C 2.40397 7.1262 0.02784
C 3.65691 30.52987 -0.0154
C 2.4797 29.83466 -0.01299
C 2.48336 28.31725 -0.00407
C 3.74827 27.68522 0.01138
C 3.7438 26.29644 0.03278
C 2.45649 25.57791 -0.00177
C 2.44316 24.14729 0.04421
C 3.65432 23.38836 0.00088
C 3.67631 22.00052 0.00828
C 2.47706 21.33517 -0.02375
C 3.67286 6.36423 -0.01977
C 2.47393 19.90548 0.00558
C 3.71234 17.79287 -0.01386
C 2.42143 17.03227 -0.02805
C 2.51121 15.60997 0.00081
C 3.74371 14.90056 0.00245
C 3.71061 13.5259 0.02728
C 2.40392 12.6976 -0.00039
C 2.42824 11.33473 0.0064
C 3.65654 10.64468 0.00211
C 3.65876 9.16291 -0.00449
C 2.47079 8.49342 -0.01979
C 3.67982 19.20348 -0.0059
C 4.89835 12.80342 0.01996
C 4.94346 11.30817 -0.03996
C 6.14565 10.67779 0.01465
C 8.61444 14.93763 0.02635
C 8.63465 13.51857 0.0127
C 7.36104 12.77196 0.01396
C 7.4007 11.38054 0.01849
C 8.66444 10.68575 -0.01142
C 8.59591 9.22033 -0.00562
C 7.34877 8.52857 -0.00494
C 7.42571 7.07996 0.00054
C 8.62546 6.41652 0.03007
C 8.60208 4.98306 -0.00095
C 7.41684 15.67425 -0.01378
C 7.3167 4.33962 0.01572
C 8.59729 2.16423 -0.00892
C 8.5993 0.73121 -0.01362
C 7.30561 0.02553 -0.0008
C 9.85405 32.69555 0.0288
C 11.09059 31.95937 0.00393
C 11.08651 30.52872 0.00895
C 9.81628 29.86924 0.00685
C 9.81564 28.43346 0.02888
C 11.07834 27.6982 -0.00482
C 11.00306 26.25244 -0.01384
C 7.31058 2.87386 -0.04848
C 7.39873 17.0244 -0.01303
C 8.62512 17.73611 0.00848
C 8.58495 19.21112 -0.00049
C 6.12712 9.25081 -0.00074
C 4.97496 8.57043 -0.00518
C 4.95625 7.06531 0.0086
C 6.1448 6.4057 -0.00643
C 6.09253 4.98702 0.017
C 4.93737 4.26037 -0.03113
C 4.90458 2.87994 -0.02566
C 6.06258 2.12808 -0.00094
C 6.08551 0.7008 0.02322
C 4.91024 34.00127 -0.00725
C 7.37427 32.7192 -0.05697
C 8.56144 31.96883 0.01087
C 8.61434 30.5671 -0.01343
C 7.3683 29.80363 0.00988
C 7.34812 28.421 0.0276
C 8.59392 27.73074 0.01305
C 8.63666 26.29062 -0.00077
C 7.39963 25.61899 0.03368
C 7.38477 24.12043 -0.02929
C 8.60023 23.43634 -0.00966
C 8.57568 22.01435 -0.03337
C 7.32594 21.35702 0.01227
C 7.44561 19.90637 0.00873
C 17.20444 17.01746 -0.00316
C 17.26083 15.59551 0.02188
C 18.45681 14.93292 -0.01979
C 18.44877 13.53667 0.02691
C 29.53577 15.62566 -0.02155
C 30.74453 14.8929 -0.00944
C 30.73412 13.4963 -0.03735
C 29.4936 12.802 -0.00971
C 29.56037 11.39478 0.01518
C 30.7541 10.59552 0.01908
C 30.77107 9.19713 0.07705
C 29.53116 8.52013 0.0103
C 30.74751 6.45171 0.02108
C 30.75887 2.06158 0.00716
C 29.46357 17.0607 -0.01461
C 30.77985 0.66109 0.00307
C 31.92041 32.62078 0.01713
C 33.16985 31.9686 -0.01694
C 33.17801 30.50311 0.01428
C 31.95104 29.84071 -0.02142
C 31.96871 28.39627 0.0544
C 33.22648 27.6559 0.00026
C 33.20907 26.25781 0.00682
C 31.97776 25.5908 -0.01779
C 32.01427 24.14459 0.03794
C 33.21872 23.35292 0.01927
C 29.52524 34.04644 0.00346
C 33.24569 21.97993 0.01574
C 30.71404 17.74636 -0.01303
C 29.53217 19.85893 0.01705
C 27.05893 21.30627 0.00235
C 27.03436 19.89103 0.01495
C 28.30519 19.23467 0.01259
C 28.26954 17.75265 0.01799
C 27.08289 17.07582 0.01699
C 27.01774 15.63519 -0.00416
C 28.26917 14.91114 0.01177
C 28.29276 13.46895 0.04266
C 27.0923 12.81551 0.01324
C 27.08405 11.3474 0.0014
C 30.74919 19.14022 -0.0405
C 28.29039 10.66349 0.00924
C 27.03691 8.53088 0.00261
C 27.08113 0.0311 0.03265
C 29.4819 32.55918 -0.02049
C 30.71312 31.93634 -0.01854
C 30.72975 30.54299 -0.01415
C 29.61199 29.84179 -0.03039
C 30.70455 27.63854 0.01836
C 30.68724 23.41745 0.03531
C 30.74259 21.97046 -0.00669
C 29.48999 21.283 0.0101
C 28.28546 9.13869 0.02326
C 31.99956 21.35697 -0.02383
C 31.98979 19.92751 -0.01429
C 33.20822 19.17437 -0.0136
C 1.22464 23.43555 0.00723
C 1.17136 22.00152 0.02712
C 34.3806 21.30632 -0.02213
C 0.00413 19.90182 0.01951
C 1.27664 19.14227 -0.01678
C 1.22717 17.73267 0.01223
C 34.39772 17.05365 0.00648
C 34.43148 15.63626 0.02114
C 1.22228 14.96246 -0.02957
C 1.20695 13.5126 0.00343
C 34.39641 24.14308 0.03076
C 0.00672 12.79183 -0.02656
C 1.22875 10.67015 -0.00027
C 1.24524 9.22672 -0.00583
C 34.40708 8.50016 -0.02302
C 34.40556 7.09146 -0.02849
C 1.19698 6.38542 0.02931
C 1.20763 5.01302 0.00628
C 0.00468 4.18864 -0.0345
C 0.00348 2.79913 -0.00931
C 1.20907 2.13069 -0.00939
C 1.25544 0.7299 -0.00468
C 0.01589 11.36934 -0.02442
C 34.37278 25.52811 -0.05239
C 1.20861 26.26193 -0.00598
C 1.25494 27.67079 -0.00439
C 33.17567 17.71733 0.00594
C 31.94568 17.06087 -0.02474
C 32.01871 15.56367 0.00369
C 33.2305 14.8827 0.00455
C 33.24853 13.48733 -0.00644
C 31.94297 12.77234 -0.01839
C 31.981 11.29676 0.00137
C 33.17587 10.62603 0.00199
C 33.15335 9.22343 0.04381
C 31.98842 8.51696 0.02806
C 31.98654 7.08469 0.01504
C 33.19227 6.42682 -0.00069
C 33.12662 4.9644 0.04926
C 31.92672 4.25513 -0.03838
C 31.96025 2.81269 0.00349
C 33.17017 2.12664 -0.00323
C 33.23578 0.68074 -0.00841
C 32.00847 34.06207 0.0001
C 34.34612 32.67157 -0.02927
C 1.17512 31.90899 -0.01404
C 1.24018 30.51389 0.01027
C 34.42816 29.80035 0.01831
C 0.0364 28.37426 -0.01037
C 28.33059 21.97851 0.01094
C 3.72475 31.91688 0.00662
C 28.26828 23.42493 0.02198
C 28.31051 30.46602 -0.00621
C 20.8838 19.13419 0.0106
C 20.87624 17.78152 -0.01154
C 19.70246 16.99566 -0.01721
C 19.73122 15.58739 -0.02422
C 20.88531 14.86261 0.01277
C 20.87263 13.46062 0.00096
C 19.67052 12.78606 -0.01527
C 19.68928 11.31857 0.01087
C 20.95277 10.64818 0.00199
C 20.87472 9.21041 0.01511
C 19.6996 19.86757 -0.01594
C 19.70655 8.50922 -0.00478
C 20.93794 6.39169 -0.01185
C 20.96423 4.97601 0.01126
C 19.66826 4.26846 0.01852
C 19.70829 2.75936 -0.00381
C 20.89611 2.12016 0.03046
C 20.94038 0.72351 0.0296
C 19.65143 0.0391 0.03374
C 22.11679 32.65562 -0.02845
C 23.36351 31.97054 -0.03213
C 23.3399 30.58525 0.02239
C 19.67534 7.08626 -0.01662
C 22.18073 29.83477 0.01153
C 19.66221 21.34421 0.00742
C 20.91051 23.39735 0.00675
C 17.24861 12.83353 -0.01581
C 17.2517 11.36723 0.01452
C 18.49407 10.61134 0.04892
C 18.40722 9.19935 -0.00111
C 17.23448 8.52356 -0.03557
C 17.22077 7.07376 0.03754
C 18.56859 6.41193 0.01739
C 18.41488 4.98916 0.00755
C 17.2267 4.24516 -0.0054
C 17.21975 2.82621 0.00667
C 20.82867 22.02398 -0.00311
C 18.39623 2.12929 0.00143
C 17.18559 0.01979 0.00364
C 19.66018 32.66497 -0.00831
C 20.9331 31.93091 -0.02957
C 20.83609 30.50534 -0.04422
C 19.66811 29.84004 0.00654
C 19.62959 28.39539 -0.00703
C 20.87678 27.65865 -0.04076
C 20.8987 26.29801 -0.00652
C 19.67746 25.56261 0.0058
C 19.6705 24.11966 -0.00865
C 18.4333 0.71833 -0.017
C 22.12718 28.31337 0.02734
C 23.38787 27.68381 -0.0055
C 23.35961 26.25452 0.01515
C 24.58761 29.78574 -0.01052
C 24.69951 28.45341 -0.01679
C 24.57745 25.586 0.00367
C 24.59367 24.11853 0.04306
C 25.80511 23.39405 0.00996
C 25.82615 22.05221 0.00195
C 24.56109 21.33087 -0.00802
C 24.59878 19.88525 -0.00218
C 25.859 19.20082 -0.01654
C 25.8537 17.7549 -0.00037
C 25.80828 30.54567 0.00684
C 24.59254 16.99761 -0.0032
C 25.81555 14.92437 -0.02815
C 25.8294 13.48468 -0.00942
C 24.55026 12.75687 0.00487
C 24.56802 11.34279 0.00826
C 25.81517 10.64559 -0.00294
C 25.80413 9.19681 0.00152
C 24.59381 8.5321 0.01257
C 24.59473 34.02677 0.02316
C 27.05992 32.71141 0.04185
C 28.3236 31.96603 0.00194
C 24.5507 15.61116 0.00622
C 25.85847 31.93442 -0.01154
C 24.59054 32.69398 -0.0264
C 22.15698 0.0551 -0.00938
C 22.13773 25.54139 -0.00225
C 22.1108 24.12611 0.00071
C 23.42765 23.42293 -0.01107
C 23.33918 22.04874 -0.01586
C 22.13805 21.32325 -0.01971
C 22.12812 19.90883 -0.02118
C 23.34876 19.15878 0.00733
C 23.36891 17.66868 -0.00178
C 22.06672 17.01109 0.00768
C 22.1737 15.62862 -0.0276
C 23.34542 14.89984 0.03005
C 23.29477 13.4976 -0.04078
C 22.10668 12.7776 0.02117
C 22.11638 11.3793 0.02737
C 23.39894 10.66225 -0.00498
C 23.32582 9.17841 0.00135
C 22.10625 8.50753 0.03102
C 22.12883 7.10276 0.02555
C 23.37716 6.45893 0.01423
C 22.1159 4.16848 -0.00285
C 22.184 2.83676 -0.009
C 23.37301 2.15891 -0.01199
C 23.35244 0.74611 -0.00229
C 27.05253 29.89135 0.02611
C 2.48104 32.60763 0.00748
