409
Graphene
C 34.40339 34.06447 0.01295
C 12.29563 29.88773 -0.01536
C 12.24427 28.39261 -0.02689
C 13.4246 27.70355 -0.01046
C 13.53506 26.35916 -0.00891
C 12.30667 25.6372 0.02819
C 12.31208 24.20906 0.00165
C 13.48338 23.36053 -0.02971
C 13.42852 21.91068 0.02894
C 12.26438 21.23032 -0.01789
C 12.33841 19.76246 0.00444
C 13.60681 19.09049 -0.00925
C 13.61337 17.74125 0.01877
C 12.3624 17.07326 0.01363
C 12.25622 15.68548 -0.02162
C 13.54867 14.83857 0.00415
C 13.52148 13.46929 -0.0014
C 12.32569 12.70197 0.02162
C 12.38117 11.25299 0.0076
C 13.54215 10.64106 0.01241
C 13.48931 9.2072 -0.01454
C 12.2363 8.42515 0.01945
C 13.52021 30.59917 0.03101
C 13.3983 31.96038 -0.00428
C 12.21074 32.76263 -0.02245
C 9.75018 0.09056 0.00985
C 11.13266 23.43536 0.00438
C 11.10292 21.97904 0.01291
C 9.80689 21.33095 0.00093
C 9.7697 19.88915 0.00057
C 11.05161 19.15795 -0.01634
C 11.14202 17.74843 -0.00334
C 9.9016 17.07853 0.02339
C 9.83662 15.71569 0.01641
C 11.05176 14.90794 -0.00719
C 11.11327 13.49909 0.01364
C 12.27374 7.02896 0.01416
C 9.84117 12.7883 -0.01062
C 11.00663 10.60162 0.03589
C 11.03016 9.23767 -0.02759
C 9.81092 8.4905 0.0402
C 9.80139 7.15819 0.00572
C 11.11135 6.36387 0.03592
C 11.14174 4.98096 0.00406
C 9.83434 4.34448 0.00943
C 9.85246 2.94586 0.02841
C 11.0472 2.24507 -0.01111
C 11.05331 0.77531 -0.01275
C 9.88364 11.38871 -0.00033
C 9.90419 24.08751 -0.00191
C 13.55299 6.37524 0.03542
C 12.3711 4.2371 0.00244
C 15.93708 9.22518 0.01443
C 14.72057 8.51882 0.03505
C 14.76863 7.09579 -0.02815
C 16.01819 6.46839 -0.04147
C 16.03944 4.93463 -0.05302
C 14.87501 4.26306 0.00213
C 14.80183 2.7886 -0.00066
C 16.03666 2.07722 -0.00289
C 15.95786 0.6886 0.00028
C 14.74351 34.07336 -0.02213
C 17.22985 32.63492 0.03698
C 18.42629 31.94113 -0.00109
C 18.33307 30.53407 -0.00491
C 17.10536 29.84239 0.03338
C 17.10202 28.47432 -0.0258
C 18.3274 27.75817 -0.0331
C 18.39478 26.36623 -0.00316
C 17.27493 25.48167 0.02188
C 17.11166 24.09295 -0.01979
C 18.4312 21.95643 0.02691
C 17.23383 21.33142 -0.01581
C 16.00032 10.64267 0.00979
C 14.80857 11.3506 -0.00481
C 14.75223 12.80513 0.00889
C 15.99601 13.55128 -0.02162
C 12.32165 2.90621 -0.01717
C 13.5468 2.13699 0.05265
C 13.53544 0.74823 -0.01952
C 12.2144 0.12042 -0.02813
C 14.63 32.69612 0.00374
C 15.91153 31.98736 0.00052
C 15.90898 30.55864 -0.03682
C 14.70396 29.83786 0.01965
C 14.69669 28.43388 0.02058
C 15.88624 27.69157 -0.01957
C 13.57099 4.94954 0.02299
C 15.99093 26.27438 -0.0108
C 14.70214 24.11529 -0.02696
C 15.99123 23.37188 -0.00114
C 15.92472 21.94016 0.00228
C 14.73689 21.2853 0.00798
C 14.82045 19.86504 0.00422
C 16.01921 19.21406 0.0351
C 16.05397 17.7919 -0.03113
C 14.82134 17.07692 0.02098
C 14.76375 15.62227 0.01848
C 15.9639 14.9551 -0.00619
C 14.74466 25.48219 -0.00368
C 9.85739 25.51266 0.00373
C 11.08223 26.29209 0.02147
C 11.00061 27.74166 -0.014
C 2.39106 2.85312 -0.003
C 3.60763 2.18105 0.01402
C 3.61276 0.7128 0.02379
C 2.42812 34.02496 0.00907
C 4.85556 32.70129 0.00643
C 6.11215 32.01332 -0.01509
C 6.05224 30.61564 0.03267
C 4.84642 29.86102 0.02374
C 4.84747 28.48653 0.00402
C 6.12683 27.73862 0.0073
C 6.13383 26.29299 0.0174
C 4.92671 25.56658 0.03828
C 4.98834 24.19996 0.01226
C 6.26326 23.43774 -0.00279
C 6.17214 22.06404 0.01996
C 4.86472 21.32236 -0.03996
C 4.81627 19.91037 0.01465
C 6.05663 19.22384 -0.00074
C 6.14111 17.72337 -0.00518
C 4.93971 17.04657 0.0086
C 4.94322 15.63426 -0.00643
C 2.43515 4.28093 0.00031
C 3.68028 4.96135 0.03189
C 3.71623 6.38542 -0.04307
C 2.39719 7.05845 0.03284
C 3.59187 30.57261 -0.02375
C 2.24597 29.85245 0.00558
C 2.38533 28.47336 -0.0059
C 3.62998 27.81914 -0.01386
C 3.6491 26.32785 -0.02805
C 2.48225 25.58726 0.00081
C 2.4667 24.09018 0.00245
C 3.74618 23.40098 0.02728
C 3.74299 21.99644 -0.00039
C 2.45419 21.35405 0.0064
C 6.15088 14.80137 0.017
C 2.4264 19.94265 0.00211
C 3.68186 17.76773 -0.01979
C 2.48043 17.09718 0.02784
C 2.42137 15.62443 -0.01977
C 3.67799 14.97433 -0.00561
C 3.70737 13.57425 0.00208
C 2.47625 12.80144 0.01707
C 2.46771 11.37236 0.02769
C 3.66763 10.59214 -0.03291
C 3.60956 9.24135 -0.04999
C 2.36999 8.46947 0.04505
C 3.65368 19.18538 -0.00449
C 6.13516 13.41076 -0.03113
C 4.82665 12.74704 -0.02566
C 4.93276 11.31408 -0.00094
C 7.35132 17.03605 0.00054
C 7.28887 15.63048 0.03007
C 8.61134 14.97132 -0.00095
C 8.65034 13.52826 0.01572
C 7.37625 12.76443 -0.04848
C 7.38172 11.37831 -0.00892
C 8.64157 10.71848 -0.01362
C 8.60908 9.2682 -0.0008
C 7.38947 8.6168 0.0288
C 7.38264 7.17838 0.00393
C 8.57292 17.83109 -0.00494
C 8.55991 6.4527 0.00895
C 7.40481 4.37536 0.02888
C 7.3214 2.95901 -0.00482
C 8.62386 2.25327 -0.01384
C 8.57636 0.85648 0.03693
C 7.34104 0.08795 0.01745
C 9.77753 32.73189 0.00488
C 10.95874 31.98592 -0.01004
C 11.10773 30.55947 -0.02896
C 9.83708 29.87889 -0.00131
C 9.77758 28.43694 -0.01118
C 8.65862 5.05442 0.00685
C 17.23417 19.93687 0.01452
C 8.51648 19.23824 -0.00562
C 7.33408 21.28741 0.01849
C 6.149 10.66596 0.02322
C 6.09428 9.25693 -0.00725
C 4.88833 8.46667 -0.05697
C 4.90251 7.0879 0.01087
C 6.08696 6.4329 -0.01343
C 6.15006 5.06886 0.00988
C 4.96506 4.23147 0.0276
C 4.90985 2.86111 0.01305
C 6.11816 2.19608 -0.00077
C 6.12314 0.75802 0.03368
C 7.26154 19.92979 -0.01142
C 4.87281 0.09701 -0.02929
C 8.54811 32.01282 -0.03337
C 8.57673 30.48987 0.01227
C 7.32854 29.84371 0.00873
C 7.35369 28.38023 -0.00049
C 8.59483 27.72561 0.00848
C 8.61321 26.23636 -0.01303
C 7.3515 25.57338 -0.01378
C 7.45039 24.20778 0.02635
C 8.62255 23.3938 0.0127
C 8.57954 22.04502 0.01396
C 7.357 32.71964 -0.00966
C 3.6569 31.93285 0.00828
C 18.48482 19.17188 0.04892
C 17.19159 17.11999 -0.03557
C 29.51886 12.7216 -0.00971
C 29.48584 11.34703 0.01518
C 30.74336 10.61147 0.01908
C 30.71961 9.21938 0.07705
C 29.50204 8.55105 0.0103
C 29.52828 7.11833 0.02108
C 30.74359 6.40891 0.00716
C 30.82839 4.9568 0.00307
C 29.58743 4.19651 0.00346
C 29.61985 2.81061 0.01713
C 30.81028 2.06892 -0.01694
C 30.75446 0.63863 0.01428
C 29.50228 34.07204 -0.02142
C 31.96864 32.64522 0.0544
C 33.23955 31.87374 0.00026
C 33.1024 30.49779 0.00682
C 31.91416 29.81589 -0.01779
C 31.97174 28.38018 0.03794
C 33.1274 27.68329 0.01927
C 33.14176 26.27281 0.01574
C 31.7907 25.57745 -0.02383
C 30.70965 13.39775 -0.03735
C 30.73521 14.79197 -0.00944
C 30.65681 26.3431 -0.02155
C 30.71823 27.72009 -0.01461
C 28.24712 27.60454 0.01799
C 28.36333 26.17506 0.01699
C 28.43215 14.82181 -0.00416
C 28.33282 13.47419 0.01177
C 26.98583 12.73247 0.04266
C 27.02042 11.29491 0.01324
C 28.30361 10.6929 0.0014
C 28.27863 9.27167 0.00924
C 27.05202 8.58449 0.02326
C 27.05301 7.12893 0.00261
C 31.87889 24.22148 -0.01429
C 28.30731 6.4126 0.03265
C 27.15419 4.30158 -0.01854
C 27.10414 2.80722 -0.01415
C 28.29599 2.07269 -0.03039
C 28.26028 0.72759 0.01836
C 27.02877 34.04677 0.03531
C 29.48018 32.66782 -0.00669
C 30.69354 31.87456 0.0101
C 30.65631 30.51788 0.01705
C 29.35114 29.74365 -0.0405
C 29.47118 28.33924 -0.01303
C 28.34228 5.01373 -0.02049
C 27.01015 28.3145 0.01259
C 32.97781 23.41654 -0.0136
C 33.18219 17.66352 -0.02474
C 1.19768 22.0212 0.02712
C 34.29588 21.27306 -0.02213
C 34.42759 19.78648 0.01951
C 1.18211 19.15836 -0.01678
C 1.24889 17.77289 0.01223
C 34.38641 17.0851 0.00648
C 34.35799 15.61903 0.02114
C 1.19635 14.8985 -0.02957
C 1.26762 13.46884 0.00343
C 0.01901 12.80703 -0.02656
C 0.01257 11.32854 -0.02442
C 1.31678 10.64586 -0.00027
C 1.20961 9.28447 -0.00583
C 34.4316 8.56159 -0.02302
C 34.41874 7.16951 -0.02849
C 1.19802 6.45918 0.02931
C 1.19529 5.01436 0.00628
C 0.00139 4.26421 -0.0345
C 34.40718 2.81675 -0.00931
C 1.18659 2.08959 -0.00939
C 1.23219 0.65244 -0.00468
C 1.18901 23.43108 0.00723
C 34.39064 24.10955 0.03076
C 34.3713 25.63309 -0.05239
C 1.23514 26.23167 -0.00598
C 31.90618 15.55758 0.00369
C 33.09605 14.88825 0.00455
C 33.16584 13.452 -0.00644
C 32.01641 12.748 -0.01839
C 31.98326 11.31474 0.00137
C 33.18376 10.62015 0.00199
C 33.15913 9.24991 0.04381
C 31.93663 8.47901 0.02806
C 31.95248 7.08459 0.01504
C 33.2104 6.36537 -0.00069
C 33.31087 22.14317 0.00594
C 33.24562 4.94044 0.04926
C 32.01147 2.78654 0.00349
C 33.24804 2.09151 -0.00323
C 33.22042 0.68967 -0.00841
C 31.9638 34.02201 0.0001
C 34.36648 32.6971 -0.02927
C 1.13024 31.90003 -0.01404
C 1.05251 30.54177 0.01027
C 34.3749 29.7038 0.01831
C 34.35622 28.32508 -0.01037
C 1.2303 27.65179 -0.00439
C 31.98002 4.19876 -0.03838
C 26.95222 29.71764 0.01495
C 28.20418 30.47721 0.00235
C 28.25777 31.96004 0.01094
C 20.9737 19.17913 0.00096
C 20.95193 17.71535 -0.01527
C 19.67707 16.98951 0.01087
C 19.68484 15.57152 0.00199
C 20.97029 14.91215 0.01511
C 20.87845 13.4667 -0.00478
C 19.66456 12.77152 -0.01662
C 19.72069 11.33917 -0.01185
C 20.94893 10.60564 0.01126
C 20.97941 9.21319 0.01852
C 19.70226 8.50799 -0.00381
C 19.70723 7.06929 0.03046
C 20.88983 6.33213 0.0296
C 20.90814 4.9367 0.03374
C 19.66995 4.29484 -0.02845
C 19.66165 2.85743 -0.03213
C 20.88476 2.10868 0.02239
C 20.94901 0.70229 0.01153
C 19.79566 34.04356 0.02734
C 22.19829 32.65689 -0.0055
C 23.48524 31.94144 0.01515
C 19.6917 19.87291 0.01277
C 19.72461 21.45522 -0.02422
C 21.02862 22.03967 -0.01721
C 20.8916 26.31238 -0.01154
C 17.17298 15.63477 0.03754
C 18.41943 14.92411 0.01739
C 18.44207 13.46395 0.00755
C 17.22241 12.79789 -0.0054
C 17.21212 11.40463 0.00667
C 18.4027 10.67089 0.00143
C 18.50319 9.21427 -0.017
C 17.23892 8.58152 0.00364
C 17.25158 7.08229 -0.00831
C 18.42325 6.33379 -0.02957
C 23.28019 30.5474 -0.00225
C 18.48032 4.94807 -0.04422
C 17.24641 2.79655 -0.00703
C 18.5207 2.17511 -0.04076
C 18.49954 0.66894 -0.00652
C 17.34257 34.04793 0.0058
C 19.71954 32.62578 -0.00865
C 20.91214 31.93072 0.00675
C 20.80867 30.48653 -0.00311
C 19.57525 29.77218 0.00742
C 19.56912 28.41662 -0.01594
C 20.78436 27.70204 0.0106
C 17.21522 4.23289 0.00654
C 22.034 29.83273 0.00071
C 22.00424 28.39617 -0.01107
C 23.30063 27.6997 -0.01586
C 24.55938 29.81252 0.04306
C 24.53486 28.36466 0.00996
C 25.738 27.62999 0.00195
C 25.70644 26.25527 -0.00802
C 24.5992 25.6193 -0.00218
C 24.65423 15.26215 -0.01654
C 25.89972 14.85402 -0.00037
C 25.8609 13.48884 -0.0032
C 24.63186 12.82962 0.00622
C 24.62843 11.36826 -0.02815
C 25.79132 30.45987 0.00367
C 25.83783 10.62326 -0.00942
C 24.53788 8.52361 0.00826
C 24.52012 7.0454 -0.00294
C 25.84035 6.45173 0.00152
C 25.8994 5.03841 0.01257
C 24.65835 4.25986 0.02316
C 24.61709 2.86296 0.04185
C 25.8837 2.13406 0.00194
C 25.8138 0.75571 -0.00621
C 24.54837 0.01216 0.02611
C 27.0339 32.65828 0.02198
C 25.78074 9.17815 0.00487
C 18.50672 17.75315 -0.00111
C 25.86519 31.94388 -0.01679
C 22.14172 0.01688 0.00684
C 23.32904 26.26934 -0.01971
C 22.02817 25.5463 -0.02118
C 22.25543 24.11815 0.00733
C 23.39328 23.55287 -0.00178
C 21.91968 21.1398 0.00768
C 22.07814 19.94207 -0.0276
C 22.15588 17.07463 0.03005
C 22.24872 15.68487 -0.04078
C 23.38499 14.92162 0.02117
C 23.33713 13.49295 0.02737
C 24.65282 32.73321 -0.01052
C 22.09232 12.72423 -0.00498
C 23.42326 10.74184 0.03102
C 23.3874 9.27396 0.02555
C 22.21811 8.42876 0.01423
C 22.10856 7.03214 -0.00285
C 23.37235 6.32171 -0.009
C 23.39051 4.91846 -0.01199
C 22.17707 4.25743 -0.00229
C 22.09997 2.80653 -0.00938
C 23.3458 2.17825 -0.0264
C 23.32213 0.73595 -0.01154
C 22.12521 11.38113 0.00135
C 2.44514 32.63316 0.00088
