428
Graphene
C 34.39273 33.918 0.01295
C 12.25178 2.90107 0.03589
C 13.48277 2.09621 -0.02759
C 13.51417 0.71295 0.0402
C 12.33443 0.04318 0.00572
C 14.75392 32.68435 0.03592
C 15.98091 31.98276 0.00406
C 16.06259 30.58868 0.00943
C 14.79493 29.8481 0.02841
C 14.75436 28.4873 -0.01111
C 15.94877 27.72943 -0.01275
C 12.22206 4.30043 -0.00033
C 16.03027 26.36457 0.00985
C 14.77438 24.09516 -0.00428
C 16.01028 23.40419 0.03101
C 16.03668 21.97021 -0.01536
C 14.73406 21.36888 -0.02689
C 14.60774 19.9234 -0.01046
C 15.88818 19.22683 -0.00891
C 15.86874 17.79582 0.02819
C 14.68731 17.07081 0.00165
C 14.71541 15.56515 -0.02971
C 15.978 14.88316 0.02894
C 14.83397 25.64601 -0.02245
C 13.43642 5.04454 -0.01062
C 13.38795 6.48494 0.01364
C 12.19868 7.22725 -0.00719
C 13.51791 31.98617 0.00685
C 13.48559 30.6046 0.02888
C 12.24491 29.79514 -0.00482
C 12.3104 28.38342 -0.01384
C 13.52526 27.76965 0.03693
C 13.52258 26.35489 0.01745
C 12.26948 25.65553 0.00488
C 12.3012 24.21311 -0.01004
C 13.49791 23.44538 -0.02896
C 13.48224 22.01985 -0.00131
C 12.25872 21.33992 -0.01118
C 12.18986 19.85545 -0.014
C 13.39467 19.22804 0.02147
C 13.44596 17.80007 0.00373
C 12.23556 17.12056 -0.00191
C 12.21875 15.71648 0.00438
C 13.52178 14.85924 0.01291
C 13.43168 13.50304 0.00093
C 12.25564 12.82683 0.00057
C 12.20348 11.4063 -0.01634
C 13.49757 10.6787 -0.00334
C 13.45272 9.30105 0.02339
C 12.22014 8.65481 0.01641
C 15.88618 13.4552 -0.01789
C 14.66197 12.76831 0.00444
C 14.68755 11.44826 -0.00925
C 15.89226 10.59851 0.01877
C 18.46276 14.88397 0.00228
C 18.40421 13.50676 0.00798
C 17.12735 12.69765 0.00422
C 17.20108 11.35974 0.0351
C 18.45535 10.56677 -0.03113
C 18.40365 9.1646 0.02098
C 17.14285 8.53892 0.01848
C 17.14879 7.11415 -0.00619
C 18.39655 6.40279 -0.02162
C 18.36993 4.97874 0.00889
C 17.20908 4.27011 -0.00481
C 17.19463 2.84334 0.00979
C 18.42401 2.09121 0.01443
C 18.42524 0.70652 0.03505
C 17.16082 0.01721 -0.02815
C 19.62268 32.5697 -0.04147
C 20.91479 31.88535 -0.05302
C 20.87259 30.52094 0.00213
C 19.63025 29.89353 -0.00066
C 19.63716 28.47208 -0.00289
C 20.83024 27.74065 0.00028
C 20.85831 26.27938 -0.02213
C 19.68385 25.57305 0.03698
C 17.20525 15.64623 -0.00114
C 12.27361 32.67651 0.00895
C 17.20631 17.09708 -0.02696
C 18.44927 19.0569 -0.0108
C 15.8893 9.17982 0.01363
C 14.63907 8.53832 -0.02162
C 14.71743 7.07736 0.00415
C 15.89138 6.4347 -0.0014
C 15.97679 5.0163 0.02162
C 14.68679 4.30863 0.0076
C 14.68441 2.82274 0.01241
C 15.95103 2.14746 -0.01454
C 15.91528 0.73407 0.01945
C 14.76432 34.07536 0.01416
C 17.15839 32.7128 0.03542
C 18.30774 31.91504 0.02299
C 18.39197 30.53244 0.00244
C 17.2213 29.80741 -0.01717
C 17.21895 28.4071 0.05265
C 18.48136 27.7237 -0.01952
C 18.47673 26.26463 -0.02813
C 17.23068 25.6269 0.00374
C 17.22135 24.15202 0.00052
C 18.39347 23.47906 -0.03682
C 18.50344 22.02967 0.01965
C 17.28279 21.35033 0.02058
C 17.26899 19.88621 -0.01957
C 18.44221 17.70114 -0.00368
C 19.69375 24.17497 -0.00109
C 9.8384 0.05547 0.00393
C 11.03812 2.16877 -0.0008
C 6.12499 30.5468 -0.00039
C 4.91434 29.87192 0.0064
C 4.9514 28.46362 0.00211
C 6.15887 27.75449 -0.00449
C 6.14063 26.32039 -0.01979
C 4.91217 25.55774 0.02784
C 4.88763 24.11348 -0.01977
C 6.13786 23.3374 -0.00561
C 6.18185 21.83339 0.00208
C 4.74846 21.2048 0.01707
C 6.14884 31.95716 0.02728
C 4.77433 12.67812 0.02769
C 6.05646 10.59431 -0.04999
C 6.0196 9.04629 0.04505
C 4.77615 8.50155 0.03284
C 4.74594 7.11352 -0.04307
C 6.05621 6.49286 0.03189
C 6.02616 5.06172 0.00031
C 4.87605 4.21018 -0.003
C 4.91635 2.81778 0.01402
C 6.23334 2.18518 0.02379
C 6.14142 0.71887 0.00907
C 4.87588 11.38064 -0.03291
C 4.92307 32.73891 0.00245
C 2.46878 34.01173 0.00081
C 3.67978 0.74189 -0.02805
C 3.63963 30.45212 0.00787
C 2.45629 29.7495 0.02426
C 2.43804 28.29598 0.01218
C 3.71697 27.69075 -0.01471
C 3.73973 26.28068 -0.02827
C 2.44878 25.62244 0.01078
C 2.45415 24.20849 -0.00112
C 3.61836 23.51927 0.03345
C 3.63508 22.04755 0.00748
C 2.39713 21.33283 0.00662
C 2.49784 20.00676 -0.0154
C 3.59992 13.35634 -0.01299
C 2.35984 12.84398 -0.00407
C 2.40372 11.40462 0.01138
C 3.58654 10.73268 0.03278
C 3.61473 9.27766 -0.00177
C 2.36919 8.50407 0.04421
C 2.41525 7.07254 0.00088
C 3.604 6.30526 0.00828
C 3.58468 4.86719 -0.02375
C 2.36429 4.23219 0.00558
C 2.4327 2.80825 -0.0059
C 3.72201 2.07759 -0.01386
C 4.91868 0.07295 0.00643
C 7.45023 32.62957 -0.01509
C 8.65877 32.01631 0.03267
C 8.53954 30.58461 0.02374
C 9.78726 28.46425 -0.02929
C 11.04274 27.71415 -0.00966
C 11.04824 26.31987 -0.03337
C 9.82926 25.72573 0.01227
C 9.86074 24.25945 0.00873
C 11.06704 23.55812 -0.00049
C 11.17203 22.13571 0.00848
C 9.91547 21.42379 -0.01303
C 9.75581 20.08714 -0.01378
C 10.83865 19.18622 0.02635
C 11.01511 17.72041 0.0127
C 10.98124 15.09945 0.01396
C 11.00957 13.63549 0.01849
C 9.72626 12.85148 -0.01142
C 9.72536 11.48805 -0.00562
C 10.96817 10.7866 -0.00494
C 10.93306 9.3595 0.00054
C 9.70541 8.70474 0.03007
C 9.67218 7.28937 -0.00095
C 11.03472 6.53011 0.01572
C 11.00923 5.06602 -0.04848
C 9.73895 4.26983 -0.00892
C 9.79258 2.9017 -0.01362
C 9.80368 29.86834 0.03368
C 11.08089 0.78219 0.0288
C 11.05305 30.58079 -0.00077
C 9.90267 32.70666 0.0276
C 7.29959 29.9326 0.00402
C 7.33007 28.50401 0.0073
C 8.5284 27.74245 0.0174
C 8.5296 26.31468 0.03828
C 7.31534 25.62759 0.01226
C 7.35171 24.13052 -0.00279
C 8.60182 23.61065 0.01996
C 8.61144 22.14509 -0.03996
C 7.53688 21.28808 0.01465
C 8.50551 13.43988 -0.00074
C 7.31131 12.83522 -0.00518
C 7.2469 11.37334 0.0086
C 8.52849 10.77192 -0.00643
C 8.49864 9.31694 0.017
C 7.34421 8.51792 -0.03113
C 7.29642 7.12318 -0.02566
C 8.58265 6.40816 -0.00094
C 8.5749 5.03247 0.02322
C 7.35197 4.34469 -0.00725
C 7.37617 2.89193 -0.05697
C 8.60583 2.17655 0.01087
C 8.59993 0.76652 -0.01343
C 7.40435 0.03119 0.00988
C 11.04968 31.99619 0.01305
C 20.9369 23.47338 -0.00491
C 20.928 21.97627 0.03338
C 19.64562 21.30507 -0.0258
C 29.4976 12.7633 -0.01461
C 29.50835 11.34958 -0.02155
C 30.7228 10.66251 -0.00944
C 30.71269 9.15455 -0.03735
C 29.44277 8.49638 -0.00971
C 29.47852 6.99695 0.01518
C 30.67563 6.32449 0.01908
C 30.67714 4.95892 0.07705
C 29.48959 4.20496 0.0103
C 29.48307 2.78834 0.02108
C 30.79055 13.45762 -0.01303
C 30.73316 1.97944 0.00716
C 29.48231 34.03287 0.00346
C 31.99927 32.54751 0.01713
C 33.22968 31.81515 -0.01694
C 33.16751 30.45528 0.01428
C 31.95942 29.79718 -0.02142
C 31.93369 28.35119 0.0544
C 33.15235 27.65236 0.00026
C 33.24149 26.23753 0.00682
C 31.94564 25.55051 -0.01779
C 31.91913 24.03432 0.03794
C 30.70654 0.50131 0.00307
C 30.68046 14.90564 -0.0405
C 29.47114 15.65418 0.01705
C 29.52461 17.04287 0.0101
C 27.04476 7.0853 0.02198
C 28.16285 6.30479 0.01094
C 28.23241 4.85847 0.00235
C 26.98329 4.16694 0.01495
C 26.99914 2.75894 0.01259
C 28.23635 2.11452 0.01799
C 28.2811 0.66118 0.01699
C 27.09899 33.99482 -0.00416
C 29.49839 32.56916 0.01177
C 30.69292 31.91853 0.04266
C 30.72161 30.45897 0.01324
C 29.58627 29.78471 0.0014
C 29.50398 28.40533 0.00924
C 30.73769 27.72067 0.02326
C 30.71489 26.24467 0.00261
C 29.48656 25.57481 0.03265
C 29.51039 24.19122 -0.02049
C 30.68092 23.48483 -0.01854
C 30.71127 22.02791 -0.01415
C 29.47387 21.30154 -0.03039
C 29.5221 19.9264 0.01836
C 30.79776 19.23306 0.03531
C 30.74234 17.85248 -0.00669
C 33.15804 23.38551 0.01927
C 33.14502 21.9759 0.01574
C 31.90655 21.38157 -0.02383
C 32.01621 19.9516 -0.01429
C 34.38901 24.11006 0.03076
C 1.19727 23.47472 0.00723
C 1.16489 21.98208 0.02712
C 34.38583 21.25976 -0.02213
C 0.06034 19.87818 0.01951
C 1.31821 19.14058 -0.01678
C 1.18506 17.7477 0.01223
C 34.40665 17.08412 0.00648
C 34.3733 15.62935 0.02114
C 1.15706 15.02277 -0.02957
C 1.21831 13.62442 0.00343
C 0.05856 12.86929 -0.02656
C 34.36693 11.28322 -0.02442
C 1.1689 10.57429 -0.00027
C 1.12206 9.22235 -0.00583
C 34.36582 8.48618 -0.02302
C 34.37038 7.02135 -0.02849
C 1.2053 6.34165 0.02931
C 1.15728 4.89589 0.00628
C 34.40011 4.16563 -0.0345
C 34.32883 2.77184 -0.00931
C 1.12935 1.99855 -0.00939
C 1.14718 0.66213 -0.00468
C 34.42099 25.53734 -0.05239
C 26.97538 8.51903 0.02611
C 1.21331 26.28799 -0.00598
C 34.38003 28.36552 -0.01037
C 33.24742 19.25392 -0.0136
C 33.15913 17.83612 0.00594
C 31.89537 17.0516 -0.02474
C 31.94033 15.68709 0.00369
C 33.15914 14.9136 0.00455
C 33.23974 13.55289 -0.00644
C 32.07886 12.73186 -0.01839
C 31.91574 11.38563 0.00137
C 33.11823 10.58785 0.00199
C 33.12726 9.18746 0.04381
C 31.89927 8.47963 0.02806
C 31.97608 6.9688 0.01504
C 33.1528 6.2665 -0.00069
C 33.1604 4.83376 0.04926
C 31.86109 4.19075 -0.03838
C 31.92355 2.75686 0.00349
C 33.14476 2.04096 -0.00323
C 33.15859 0.66095 -0.00841
C 31.98171 33.92318 0.0001
C 0.033 32.51498 -0.02927
C 1.31317 31.8449 -0.01404
C 1.25636 30.48586 0.01027
C 34.41636 29.82711 0.01831
C 1.12413 27.71177 -0.00439
C 28.25226 9.23668 -0.00621
C 28.25458 10.66604 0.00194
C 27.00562 11.38157 0.04185
C 22.13198 25.59113 0.00675
C 22.15587 24.14275 -0.00311
C 23.40925 23.53279 0.00742
C 23.31029 22.09885 -0.01594
C 22.12801 21.35163 0.0106
C 22.13194 19.8657 -0.01154
C 23.35096 19.19528 -0.01721
C 23.44002 17.79031 -0.02422
C 22.17556 17.08124 0.01277
C 22.15636 15.64683 0.00096
C 23.27945 14.88532 -0.01527
C 23.33013 13.52922 0.01087
C 22.16809 12.78722 0.00199
C 22.09247 11.36694 0.01511
C 23.30983 10.68239 -0.00478
C 23.30332 9.30056 -0.01662
C 22.09337 8.47438 -0.01185
C 22.10494 7.07296 0.01126
C 23.32472 6.40406 0.01852
C 23.30834 4.97416 -0.00381
C 22.11885 4.25918 0.03046
C 22.0934 2.76389 0.0296
C 23.37383 2.13271 0.03374
C 23.36003 26.3123 -0.00865
C 23.30474 0.74425 -0.02845
C 23.32305 27.66302 0.0058
C 22.11933 29.83281 -0.04076
C 19.57907 19.92811 -0.0331
C 20.82486 19.20769 -0.00316
C 20.88637 17.77955 0.02188
C 19.63865 17.06793 -0.01979
C 19.65989 15.62154 0.02691
C 20.90587 14.98474 -0.01581
C 20.92036 13.52629 0.01452
C 19.67411 12.78682 0.04892
C 19.63062 11.33138 -0.00111
C 20.90307 10.63161 -0.03557
C 20.80442 9.20704 0.03754
C 19.60595 8.48627 0.01739
C 19.66591 7.09536 0.00755
C 20.86965 6.39247 -0.0054
C 20.87513 4.90222 0.00667
C 19.58333 4.33546 0.00143
C 19.66941 2.83884 -0.017
C 20.8572 2.04971 0.00364
C 20.86234 0.68247 -0.00831
C 19.64831 34.00794 -0.02957
C 22.12535 32.65256 -0.04422
C 23.39117 31.92413 0.00654
C 23.4231 30.53157 -0.00703
C 22.10211 28.42619 -0.00652
C 3.69508 31.92752 0.00267
C 22.09416 0.05098 -0.03213
C 25.73713 31.89372 0.01153
C 25.81212 2.08236 -0.0264
C 25.85731 0.64024 -0.01154
C 24.57555 0.07798 0.00684
C 27.06198 32.59152 -0.01052
C 28.24119 31.9085 -0.01679
C 28.38478 30.48826 0.00367
C 27.12099 29.81057 0.04306
C 26.99411 28.44617 0.00996
C 28.27171 27.65101 0.00195
C 28.23734 26.1712 -0.00802
C 27.02654 25.5171 -0.00218
C 27.06981 24.10064 -0.01654
C 28.24095 23.45678 -0.00037
C 28.28477 21.98888 -0.0032
C 27.06447 21.32095 0.00622
C 27.02391 19.92933 -0.02815
C 28.247 19.17163 -0.00942
C 28.3214 17.78139 0.00487
C 27.10188 17.05844 0.00826
C 26.99837 15.67466 -0.00294
C 28.22601 14.95758 0.00152
C 28.18409 13.46635 0.01257
C 27.0231 12.78453 0.02316
C 24.52449 2.84922 -0.00938
C 24.5561 32.65695 0.02239
C 24.54552 4.292 -0.00229
C 25.7305 6.42268 -0.009
C 25.84896 30.48226 0.02734
C 24.60908 29.70583 -0.0055
C 24.5627 28.3715 0.01515
C 25.80294 27.74442 -0.00225
C 25.82754 26.28573 0.00071
C 24.58751 25.62809 -0.01107
C 24.56946 24.1884 -0.01586
C 25.79792 23.47382 -0.01971
C 25.83311 21.97047 -0.02118
C 24.57933 21.27494 0.00733
C 24.54749 19.86942 -0.00178
C 25.84182 19.23941 0.00768
C 25.84425 17.79677 -0.0276
C 24.60437 17.03427 0.03005
C 24.55209 15.59459 -0.04078
C 25.83847 14.9492 0.02117
C 25.83424 13.56887 0.02737
C 24.58991 12.86219 -0.00498
C 24.56415 11.40518 0.00135
C 25.7781 10.6529 0.03102
C 25.839 9.30508 0.02555
C 24.50394 8.56454 0.01423
C 24.51244 7.12661 -0.00285
C 25.77969 4.98727 -0.01199
C 2.49879 32.65108 0.01913
