425
Graphene
C 0.01556 0.02059 0.01295
C 12.32681 24.12031 0.00572
C 13.47055 23.5013 0.03592
C 13.51798 22.04819 0.00406
C 12.30585 21.2779 0.00943
C 12.32148 19.92498 0.02841
C 13.53544 19.1858 -0.01111
C 13.48864 17.75495 -0.01275
C 12.27478 17.03374 0.00985
C 12.2684 15.5476 -0.02245
C 13.50868 14.90359 -0.00428
C 12.33582 25.59351 0.0402
C 13.54825 13.46517 0.03101
C 12.3181 11.34325 -0.02689
C 13.58154 10.65087 -0.01046
C 13.53891 9.2889 -0.00891
C 12.32354 8.49362 0.02819
C 12.30407 7.05814 0.00165
C 13.48624 6.37334 -0.02971
C 13.56625 4.91074 0.02894
C 12.24737 4.26184 -0.01789
C 12.2707 2.8705 0.00444
C 13.51878 2.09591 -0.00925
C 12.25799 12.80349 -0.01536
C 13.46321 26.30514 -0.02759
C 13.52742 27.71888 0.03589
C 12.30908 28.42114 -0.00033
C 11.0679 19.16415 -0.01384
C 11.0876 17.75087 0.03693
C 9.81786 17.03809 0.01745
C 9.82242 15.62184 0.00488
C 11.05328 14.94092 -0.01004
C 11.06499 13.58172 -0.02896
C 9.82824 12.80977 -0.00131
C 9.83807 11.39546 -0.01118
C 11.07109 10.60063 -0.014
C 11.07962 9.22105 0.02147
C 9.86879 8.55073 0.00373
C 9.91029 7.11682 -0.00191
C 11.07767 6.34678 0.00438
C 11.04244 5.00654 0.01291
C 9.86424 4.22994 0.00093
C 9.79015 2.81962 0.00057
C 11.08379 2.1368 -0.01634
C 11.15284 0.72728 -0.00334
C 9.85394 0.03068 0.02339
C 12.32654 32.68579 0.01641
C 13.51934 32.03029 -0.00719
C 13.51134 30.57221 0.01364
C 12.29391 29.81316 -0.01062
C 13.53453 0.68365 0.01877
C 9.84289 19.92025 -0.00482
C 12.31782 34.05928 0.01363
C 15.93983 31.96452 0.00415
C 15.98524 2.13176 0.0351
C 15.99166 0.6718 -0.03113
C 14.79394 0.03979 0.02098
C 17.22025 32.61445 0.01848
C 18.46554 31.9577 -0.00619
C 18.44972 30.54071 -0.02162
C 17.24208 29.80004 0.00889
C 17.15497 28.4106 -0.00481
C 18.42394 27.67685 0.00979
C 17.24341 25.55062 0.01443
C 14.74441 2.83144 0.00422
C 17.19074 21.30105 0.03505
C 18.42425 19.18699 -0.04147
C 18.41401 17.77663 -0.05302
C 17.15617 17.06417 0.00213
C 17.19255 15.63988 -0.00066
C 18.43077 14.92366 -0.00289
C 18.50869 13.4688 0.00028
C 17.25268 12.77603 -0.02213
C 17.22118 11.38399 0.03698
C 18.44393 10.6348 -0.00109
C 18.47554 9.21789 -0.00491
C 17.21019 19.88687 -0.02815
C 14.7598 4.22175 0.00798
C 15.96326 4.95965 0.00228
C 15.98249 6.38088 -0.00114
C 16.02933 30.55851 -0.0014
C 14.74445 29.82998 0.02162
C 14.73307 28.39147 0.0076
C 15.94553 27.70271 0.01241
C 16.00183 26.23002 -0.01454
C 14.69966 25.57414 0.01945
C 14.74905 24.18189 0.01416
C 15.99823 23.42371 0.03542
C 16.01678 22.0055 0.02299
C 14.75788 21.24786 0.00244
C 14.73747 19.86353 -0.01717
C 16.00751 19.13376 0.05265
C 15.93498 17.7112 -0.01952
C 14.76002 17.01546 -0.02813
C 14.79507 15.62214 0.00374
C 15.94742 14.94174 0.00052
C 16.03052 13.47051 -0.03682
C 14.74814 12.78901 0.01965
C 14.75299 11.35077 0.02058
C 15.98534 10.68787 -0.01957
C 15.99732 9.19043 -0.0108
C 14.7546 8.53256 -0.00368
C 14.73358 7.09531 -0.02696
C 14.73463 32.64824 -0.02162
C 9.83966 21.29334 0.02888
C 11.0608 22.06605 0.00685
C 11.08704 23.40414 0.00895
C 3.71253 2.13376 -0.00449
C 3.71863 0.70113 -0.01979
C 2.45502 0.00527 0.02784
C 4.85208 32.71321 -0.01977
C 6.15634 31.95855 -0.00561
C 6.1562 30.5156 0.00208
C 4.9084 29.82623 0.01707
C 4.90797 28.45417 0.02769
C 6.21106 27.63407 -0.03291
C 6.20727 26.28103 -0.04999
C 2.45468 2.81793 0.00211
C 4.99704 25.53129 0.04505
C 6.14094 23.40675 -0.04307
C 6.08438 21.97518 0.03189
C 4.89252 21.36611 0.00031
C 4.917 19.90535 -0.003
C 6.15708 19.16797 0.01402
C 6.1345 17.78244 0.02379
C 4.9659 17.05208 0.00907
C 4.89523 15.59673 0.00643
C 6.167 14.89867 -0.01509
C 6.09672 13.44052 0.03267
C 4.89542 24.17499 0.03284
C 2.40776 4.2803 0.0064
C 3.64719 4.9857 -0.00039
C 3.7225 6.42155 0.02728
C 3.6866 30.45906 -0.01471
C 2.47639 29.83054 -0.02827
C 2.48831 28.43031 0.01078
C 3.6968 27.70886 -0.00112
C 3.70076 26.24488 0.03345
C 2.44446 25.4847 0.00748
C 2.45018 24.09697 0.00662
C 3.70018 23.42781 -0.0154
C 3.68714 21.97333 -0.01299
C 2.47828 21.3159 -0.00407
C 2.49661 19.91744 0.01138
C 3.69726 19.15932 0.03278
C 3.72883 17.72449 -0.00177
C 2.49946 17.04864 0.04421
C 2.47492 15.65572 0.00088
C 3.65908 14.84367 0.00828
C 3.66687 13.5023 -0.02375
C 2.44095 12.78668 0.00558
C 2.41118 11.32708 -0.0059
C 3.71915 10.62826 -0.01386
C 3.66889 9.23834 -0.02805
C 2.4473 8.5368 0.00081
C 2.48415 7.04628 0.00245
C 4.91491 12.81869 0.02374
C 4.94568 11.38092 0.00402
C 6.18177 10.66972 0.0073
C 6.13009 9.22516 0.0174
C 8.62017 13.49988 0.01227
C 7.43404 12.82663 0.00873
C 7.38504 11.35997 -0.00049
C 8.57872 10.6774 0.00848
C 8.66541 9.2285 -0.01303
C 7.39427 8.58733 -0.01378
C 7.38557 7.1244 0.02635
C 8.64557 6.44115 0.0127
C 8.58184 5.02713 0.01396
C 7.36931 4.31364 0.01849
C 7.41468 2.86515 -0.01142
C 8.54932 2.11084 -0.00562
C 8.61997 0.70776 -0.00494
C 7.40228 34.06303 0.00054
C 9.85097 32.63446 0.03007
C 11.0541 31.96976 -0.00095
C 11.01952 30.57594 0.01572
C 9.82367 29.82 -0.04848
C 9.79157 28.38553 -0.00892
C 11.01326 27.72661 -0.01362
C 11.05801 26.27579 -0.0008
C 9.86704 25.54913 0.0288
C 9.81214 24.19482 0.00393
C 8.57031 14.92159 -0.03337
C 17.23825 8.55865 0.03338
C 7.39397 15.58978 -0.00966
C 8.607 17.78205 0.03368
C 4.86313 8.50422 0.03828
C 4.9311 7.09455 0.01226
C 6.10212 6.44586 -0.00279
C 6.08861 4.98093 0.01996
C 4.87692 4.2661 -0.03996
C 4.90842 2.79769 0.01465
C 6.15967 2.17128 -0.00074
C 6.13141 0.7157 -0.00518
C 4.95636 0.03774 0.0086
C 7.37143 32.63173 -0.00643
C 8.59752 31.9672 0.017
C 8.61331 30.54831 -0.03113
C 7.41582 29.82315 -0.02566
C 7.39183 28.44023 -0.00094
C 8.57929 27.65611 0.02322
C 8.61438 26.24815 -0.00725
C 7.36699 25.56931 -0.05697
C 7.32898 24.19778 0.01087
C 8.64534 23.42771 -0.01343
C 8.60713 21.9823 0.00988
C 7.39369 21.2997 0.0276
C 7.3649 19.91626 0.01305
C 8.59393 19.21244 -0.00077
C 7.41368 17.03139 -0.02929
C 3.68551 31.95652 0.01218
C 17.22135 7.08929 -0.0258
C 18.40524 5.01212 -0.00316
C 29.56537 11.39331 -0.02155
C 30.7568 10.57646 -0.00944
C 30.77115 9.22241 -0.03735
C 29.52024 8.53202 -0.00971
C 29.51946 7.12788 0.01518
C 30.75396 6.37065 0.01908
C 30.70814 4.99128 0.07705
C 29.53116 4.21547 0.0103
C 29.49121 2.8163 0.02108
C 30.7178 2.13395 0.00716
C 29.48444 12.77094 -0.01461
C 30.72003 0.72078 0.00307
C 31.94683 32.65909 0.01713
C 33.21697 31.90473 -0.01694
C 33.23534 30.5157 0.01428
C 31.98414 29.83631 -0.02142
C 32.04205 28.38482 0.0544
C 33.20755 27.64556 0.00026
C 33.20126 26.27565 0.00682
C 32.00068 25.53127 -0.01779
C 31.9566 24.13993 0.03794
C 33.22758 23.4017 0.01927
C 29.51178 34.07134 0.00346
C 30.73555 13.50285 -0.01303
C 30.79104 14.96912 -0.0405
C 29.50662 15.61278 0.01705
C 28.33316 6.42253 0.01094
C 28.26167 4.98948 0.00235
C 27.0493 4.25491 0.01495
C 27.05585 2.84113 0.01259
C 28.32193 2.15386 0.01799
C 28.30478 0.69598 0.01699
C 27.03595 34.03454 -0.00416
C 29.49142 32.68031 0.01177
C 30.76181 31.94476 0.04266
C 30.76424 30.57272 0.01324
C 29.48048 29.75061 0.0014
C 29.49053 28.36449 0.00924
C 30.75769 27.66478 0.02326
C 30.77259 26.25756 0.00261
C 29.45841 25.50848 0.03265
C 29.47136 24.10264 -0.02049
C 30.7391 23.41126 -0.01854
C 30.72297 22.03124 -0.01415
C 29.53621 21.27295 -0.03039
C 29.522 19.90962 0.01836
C 30.74439 19.19256 0.03531
C 30.75587 17.72992 -0.00669
C 29.5029 17.02549 0.0101
C 33.18195 21.97517 0.01574
C 27.01315 7.11202 0.02198
C 31.99801 21.32514 -0.02383
C 33.23402 19.14209 -0.0136
C 1.22778 23.43686 0.00723
C 1.18429 22.05646 0.02712
C 34.43026 21.31935 -0.02213
C 34.42406 19.9322 0.01951
C 1.22553 19.19808 -0.01678
C 1.20161 17.74028 0.01223
C 0.00049 17.04416 0.00648
C 0.003 15.61159 0.02114
C 1.24089 14.91111 -0.02957
C 1.21637 13.47343 0.00343
C 34.41021 24.14327 0.03076
C 34.42481 12.76688 -0.02656
C 1.20092 10.73541 -0.00027
C 1.23574 9.18422 -0.00583
C 34.42142 8.50181 -0.02302
C 34.38484 7.09347 -0.02849
C 1.21412 6.38591 0.02931
C 1.24452 4.95407 0.00628
C 34.3814 4.18558 -0.0345
C 34.41652 2.82245 -0.00931
C 1.26772 2.14094 -0.00939
C 1.24117 0.67378 -0.00468
C 34.38597 11.38527 -0.02442
C 0.01977 25.5549 -0.05239
C 1.256 26.26029 -0.00598
C 1.26132 27.68035 -0.00439
C 33.16914 17.74602 0.00594
C 31.99224 17.0029 -0.02474
C 31.98889 15.58225 0.00369
C 33.19192 14.87744 0.00455
C 33.23065 13.47484 -0.00644
C 31.99363 12.76371 -0.01839
C 31.95423 11.3674 0.00137
C 33.12352 10.64214 0.00199
C 33.13187 9.22161 0.04381
C 31.98028 8.46379 0.02806
C 31.92899 7.12185 0.01504
C 33.22611 6.38322 -0.00069
C 33.22377 4.96396 0.04926
C 31.90304 4.27539 -0.03838
C 31.92926 2.82037 0.00349
C 33.2068 2.1096 -0.00323
C 33.2033 0.67572 -0.00841
C 32.00253 34.04669 0.0001
C 0.02669 32.62274 -0.02927
C 1.25724 31.9516 -0.01404
C 1.22067 30.53063 0.01027
C 0.00936 29.76475 0.01831
C 34.41052 28.39073 -0.01037
C 31.96279 19.91067 -0.01429
C 27.10112 8.48889 0.02611
C 28.34622 9.2124 -0.00621
C 28.27852 10.62049 0.00194
C 20.91037 2.11398 0.00742
C 20.93601 0.67911 -0.01594
C 19.68794 34.04483 0.0106
C 22.16079 32.68245 -0.01154
C 23.32765 31.94162 -0.01721
C 23.34258 30.54753 -0.02422
C 22.16656 29.78305 0.01277
C 22.14783 28.38941 0.00096
C 23.39122 19.21478 -0.01527
C 23.3737 17.75946 0.01087
C 19.70041 2.78427 -0.00311
C 22.13008 17.02879 0.00199
C 23.3825 14.91953 -0.00478
C 23.33432 13.54071 -0.01662
C 22.10671 12.76958 -0.01185
C 22.1624 11.35971 0.01126
C 23.33551 10.64928 0.01852
C 23.36733 9.20289 -0.00381
C 22.1629 8.52261 0.03046
C 22.13645 7.14674 0.0296
C 23.3556 6.34232 0.03374
C 23.38054 5.00222 -0.02845
C 22.15553 15.62064 0.01511
C 19.72393 4.24179 0.00675
C 20.84908 4.93657 -0.00865
C 20.93826 6.40677 0.0058
C 17.19587 4.24242 0.02188
C 17.34117 2.86994 -0.01979
C 18.43873 2.17626 0.02691
C 18.45824 0.7067 -0.01581
C 17.23194 34.06152 0.01452
C 19.61749 32.65229 0.04892
C 20.87029 31.96658 -0.00111
C 20.86521 30.51373 -0.03557
C 19.66814 29.81762 0.03754
C 19.69638 28.34666 0.01739
C 19.61634 19.82531 0.00755
C 20.89717 19.17515 -0.0054
C 20.87389 17.77432 0.00667
C 19.65317 17.01133 0.00143
C 19.65035 15.63565 -0.017
C 20.90811 14.94496 0.00364
C 20.91899 13.48729 -0.00831
C 19.67764 12.79914 -0.02957
C 19.68203 11.30651 -0.04422
C 20.92548 10.6689 0.00654
C 20.88944 9.1913 -0.00703
C 19.69223 8.51046 -0.04076
C 19.7744 7.16751 -0.00652
C 22.13652 4.26023 -0.03213
C 22.11038 2.83517 0.02239
C 23.38111 2.10775 0.01153
C 23.32915 0.71844 0.02734
C 25.81295 0.74295 -0.01154
C 24.58302 34.06772 0.00684
C 27.08898 32.65356 -0.01052
C 28.33409 31.9483 -0.01679
C 28.26825 30.54846 0.00367
C 27.04994 29.79634 0.04306
C 27.04234 28.43661 0.00996
C 28.28782 27.6938 0.00195
C 28.26868 26.26664 -0.00802
C 27.02409 25.56246 -0.00218
C 27.0554 24.12241 -0.01654
C 28.254 23.4085 -0.00037
C 28.31784 22.01398 -0.0032
C 27.05228 21.28439 0.00622
C 27.05001 19.89927 -0.02815
C 28.3203 19.18611 -0.00942
C 28.24104 17.73519 0.00487
C 27.04918 17.01924 0.00826
C 27.04557 15.6483 -0.00294
C 28.28888 14.94126 0.00152
C 28.30008 13.47542 0.01257
C 27.0315 12.72961 0.02316
C 27.12391 11.34539 0.04185
C 25.79062 2.17944 -0.0264
C 18.45666 6.39399 -0.0331
C 24.61994 2.88902 -0.00938
C 25.8374 4.93676 -0.01199
C 22.13608 34.01977 -0.0055
C 24.54983 32.6424 0.01515
C 25.85299 31.94976 -0.00225
C 25.79567 30.53927 0.00071
C 24.54868 29.8193 -0.01107
C 24.59421 28.39681 -0.01586
C 25.77821 27.7033 -0.01971
C 25.83075 26.25977 -0.02118
C 25.76068 21.95583 0.00733
C 24.54876 19.83126 -0.00178
C 25.79633 19.2022 0.00768
C 25.833 17.81452 -0.0276
C 24.57753 16.98121 0.03005
C 24.59357 15.60334 -0.04078
C 25.80694 14.96831 0.02117
C 25.83089 13.50713 0.02737
C 24.61618 12.84931 -0.00498
C 24.60914 11.35787 0.00135
C 25.83924 10.61403 0.03102
C 25.82101 9.19827 0.02555
C 24.59305 8.51934 0.01423
C 24.6045 7.05902 -0.00285
C 25.85292 6.40313 -0.009
C 24.57183 4.27478 -0.00229
C 2.45444 32.68557 0.02426
