439
Graphene
C 0.03125 34.00987 0.01295
C 12.14957 19.96996 -0.00334
C 13.46884 19.15369 0.02339
C 13.44081 17.75474 0.01641
C 12.18304 17.06407 -0.00719
C 12.13889 15.59009 0.01364
C 13.45836 15.0224 -0.01062
C 13.53127 13.63252 -0.00033
C 12.32881 12.81188 0.03589
C 12.3222 11.48835 -0.02759
C 13.5059 10.71096 0.0402
C 13.45943 9.25453 0.00572
C 12.31249 8.50144 0.03592
C 12.30296 7.04718 0.00406
C 13.46895 6.3323 0.00943
C 13.51481 4.95588 0.02841
C 12.29826 4.31606 -0.01111
C 12.21674 2.94472 -0.01275
C 13.44385 2.13874 0.00985
C 13.43025 0.76877 -0.02245
C 12.2681 0.08597 -0.00428
C 14.70828 32.58238 0.03101
C 15.95719 32.05179 -0.01536
C 16.07627 30.52925 -0.02689
C 12.20734 21.33348 -0.01634
C 13.42032 22.04287 0.00057
C 13.57831 23.55435 0.00093
C 12.3393 24.22229 0.01291
C 9.74077 15.70363 0.01572
C 10.97386 14.91456 -0.04848
C 10.97495 13.50167 -0.00892
C 9.75176 12.75989 -0.01362
C 9.83998 11.32052 -0.0008
C 11.06211 10.74971 0.0288
C 11.10927 9.26629 0.00393
C 9.84052 8.62054 0.00895
C 9.84345 7.2005 0.00685
C 10.99032 6.42354 0.02888
C 11.00293 5.0562 -0.00482
C 14.81027 29.94046 -0.01046
C 9.86244 4.23172 -0.01384
C 11.01729 2.16576 0.01745
C 11.07976 0.80655 0.00488
C 9.77578 0.07865 -0.01004
C 12.19004 32.68749 -0.02896
C 13.46815 31.90634 -0.00131
C 13.5362 30.51429 -0.01118
C 12.31198 29.79724 -0.014
C 12.32301 28.36032 0.02147
C 13.60654 27.73201 0.00373
C 13.55837 26.3138 -0.00191
C 12.31044 25.66357 0.00438
C 9.84038 2.85103 0.03693
C 9.75581 17.13183 -0.00095
C 14.8139 28.42598 -0.00891
C 15.97326 26.26623 0.00165
C 17.22585 29.72317 -0.01957
C 17.283 28.35842 -0.0108
C 18.51706 27.64461 -0.00368
C 18.57163 26.33155 -0.02696
C 17.28675 25.62628 -0.00114
C 17.31061 24.17933 0.00228
C 18.5515 23.52156 0.00798
C 18.41061 22.15829 0.00422
C 17.21193 21.41359 0.0351
C 17.12495 19.90273 -0.03113
C 18.42609 19.21507 0.02098
C 18.40154 17.79476 0.01848
C 17.16292 17.10415 -0.00619
C 17.07461 15.66567 -0.02162
C 18.35712 14.93145 0.00889
C 18.39382 13.53093 -0.00481
C 17.20753 12.80292 0.00979
C 17.19718 11.38244 0.01443
C 18.41555 10.70522 0.03505
C 18.33613 9.29163 -0.02815
C 17.11758 8.541 -0.04147
C 17.15948 7.12586 -0.05302
C 18.39609 6.39399 0.00213
C 18.47655 30.55556 0.02058
C 18.42834 31.89456 0.01965
C 17.2599 32.63866 -0.03682
C 14.71212 33.98817 0.00052
C 14.77214 25.5196 -0.02971
C 14.81464 24.19926 0.02894
C 16.05224 23.48196 -0.01789
C 15.97427 22.05077 0.00444
C 14.68494 21.35124 -0.00925
C 14.68487 19.88393 0.01877
C 15.87607 19.20431 0.01363
C 15.90584 17.80637 -0.02162
C 14.69877 17.10991 0.00415
C 14.76691 15.71846 -0.0014
C 15.8653 14.94884 0.02162
C 15.96036 27.66839 0.02819
C 15.99805 13.43153 0.0076
C 14.70371 11.39489 -0.01454
C 16.00031 10.6719 0.01945
C 15.89715 9.22997 0.01416
C 14.63208 8.5187 0.03542
C 14.69396 7.15656 0.02299
C 15.95092 6.34188 0.00244
C 15.97921 4.94716 -0.01717
C 14.67939 4.27264 0.05265
C 14.67634 2.84007 -0.01952
C 15.92398 2.05034 -0.02813
C 15.95815 0.67738 0.00374
C 14.70161 12.77271 0.01241
C 18.38823 4.97793 -0.00066
C 10.97413 17.77646 0.03007
C 9.82447 19.86495 -0.00494
C 3.70317 0.70106 0.00088
C 2.51321 0.00982 0.00828
C 4.89302 32.7149 -0.02375
C 6.15153 31.92702 0.00558
C 6.08445 30.55958 -0.0059
C 4.84322 29.7879 -0.01386
C 4.83743 28.38431 -0.02805
C 6.07699 27.74524 0.00081
C 6.0832 26.26416 0.00245
C 4.92549 25.54613 0.02728
C 4.93486 24.09315 -0.00039
C 6.07322 23.44904 0.0064
C 6.058 22.00304 0.00211
C 4.80346 21.30739 -0.00449
C 4.77979 19.93592 -0.01979
C 6.0865 19.30051 0.02784
C 5.99256 17.79793 -0.01977
C 4.8924 17.02647 -0.00561
C 4.86233 15.4917 0.00208
C 6.15244 14.86989 0.01707
C 6.14703 13.56349 0.02769
C 4.78702 12.79325 -0.03291
C 4.89781 11.46053 -0.04999
C 3.70925 2.17492 0.04421
C 2.51896 2.85146 -0.00177
C 2.55207 4.27504 0.03278
C 3.75388 5.03534 0.01138
C 3.69801 30.62405 -0.0005
C 2.4736 29.84999 -0.00018
C 2.42604 28.4038 0.01073
C 3.65651 27.65995 0.01984
C 3.71745 26.25759 0.00535
C 2.49268 25.58135 -0.00198
C 2.4648 24.1144 -0.00012
C 3.6672 23.42415 -0.04306
C 3.58265 22.02686 -0.03672
C 2.35358 21.26322 0.01913
C 2.35755 19.87246 0.00267
C 6.14864 10.73529 0.04505
C 3.68847 19.13939 0.00787
C 2.38936 17.1091 0.01218
C 2.29905 15.65542 -0.01471
C 3.58324 14.90954 -0.02827
C 3.54402 13.52987 0.01078
C 2.28958 12.77542 -0.00112
C 2.35077 11.27961 0.03345
C 3.63939 10.66955 0.00748
C 3.70495 9.24033 0.00662
C 2.52169 8.60402 -0.0154
C 2.51697 7.11844 -0.01299
C 3.73991 6.44007 -0.00407
C 3.62786 17.69408 0.02426
C 11.01688 19.17779 0.00054
C 6.0864 9.32654 0.03284
C 4.99566 7.15798 0.03189
C 8.60111 10.65628 -0.05697
C 8.57318 9.21309 0.01087
C 7.33893 8.56074 -0.01343
C 7.39606 7.18903 0.00988
C 8.60974 6.49421 0.0276
C 8.68381 5.08472 0.01305
C 7.39272 4.3496 -0.00077
C 7.32958 2.96492 0.03368
C 8.55263 2.17872 -0.02929
C 8.5765 0.72823 -0.00966
C 7.35841 0.04895 -0.03337
C 9.80424 32.70022 0.01227
C 11.05054 32.02097 0.00873
C 11.04886 30.53514 -0.00049
C 9.77913 29.82996 0.00848
C 9.8069 28.42096 -0.01303
C 11.03025 27.66629 -0.01378
C 11.08108 26.3075 0.02635
C 9.78029 25.61087 0.0127
C 9.80536 24.24388 0.01396
C 11.09281 23.4396 0.01849
C 10.97281 22.03137 -0.01142
C 9.77817 21.33052 -0.00562
C 7.37816 11.45558 -0.00725
C 7.42256 12.90876 0.02322
C 8.638 13.57656 -0.00094
C 8.52618 15.0315 -0.02566
C 6.1908 6.45459 0.00031
C 6.24089 5.06693 -0.003
C 4.97315 4.32301 0.01402
C 4.95062 2.9491 0.02379
C 6.12311 2.19922 0.00907
C 6.13232 0.78082 0.00643
C 4.92019 0.05915 -0.01509
C 7.30455 32.69586 0.03267
C 8.58599 31.9769 0.02374
C 8.61076 30.51747 0.00402
C 7.40688 29.84435 0.0073
C 5.01948 8.5732 -0.04307
C 7.34869 28.48436 0.0174
C 8.6305 26.40299 0.01226
C 7.32184 25.66457 -0.00279
C 7.34264 24.15474 0.01996
C 8.51381 23.46665 -0.03996
C 8.62411 22.0427 0.01465
C 7.37069 21.31071 -0.00074
C 7.32396 19.87943 -0.00518
C 8.53219 19.2033 0.0086
C 8.43363 17.79033 -0.00643
C 7.2617 17.13094 0.017
C 7.24722 15.7122 -0.03113
C 8.55573 27.80659 0.03828
C 3.71042 31.97155 0.01116
C 17.17268 4.29746 -0.00289
C 18.4492 2.16206 -0.02213
C 30.59354 14.94574 -0.0405
C 30.62355 13.45227 -0.01303
C 29.42848 12.67613 -0.01461
C 29.52953 11.33388 -0.02155
C 30.72346 10.48881 -0.00944
C 30.75818 9.01554 -0.03735
C 29.53659 8.38855 -0.00971
C 29.50404 7.01662 0.01518
C 30.75342 6.2836 0.01908
C 30.67993 4.92088 0.07705
C 29.50433 4.24706 0.0103
C 29.55799 2.72492 0.02108
C 30.80295 2.06109 0.00716
C 30.76264 0.71012 0.00307
C 29.48621 34.0724 0.00346
C 31.99788 32.67458 0.01713
C 33.23615 31.94852 -0.01694
C 33.18149 30.48421 0.01428
C 31.93245 29.84994 -0.02142
C 31.9479 28.3711 0.0544
C 33.23895 27.65628 0.00026
C 33.13396 26.29421 0.00682
C 31.89303 25.61018 -0.01779
C 29.41394 15.60409 0.01705
C 29.41699 17.04335 0.0101
C 30.63538 17.75434 -0.00669
C 30.62498 19.12936 0.03531
C 28.26341 10.5714 0.00194
C 28.2923 9.07994 -0.00621
C 26.98969 8.55165 0.02611
C 27.01778 7.04399 0.02198
C 28.26028 6.42421 0.01094
C 28.1722 4.97592 0.00235
C 27.0312 4.27902 0.01495
C 27.08326 2.80917 0.01259
C 28.28776 2.09242 0.01799
C 28.25743 0.67928 0.01699
C 27.02676 0.04338 -0.00416
C 31.85458 24.06061 0.03794
C 29.46736 32.61371 0.01177
C 30.65693 30.55635 0.01324
C 29.48651 29.84546 0.0014
C 29.51851 28.50172 0.00924
C 30.77117 27.75072 0.02326
C 30.65895 26.27592 0.00261
C 29.40785 25.56964 0.03265
C 29.33659 24.14932 -0.02049
C 30.62227 23.39892 -0.01854
C 30.58897 22.00392 -0.01415
C 29.37278 21.29539 -0.03039
C 29.4327 19.9019 0.01836
C 30.79325 31.93836 0.04266
C 27.02699 11.2197 0.04185
C 33.14923 23.43409 0.01927
C 31.80023 21.32181 -0.02383
C 34.41834 24.19898 0.03076
C 1.16635 23.40382 0.00723
C 1.09042 21.97974 0.02712
C 34.34968 21.22942 -0.02213
C 34.34022 19.89772 0.01951
C 1.08505 19.11985 -0.01678
C 1.17736 17.74866 0.01223
C 34.39406 17.03791 0.00648
C 34.25175 15.60996 0.02114
C 1.13979 14.91865 -0.02957
C 1.13341 13.46405 0.00343
C 34.31612 12.70427 -0.02656
C 34.35076 11.35247 -0.02442
C 1.13617 10.58682 -0.00027
C 1.2075 9.24214 -0.00583
C 34.40553 8.49295 -0.02302
C 34.38785 7.00813 -0.02849
C 1.29265 6.37268 0.02931
C 1.28994 4.98901 0.00628
C 0.09887 4.27426 -0.0345
C 0.05043 2.87809 -0.00931
C 1.25272 2.12503 -0.00939
C 1.22942 0.66925 -0.00468
C 34.39497 25.55359 -0.05239
C 1.28514 26.37458 -0.00598
C 1.24946 27.75167 -0.00439
C 0.00926 28.44809 -0.01037
C 31.87301 19.85113 -0.01429
C 33.11534 19.16597 -0.0136
C 33.10666 17.70127 0.00594
C 31.93329 16.9642 -0.02474
C 31.92743 15.61193 0.00369
C 33.08419 14.80992 0.00455
C 33.09096 13.37202 -0.00644
C 31.83979 12.71684 -0.01839
C 31.89395 11.27412 0.00137
C 33.16339 10.53833 0.00199
C 33.16074 9.11895 0.04381
C 33.069 22.0704 0.01574
C 32.00555 8.34405 0.02806
C 33.22452 6.24451 -0.00069
C 33.19804 4.92424 0.04926
C 31.92666 4.16241 -0.03838
C 32.05485 2.79597 0.00349
C 33.26423 2.14431 -0.00323
C 33.2788 0.74212 -0.00841
C 32.02116 0.0357 0.0001
C 0.02332 32.59581 -0.02927
C 1.32377 32.0129 -0.01404
C 1.26177 30.5595 0.01027
C 34.39129 29.83884 0.01831
C 31.93646 6.95171 0.01504
C 17.17459 2.81538 0.00028
C 27.05193 12.61506 0.02316
C 28.20369 14.89798 0.00152
C 19.61716 4.3251 -0.04076
C 19.53956 2.94466 -0.00652
C 20.85066 2.13186 0.0058
C 20.87699 0.74649 -0.00865
C 19.60394 34.03652 0.00675
C 22.13456 32.58849 -0.00311
C 23.27788 31.93524 0.00742
C 23.31936 30.47605 -0.01594
C 22.17213 29.70181 0.0106
C 22.2448 28.15444 -0.01154
C 23.26883 22.00965 -0.01721
C 22.04518 21.30692 -0.02422
C 22.10838 19.90289 0.01277
C 23.34894 19.1504 0.00096
C 23.3425 17.74425 -0.01527
C 22.13198 17.12566 0.01087
C 22.00545 15.68467 0.00199
C 23.30956 14.90614 0.01511
C 23.2615 13.52654 -0.00478
C 22.02161 12.76436 -0.01662
C 22.11682 11.34161 -0.01185
C 23.33199 10.63712 0.01126
C 23.29589 9.21436 0.01852
C 20.83148 4.99615 -0.00703
C 20.80658 6.44973 0.00654
C 19.63403 7.14609 -0.04422
C 19.64279 8.60396 -0.02957
C 18.42565 0.74978 0.03698
C 17.2493 0.00527 -0.00109
C 19.73035 32.6312 -0.00491
C 20.93097 31.92865 0.03338
C 20.96913 30.52758 -0.0258
C 19.74165 29.80862 -0.0331
C 19.76202 28.38473 -0.00316
C 20.94315 27.56175 0.02188
C 19.84578 25.74564 -0.01979
C 19.81781 24.30483 0.02691
C 20.99847 23.37455 -0.01581
C 22.07056 8.57876 -0.00381
C 20.873 22.0416 0.01452
C 19.60418 19.91702 -0.00111
C 20.8287 19.20396 -0.03557
C 20.92962 17.79495 0.03754
C 19.60149 17.10812 0.01739
C 19.5348 15.6487 0.00755
C 20.842 14.95225 -0.0054
C 20.79772 13.46926 0.00667
C 19.63534 12.78711 0.00143
C 19.60296 11.3521 -0.017
C 20.82347 10.75688 0.00364
C 20.8709 9.37756 -0.00831
C 19.58143 21.27881 0.04892
C 28.23488 13.36661 0.01257
C 22.10754 7.10825 0.03046
C 23.28891 4.95731 0.03374
C 25.79763 4.96714 -0.01199
C 24.56566 4.26303 -0.00229
C 24.55416 2.86153 -0.00938
C 25.80603 2.13581 -0.0264
C 25.80951 0.73425 -0.01154
C 24.53684 34.073 0.00684
C 26.95935 32.64055 -0.01052
C 28.22094 31.93831 -0.01679
C 28.19256 30.53416 0.00367
C 26.91125 29.75048 0.04306
C 26.98276 28.33344 0.00996
C 28.27433 27.76925 0.00195
C 28.15177 26.2761 -0.00802
C 26.7243 25.8992 -0.00218
C 26.79583 24.32052 -0.01654
C 28.09244 23.61309 -0.00037
C 28.09782 22.13972 -0.0032
C 26.99989 21.44657 0.00622
C 27.05199 19.89386 -0.02815
C 28.23518 19.17712 -0.00942
C 28.27314 17.73068 0.00487
C 26.94791 17.09449 0.00826
C 26.99016 15.64398 -0.00294
C 25.83284 6.34124 -0.009
C 24.62503 7.03252 -0.00285
C 24.49354 8.44723 0.01423
C 25.72729 9.25587 0.02555
C 22.01997 4.29824 -0.02845
C 22.07318 2.80128 -0.03213
C 23.3101 2.17909 0.02239
C 23.3175 0.71115 0.01153
C 22.06523 0.0253 0.02734
C 24.53575 32.63771 -0.0055
C 25.7667 31.91158 0.01515
C 25.7543 30.41058 -0.00225
C 24.57336 29.63434 0.00071
C 24.49252 28.19578 -0.01107
C 25.73129 27.46175 -0.01586
C 23.37381 6.36977 0.0296
C 25.63951 23.53494 -0.01971
C 24.52365 21.31252 0.00733
C 24.50811 19.938 -0.00178
C 25.79335 19.22619 0.00768
C 25.77109 17.79403 -0.0276
C 24.49971 17.03354 0.03005
C 24.45983 15.5955 -0.04078
C 25.70207 14.89402 0.02117
C 25.88382 13.4489 0.02737
C 24.60464 12.85542 -0.00498
C 24.47274 11.44649 0.00135
C 25.77361 10.58606 0.03102
C 25.71559 22.07316 -0.02118
C 2.48258 32.67117 -0.0213
