347
Graphene
C 34.43261 34.00156 0.01295
C 11.05082 13.44854 0.0351
C 9.83756 12.8421 -0.03113
C 9.90892 11.46489 0.02098
C 11.06954 10.7256 0.01848
C 11.0208 9.25932 -0.00619
C 9.85772 8.48494 -0.02162
C 9.80606 7.09713 0.00889
C 10.99759 6.28703 -0.00481
C 11.08557 4.92151 0.00979
C 9.81628 4.2226 0.01443
C 9.87417 2.78048 0.03505
C 11.11206 2.12341 -0.02815
C 11.10453 0.70518 -0.04147
C 9.83478 0.05956 -0.05302
C 12.3568 32.64798 0.00213
C 13.49369 31.95453 -0.00066
C 13.50883 30.52392 -0.00289
C 11.17062 14.85155 0.00422
C 9.84224 15.59247 0.00798
C 9.8541 16.95364 0.00228
C 11.05353 17.65677 -0.00114
C 7.37398 2.92938 0.01945
C 8.67956 2.14972 0.01416
C 8.67835 0.7476 0.03542
C 7.32946 0.10192 0.02299
C 9.85216 32.68117 0.00244
C 11.09614 31.99938 -0.01717
C 11.1025 30.56786 0.05265
C 9.89467 29.90276 -0.01952
C 12.28173 29.77674 0.00028
C 9.77321 28.47287 -0.02813
C 11.01286 26.33715 0.00052
C 9.85185 25.66067 -0.03682
C 9.86045 24.19246 0.01965
C 11.00439 23.48822 0.02058
C 11.10983 21.98397 -0.01957
C 9.86037 21.24914 -0.0108
C 9.81242 19.85825 -0.00368
C 11.11145 19.17008 -0.02696
C 11.02848 27.76769 0.00374
C 12.26401 28.40045 -0.02213
C 13.52591 27.63837 0.03698
C 13.45738 26.23797 -0.00109
C 13.52565 2.12711 -0.02957
C 13.56857 0.74116 -0.04422
C 12.36276 0.03798 0.00654
C 14.68484 32.62972 -0.00703
C 15.87993 31.9412 -0.04076
C 15.95181 30.57086 -0.00652
C 14.72649 29.78238 0.0058
C 14.65393 28.30586 -0.00865
C 12.35654 2.77818 -0.00831
C 15.90382 27.65164 0.00675
C 14.73702 25.53778 0.00742
C 14.69963 24.1914 -0.01594
C 15.94786 23.44662 0.0106
C 15.95321 22.07161 -0.01154
C 14.71597 21.3393 -0.01721
C 14.80552 19.92552 -0.02422
C 15.97906 19.19837 0.01277
C 15.94349 17.75267 0.00096
C 15.97188 26.26861 -0.00311
C 7.32287 4.32192 -0.01454
C 12.32462 4.19768 0.00364
C 13.42257 6.41147 0.00143
C 12.23955 25.62614 -0.00491
C 12.22461 24.18239 0.03338
C 13.48663 23.46758 -0.0258
C 13.49784 22.03764 -0.0331
C 12.3599 21.24279 -0.00316
C 12.31615 19.86303 0.02188
C 13.58035 19.18342 -0.01979
C 13.47613 17.73872 0.02691
C 13.51232 4.9875 -0.017
C 12.21921 17.00023 -0.01581
C 13.5007 14.85833 0.04892
C 13.50997 13.46743 -0.00111
C 12.31993 12.72017 -0.03557
C 12.35655 11.33487 0.03754
C 13.55182 10.63046 0.01739
C 13.56404 9.23941 0.00755
C 12.28497 8.53306 -0.0054
C 12.16783 7.08455 0.00667
C 12.30777 15.59064 0.01452
C 14.7187 17.02095 -0.01527
C 8.57394 4.92434 0.01241
C 7.24545 7.04444 0.02162
C 3.68502 4.95541 -0.0008
C 2.46661 4.17835 0.0288
C 2.44377 2.74032 0.00393
C 3.6593 2.12542 0.00895
C 3.67781 0.72166 0.00685
C 2.40099 33.99682 0.02888
C 4.88657 32.80997 -0.00482
C 6.20399 32.0083 -0.01384
C 6.13284 30.59783 0.03693
C 4.89935 29.85811 0.01745
C 4.87347 28.39198 0.00488
C 6.09314 27.63044 -0.01004
C 6.13136 26.27808 -0.02896
C 4.86862 25.61961 -0.00131
C 4.93405 24.17636 -0.01118
C 6.14996 23.44112 -0.014
C 6.13045 21.98545 0.02147
C 3.67899 6.33281 -0.01362
C 2.456 7.14354 -0.00892
C 2.49587 8.49681 -0.04848
C 3.71168 9.21095 0.01572
C 3.64048 30.61319 -0.00966
C 2.46384 29.82869 -0.03337
C 2.40978 28.43434 0.01227
C 3.60374 27.71588 0.00873
C 3.60239 26.28509 -0.00049
C 2.398 25.51705 0.00848
C 2.43922 24.15726 -0.01303
C 3.6875 23.41499 -0.01378
C 4.94127 21.21334 0.00373
C 3.73708 22.01596 0.02635
C 2.40851 19.89232 0.01396
C 3.56008 19.08023 0.01849
C 2.2866 15.81368 -0.01142
C 3.6316 15.23373 -0.00562
C 3.62162 13.65125 -0.00494
C 2.43002 12.79167 0.00054
C 2.42669 11.38761 0.03007
C 3.73003 10.69247 -0.00095
C 2.51189 21.33785 0.0127
C 4.77499 19.82497 -0.00191
C 6.00097 19.11833 0.00438
C 6.13973 17.75059 0.01291
C 8.58376 26.28275 -0.00428
C 7.34245 25.4761 0.03101
C 7.39352 24.16355 -0.01536
C 8.641 23.46749 -0.02689
C 8.6533 22.02177 -0.01046
C 7.41562 21.34959 -0.00891
C 7.34118 19.93333 0.02819
C 8.63089 19.17291 0.00165
C 8.59001 27.72827 -0.02245
C 8.52173 17.67539 -0.02971
C 7.33654 15.66209 -0.01789
C 8.58407 14.9514 0.00444
C 8.57171 13.53245 -0.00925
C 7.44397 12.79329 0.01877
C 7.43493 11.37668 0.01363
C 8.67922 10.68973 -0.02162
C 8.63756 9.17673 0.00415
C 7.38379 8.53505 -0.0014
C 7.28967 17.06584 0.02894
C 8.57273 6.3374 0.0076
C 7.39617 28.43737 0.00985
C 8.64136 30.60128 -0.01111
C 4.95743 15.73723 0.00093
C 6.1229 14.91555 0.00057
C 6.10434 13.51665 -0.01634
C 4.89324 12.77009 -0.00334
C 4.95487 11.32742 0.02339
C 6.19293 10.63991 0.01641
C 6.17231 9.23648 -0.00719
C 4.91141 8.52047 0.01364
C 7.35962 29.78534 -0.01275
C 4.88662 7.12474 -0.01062
C 6.15555 4.98341 0.03589
C 4.87391 4.31165 -0.02759
C 4.87433 2.85871 0.0402
C 6.14167 2.19468 0.00572
C 6.10277 0.8046 0.03592
C 4.9604 0.07148 0.00406
C 7.4102 32.74705 0.00943
C 8.61672 32.02075 0.02841
C 6.10481 6.38184 -0.00033
C 3.68163 32.00922 -0.02929
C 14.70208 15.61816 0.01087
C 16.05422 13.61374 0.01511
C 29.52154 2.89698 0.01428
C 30.72413 2.29969 -0.02142
C 30.64837 0.84843 0.0544
C 29.47879 0.05354 0.00026
C 32.02869 32.74203 0.00682
C 33.1643 31.96483 -0.01779
C 33.15604 30.52832 0.03794
C 31.96857 29.85816 0.01927
C 32.01114 28.4709 0.01574
C 33.18083 27.68812 -0.02383
C 33.16291 26.32826 -0.01429
C 31.95181 25.57695 -0.0136
C 31.93755 24.17478 0.00594
C 33.10062 23.46998 -0.02474
C 33.10923 22.03566 0.00369
C 31.91024 21.36521 0.00455
C 31.88538 19.927 -0.00644
C 30.68749 17.78551 -0.01694
C 30.64384 19.10023 0.01713
C 29.53415 19.93827 0.00346
C 29.45093 21.32648 0.00307
C 28.25238 22.07731 0.01836
C 27.11899 21.25628 0.03531
C 27.1504 19.79343 -0.00669
C 28.32239 19.1565 0.0101
C 28.34759 2.09672 0.01705
C 28.13892 0.81279 -0.0405
C 26.99303 33.99207 -0.01303
C 29.54845 32.66905 -0.01461
C 33.15075 19.15551 -0.01839
C 30.74294 32.05394 -0.02155
C 29.55786 29.77632 -0.03735
C 29.53242 28.36489 -0.00971
C 30.81108 27.69625 0.01518
C 30.73811 26.27881 0.01908
C 29.48786 25.56419 0.07705
C 29.4736 24.14897 0.0103
C 30.69141 23.47289 0.02108
C 30.64716 22.03862 0.00716
C 30.69492 30.58081 -0.00944
C 33.14961 17.81615 0.00137
C 31.80693 16.9746 0.00199
C 32.0636 15.59987 0.04381
C 1.19662 19.05481 -0.01678
C 1.22375 17.65906 0.01223
C 0.02764 16.9884 0.00648
C 34.41656 15.65172 0.02114
C 1.27864 14.93772 -0.02957
C 1.1675 13.41507 0.00343
C 34.20293 12.76187 -0.02656
C 0.0468 11.2836 -0.02442
C 34.38523 19.90981 0.01951
C 1.21539 10.70511 -0.00027
C 0.11923 8.52714 -0.02302
C 34.38037 7.14821 -0.02849
C 1.24546 6.31528 0.02931
C 1.24835 4.93577 0.00628
C 34.42651 4.19959 -0.0345
C 34.39396 2.82162 -0.00931
C 1.22247 2.02459 -0.00939
C 1.21005 0.64166 -0.00468
C 1.27759 9.22421 -0.00583
C 28.24526 23.44582 -0.03039
C 34.40663 21.34741 -0.02213
C 1.25291 23.42971 0.00723
C 33.22352 14.9068 0.02806
C 33.15053 13.57536 0.01504
C 33.34006 6.375 -0.00069
C 33.20286 5.0558 0.04926
C 32.04612 4.20221 -0.03838
C 31.97789 2.91317 0.00349
C 33.24361 2.17376 -0.00323
C 33.26277 0.72012 -0.00841
C 1.32254 22.01599 0.02712
C 31.94501 0.07367 0.0001
C 1.1723 31.92346 -0.01404
C 1.18081 30.5027 0.01027
C 34.38109 29.7742 0.01831
C 34.40202 28.4028 -0.01037
C 1.2795 27.71069 -0.00439
C 1.17746 26.23075 -0.00598
C 34.36687 25.51912 -0.05239
C 34.41386 24.06317 0.03076
C 34.39869 32.65634 -0.02927
C 16.00977 14.9374 0.00199
C 27.02537 24.14057 -0.01415
C 28.23906 26.25163 -0.02049
C 18.51134 23.50985 0.00733
C 18.42684 22.09579 -0.00178
C 17.21533 21.24467 0.00768
C 17.23871 19.7959 -0.0276
C 18.44759 19.17785 0.03005
C 18.43912 17.76138 -0.04078
C 17.18431 17.11672 0.02117
C 17.2222 15.71388 0.02737
C 18.48268 15.17937 -0.00498
C 17.12758 12.71961 0.00135
C 16.97807 11.40532 0.03102
C 17.14853 8.44827 0.02555
C 17.12604 7.15684 0.01423
C 18.44421 4.89846 -0.00285
C 17.30936 4.24404 -0.009
C 17.19276 2.78443 -0.01199
C 18.4385 2.09502 -0.00229
C 17.29454 24.1122 -0.02118
C 17.23103 25.63188 -0.01971
C 18.40311 26.33679 -0.01586
C 18.19982 27.53407 -0.01107
C 14.82344 12.79075 -0.00478
C 14.78678 11.37559 -0.01662
C 16.043 10.60365 -0.01185
C 15.98918 9.18425 0.01126
C 14.7172 8.46908 0.01852
C 14.73482 7.11046 -0.00381
C 16.04803 6.33698 0.03046
C 16.02765 5.0036 0.0296
C 18.44124 0.68251 -0.00938
C 14.75667 4.31297 0.03374
C 15.97207 2.05551 -0.03213
C 15.9844 0.60909 0.02239
C 14.76104 0.02771 0.01153
C 17.22043 32.57127 0.02734
C 18.44821 31.86703 -0.0055
C 18.50363 30.44752 0.01515
C 17.24959 29.7787 -0.00225
C 17.20009 28.39694 0.00071
C 14.81562 2.88885 -0.02845
C 17.24766 34.01659 -0.0264
C 19.72773 32.60103 -0.01154
C 20.99917 31.94581 0.00684
C 22.09521 0.10233 -0.00621
C 24.57622 32.52882 0.02611
C 25.80565 31.91869 0.02198
C 25.8689 30.53042 0.01094
C 24.62161 23.96167 0.00235
C 25.83223 23.4299 0.01495
C 25.83484 21.94727 0.01259
C 24.58168 21.21821 0.01799
C 23.27632 0.78002 0.00194
C 24.62381 19.61722 0.01699
C 25.7935 0.52644 0.01177
C 24.51338 0.314 0.04266
C 27.06093 32.542 0.01324
C 28.28341 31.83884 0.0014
C 28.34291 30.40276 0.00924
C 26.90983 29.67295 0.02326
C 27.18578 28.33569 0.00261
C 28.34709 27.67841 0.03265
C 25.89176 19.23371 -0.00416
C 27.02914 25.62138 -0.01854
C 23.34272 19.23392 0.04185
C 22.08806 21.30375 0.01257
C 20.93437 30.57337 -0.01052
C 19.81656 30.01767 -0.01679
C 19.79442 24.05825 0.00367
C 20.7873 23.4703 0.04306
C 20.94975 22.01951 0.00996
C 19.60754 21.37376 0.00195
C 19.67192 19.88498 -0.00802
C 20.9129 19.21267 -0.00218
C 22.1267 19.85662 0.02316
C 20.71867 17.88634 -0.01654
C 19.63638 2.75142 -0.0032
C 20.82939 2.22896 0.00622
C 20.94452 0.80377 -0.02815
C 19.7005 0.05987 -0.00942
C 22.15262 32.66789 0.00487
C 23.28931 32.01225 0.00826
C 23.53096 23.27034 -0.00294
C 23.4136 21.95355 0.00152
C 19.6144 17.09517 -0.00037
C 2.40359 32.58479 0.03368
