418
Graphene
C 34.35978 33.98316 0.01295
C 14.63659 29.9743 0.02841
C 14.68213 28.3902 -0.01111
C 15.86987 27.6787 -0.01275
C 15.8517 26.30865 0.00985
C 14.68174 25.56155 -0.02245
C 14.75791 24.20529 -0.00428
C 16.03446 23.53359 0.03101
C 16.01751 22.0735 -0.01536
C 14.7487 21.41993 -0.02689
C 14.74605 19.91436 -0.01046
C 15.82266 30.62724 0.00943
C 15.90066 19.19129 -0.00891
C 14.73681 17.0082 0.00165
C 14.82639 15.55676 -0.02971
C 16.05509 14.82129 0.02894
C 15.92655 13.484 -0.01789
C 14.72945 12.81489 0.00444
C 14.83719 11.34605 -0.00925
C 15.99849 10.65522 0.01877
C 15.92424 9.18898 0.01363
C 14.69194 8.44085 -0.02162
C 14.75616 7.12346 0.00415
C 16.00157 17.68936 0.02819
C 16.05184 6.34084 -0.0014
C 15.90731 32.02209 0.00406
C 12.26463 0.09641 0.00572
C 13.55587 23.52462 -0.02896
C 13.5954 22.1375 -0.00131
C 12.24561 21.57324 -0.01118
C 12.08739 20.1989 -0.014
C 13.39071 19.36618 0.02147
C 13.44364 17.83662 0.00373
C 12.20054 17.11549 -0.00191
C 12.25884 15.60672 0.00438
C 13.61141 14.92937 0.01291
C 13.5345 13.52985 0.00093
C 14.70995 32.77305 0.03592
C 12.23602 12.80637 0.00057
C 13.47627 10.67516 -0.00334
C 13.50579 9.18954 0.02339
C 12.19942 8.63591 0.01641
C 12.21362 7.23388 -0.00719
C 13.43383 6.49768 0.01364
C 13.36735 5.06861 -0.01062
C 12.22246 4.28729 -0.00033
C 12.25416 2.88896 0.03589
C 13.51998 2.16147 -0.02759
C 13.50867 0.81364 0.0402
C 12.23438 11.41294 -0.01634
C 12.23005 23.98053 -0.01004
C 15.9112 4.96495 0.02162
C 14.71321 2.96047 0.01241
C 17.2098 8.49966 0.01848
C 17.24962 7.04942 -0.00619
C 18.47188 6.35002 -0.02162
C 18.41189 4.88052 0.00889
C 17.20649 4.32631 -0.00481
C 17.18123 2.91574 0.00979
C 18.43387 2.22566 0.01443
C 18.34314 0.84067 0.03505
C 17.18901 0.06628 -0.02815
C 19.68425 32.74166 -0.04147
C 18.47771 9.28367 0.02098
C 20.87491 32.00587 -0.05302
C 19.64236 29.81371 -0.00066
C 19.63476 28.38476 -0.00289
C 20.80311 27.65964 0.00028
C 20.81303 26.26286 -0.02213
C 19.52438 25.60241 0.03698
C 19.65447 24.16413 -0.00109
C 20.85994 23.43644 -0.00491
C 20.87596 22.0404 0.03338
C 19.69029 21.32661 -0.0258
C 19.64507 19.90053 -0.0331
C 20.83286 30.57958 0.00213
C 14.6699 4.32088 0.0076
C 18.4819 10.64858 -0.03113
C 17.18744 12.72895 0.00422
C 15.95337 2.26323 -0.01454
C 15.90804 0.8199 0.01945
C 14.75193 0.13831 0.01416
C 17.17433 32.72076 0.03542
C 18.42025 32.00777 0.02299
C 18.32279 30.55439 0.00244
C 17.06 29.89279 -0.01717
C 17.06874 28.42996 0.05265
C 18.2971 27.71867 -0.01952
C 18.2792 26.31303 -0.02813
C 17.30227 11.35395 0.0351
C 17.11409 25.66559 0.00374
C 18.3789 23.41766 -0.03682
C 18.46176 21.96303 0.01965
C 17.20301 21.27991 0.02058
C 17.1505 19.85519 -0.01957
C 18.45775 19.0552 -0.0108
C 18.42401 17.62538 -0.00368
C 17.23141 16.92249 -0.02696
C 17.26706 15.54454 -0.00114
C 18.48258 14.79714 0.00228
C 18.46424 13.44473 0.00798
C 17.1981 24.20608 0.00052
C 12.2311 25.41824 0.00488
C 13.49177 26.24495 0.01745
C 13.42327 27.67616 0.03693
C 4.9143 29.83845 0.01707
C 4.91811 28.3936 0.02769
C 6.11346 27.69677 -0.03291
C 4.80153 15.81168 -0.04999
C 6.12242 15.21849 0.04505
C 6.09856 13.79615 0.03284
C 4.94195 12.90773 -0.04307
C 4.95196 11.53462 0.03189
C 6.12691 10.75945 0.00031
C 6.04303 9.35165 -0.003
C 6.05676 30.69472 0.00208
C 4.86851 8.59978 0.01402
C 6.07502 6.44065 0.00907
C 6.00142 5.05891 0.00643
C 4.84638 4.27527 -0.01509
C 4.88777 2.84806 0.03267
C 6.10711 2.07981 0.02374
C 6.05856 0.67662 0.00402
C 4.79792 34.02408 0.0073
C 7.29473 32.68711 0.0174
C 8.57509 32.02816 0.03828
C 8.65493 30.54564 0.01226
C 4.79667 7.20627 0.02379
C 7.41321 29.887 -0.00279
C 6.0274 32.01058 -0.00561
C 2.35942 34.07842 0.02784
C 3.67595 30.49835 -0.0154
C 2.44837 29.74409 -0.01299
C 2.39007 28.42372 -0.00407
C 3.60344 27.64584 0.01138
C 3.68313 26.30365 0.03278
C 2.472 25.47459 -0.00177
C 2.54143 17.00357 0.04421
C 2.35126 15.64687 0.00088
C 3.66428 15.04109 0.00828
C 3.64349 13.54926 -0.02375
C 4.83584 32.65808 -0.01977
C 2.44199 12.74226 0.00558
C 3.70018 10.67427 -0.01386
C 3.70061 9.26553 -0.02805
C 2.38675 8.55779 0.00081
C 2.28052 7.14977 0.00245
C 3.56695 6.39787 0.02728
C 3.60728 5.00046 -0.00039
C 2.37383 4.19377 0.0064
C 2.39864 2.77422 0.00211
C 3.61092 2.18474 -0.00449
C 3.57507 0.69042 -0.01979
C 2.4485 11.35841 -0.0059
C 7.33828 28.41656 0.01996
C 8.49158 27.77397 -0.03996
C 8.62048 26.30932 0.01465
C 9.81256 17.02999 0.02635
C 9.88477 15.67967 0.0127
C 11.06794 14.91923 0.01396
C 11.08597 13.46872 0.01849
C 9.8411 12.79034 -0.01142
C 9.82211 11.48627 -0.00562
C 10.99208 10.70802 -0.00494
C 10.95083 9.34563 0.00054
C 9.70751 8.55946 0.03007
C 9.72861 7.13094 -0.00095
C 10.91642 17.83568 -0.01378
C 10.97307 6.40255 0.01572
C 9.69649 4.34948 -0.00892
C 9.71686 2.93539 -0.01362
C 11.04508 2.21918 -0.0008
C 11.01341 0.81265 0.0288
C 9.78273 0.19001 0.00393
C 12.20446 32.7842 0.00895
C 13.45205 32.07808 0.00685
C 13.45815 30.6253 0.02888
C 12.24653 29.89303 -0.00482
C 12.32224 28.42924 -0.01384
C 10.99064 5.02941 -0.04848
C 11.14475 19.27469 -0.01303
C 11.55796 22.7144 0.00848
C 9.77673 25.6792 -0.00049
C 7.5206 15.81927 -0.00074
C 8.60029 15.0073 -0.00518
C 8.57919 13.58004 0.0086
C 7.29034 12.97252 -0.00643
C 7.35225 11.51159 0.017
C 8.53979 10.81717 -0.03113
C 8.45713 9.32626 -0.02566
C 7.24663 8.63566 -0.00094
C 7.29869 7.16813 0.02322
C 8.52012 6.47066 -0.00725
C 8.41392 4.92605 -0.05697
C 7.30096 4.31398 0.01087
C 7.29641 2.89075 -0.01343
C 8.55647 2.23738 0.00988
C 8.55755 0.76277 0.0276
C 7.32674 34.06513 0.01305
C 9.79843 32.83361 -0.00077
C 10.99191 32.0531 0.03368
C 11.04247 30.65881 -0.02929
C 9.85383 29.84714 -0.00966
C 9.84731 28.41049 -0.03337
C 11.08525 27.69874 0.01227
C 10.92652 26.23531 0.00873
C 20.92463 19.13732 -0.00316
C 20.8652 17.69354 0.02188
C 19.71942 16.95619 -0.01979
C 19.72604 15.55158 0.02691
C 29.58221 11.35193 -0.02155
C 30.75823 10.59463 -0.00944
C 30.82788 9.21714 -0.03735
C 29.61419 8.54318 -0.00971
C 29.50429 7.126 0.01518
C 30.74358 6.42354 0.01908
C 30.71365 5.0132 0.07705
C 29.50756 4.27403 0.0103
C 29.47343 2.90142 0.02108
C 30.6616 2.16444 0.00716
C 29.50782 12.71932 -0.01461
C 30.59102 0.70638 0.00307
C 31.94402 32.60775 0.01713
C 33.1819 31.85295 -0.01694
C 33.21998 30.46967 0.01428
C 31.96289 29.76659 -0.02142
C 31.97048 28.34873 0.0544
C 33.2059 27.61154 0.00026
C 33.11534 26.22787 0.00682
C 31.96893 25.50775 -0.01779
C 31.89803 24.05169 0.03794
C 33.18715 23.3387 0.01927
C 29.42981 34.02625 0.00346
C 33.05084 21.9013 0.01574
C 30.68728 13.48443 -0.01303
C 29.4486 15.59675 0.01705
C 28.28732 4.90706 0.00235
C 27.02389 4.25834 0.01495
C 26.99462 2.82158 0.01259
C 28.26092 2.13443 0.01799
C 28.16454 0.64399 0.01699
C 27.01172 34.04614 -0.00416
C 29.52911 32.62388 0.01177
C 30.70612 31.89948 0.04266
C 30.68738 30.50272 0.01324
C 29.51391 29.82615 0.0014
C 30.67606 14.94318 -0.0405
C 29.49793 28.34064 0.00924
C 30.7853 26.25671 0.00261
C 29.51167 25.47504 0.03265
C 29.50308 24.1275 -0.02049
C 30.73059 23.30461 -0.01854
C 30.70546 21.91116 -0.01415
C 29.40305 21.25706 -0.03039
C 29.4581 19.88585 0.01836
C 30.64481 19.13017 0.03531
C 30.67442 17.7223 -0.00669
C 29.48495 16.95929 0.0101
C 30.72956 27.70747 0.02326
C 31.88706 21.23394 -0.02383
C 31.83748 19.81775 -0.01429
C 33.11957 19.04938 -0.0136
C 1.17051 23.31843 0.00723
C 1.10568 21.91778 0.02712
C 34.32624 21.25293 -0.02213
C 34.37853 19.81843 0.01951
C 1.15302 19.20546 -0.01678
C 1.29238 17.79303 0.01223
C 0.01422 16.97008 0.00648
C 34.36965 15.60678 0.02114
C 1.09356 14.82912 -0.02957
C 1.19777 13.45225 0.00343
C 34.42668 24.0432 0.03076
C 34.37258 12.78364 -0.02656
C 1.19225 10.66573 -0.00027
C 1.18617 9.25625 -0.00583
C 0.03175 8.48621 -0.02302
C 34.41667 7.0682 -0.02849
C 1.17115 6.37362 0.02931
C 1.20297 4.9082 0.00628
C 34.41095 4.2007 -0.0345
C 34.43042 2.72686 -0.00931
C 1.2268 2.06355 -0.00939
C 1.08453 0.69262 -0.00468
C 34.337 11.38484 -0.02442
C 34.40483 25.54563 -0.05239
C 1.28457 26.24826 -0.00598
C 1.16338 27.66992 -0.00439
C 33.23616 17.65208 0.00594
C 31.99789 16.99517 -0.02474
C 31.91033 15.66813 0.00369
C 33.16129 14.96377 0.00455
C 33.14407 13.53194 -0.00644
C 31.96649 12.7958 -0.01839
C 31.91642 11.39895 0.00137
C 33.19364 10.63389 0.00199
C 33.27585 9.20706 0.04381
C 31.99613 8.49865 0.02806
C 31.9341 7.1234 0.01504
C 33.21472 6.39369 -0.00069
C 33.27312 5.00777 0.04926
C 32.00692 4.2987 -0.03838
C 31.96334 2.92616 0.00349
C 33.20887 2.06423 -0.00323
C 33.12363 0.68032 -0.00841
C 31.91597 34.0049 0.0001
C 0.07779 32.51977 -0.02927
C 1.31593 31.88718 -0.01404
C 1.24365 30.41218 0.01027
C 34.41917 29.71231 0.01831
C 34.3691 28.34881 -0.01037
C 28.26624 6.41858 0.01094
C 3.70416 31.8977 0.00662
C 27.07454 7.05216 0.02198
C 28.35201 9.25362 -0.00621
C 22.07421 21.37833 0.0106
C 22.11139 19.8453 -0.01154
C 23.30851 19.19252 -0.01721
C 23.30071 17.72568 -0.02422
C 22.14506 17.00041 0.01277
C 22.10487 15.58376 0.00096
C 23.31912 14.88218 -0.01527
C 23.2757 13.4515 0.01087
C 22.08631 12.69817 0.00199
C 22.20636 11.31541 0.01511
C 23.28541 22.01997 -0.01594
C 23.39723 10.65535 -0.00478
C 22.07975 8.55262 -0.01185
C 22.1596 7.12228 0.01126
C 23.41253 6.37892 0.01852
C 23.39462 5.06435 -0.00381
C 22.18342 4.26926 0.03046
C 22.13559 2.84016 0.0296
C 23.34663 2.11503 0.03374
C 23.36023 0.71995 -0.02845
C 22.09039 34.02142 -0.03213
C 24.56703 32.67986 0.02239
C 23.36062 9.28947 -0.01662
C 25.71835 31.96774 0.01153
C 23.26012 23.39587 0.00742
C 22.02635 25.55257 0.00675
C 20.91988 14.83978 -0.01581
C 20.88579 13.45684 0.01452
C 19.66285 12.74118 0.04892
C 19.72593 11.31806 -0.00111
C 20.88226 10.55283 -0.03557
C 20.91266 9.2233 0.03754
C 19.57352 8.5055 0.01739
C 19.69638 7.11186 0.00755
C 20.89401 6.41307 -0.0054
C 20.89719 4.97255 0.00667
C 22.0855 24.07383 -0.00311
C 19.76023 4.25741 0.00143
C 20.93498 2.15354 0.00364
C 20.91546 0.73519 -0.00831
C 19.61418 0.14278 -0.02957
C 22.16311 32.62122 -0.04422
C 23.31735 31.93801 0.00654
C 23.3238 30.53228 -0.00703
C 22.04607 29.87012 -0.04076
C 22.00406 28.38091 -0.00652
C 23.32447 27.72806 0.0058
C 23.36068 26.30159 -0.00865
C 19.68066 2.88219 -0.017
C 25.73884 30.60806 0.02734
C 24.53886 29.86101 -0.0055
C 24.60937 28.46218 0.01515
C 26.98367 32.71763 -0.01052
C 28.20478 31.97736 -0.01679
C 28.22253 30.57007 0.00367
C 27.00398 29.84032 0.04306
C 26.99725 28.44726 0.00996
C 28.25551 27.66442 0.00195
C 28.22786 26.20719 -0.00802
C 26.90096 25.56994 -0.00218
C 26.97407 24.15282 -0.01654
C 28.17718 23.42505 -0.00037
C 24.59338 0.05457 0.00684
C 28.21271 21.99022 -0.0032
C 27.04959 19.81737 -0.02815
C 28.22683 19.10032 -0.00942
C 28.25716 17.68357 0.00487
C 26.99723 17.0109 0.00826
C 27.06323 15.5947 -0.00294
C 28.28732 14.83332 0.00152
C 28.29349 13.40396 0.01257
C 27.06614 12.70346 0.02316
C 27.07696 11.22531 0.04185
C 28.30012 10.58482 0.00194
C 27.0333 21.27255 0.00622
C 25.77242 0.77326 -0.01154
C 25.77392 2.17749 -0.0264
C 24.53925 2.87748 -0.00938
C 25.81642 27.71185 -0.00225
C 25.76612 26.30485 0.00071
C 24.52197 25.56139 -0.01107
C 24.5494 24.08756 -0.01586
C 25.78831 23.41971 -0.01971
C 25.80193 21.94334 -0.02118
C 24.56149 21.26731 0.00733
C 24.6173 19.88868 -0.00178
C 25.86752 19.18803 0.00768
C 25.73047 17.74816 -0.0276
C 24.59055 17.00175 0.03005
C 24.60262 15.5534 -0.04078
C 25.80627 14.89186 0.02117
C 25.88798 13.43192 0.02737
C 24.56084 12.72666 -0.00498
C 24.63376 11.36623 0.00135
C 25.84879 10.67122 0.03102
C 25.87434 9.23667 0.02555
C 24.59542 8.52972 0.01423
C 24.6813 7.1804 -0.00285
C 25.81993 6.40298 -0.009
C 25.83511 4.95535 -0.01199
C 24.60046 4.32014 -0.00229
C 27.10923 8.48777 0.02611
C 2.51309 32.62921 0.00748
