398
Graphene
C 34.38875 0.00454 0.01295
C 14.81685 29.82516 0.02894
C 14.78902 28.47174 -0.01789
C 16.02693 27.67623 0.00444
C 16.08647 26.26596 -0.00925
C 14.72954 25.79633 0.01877
C 16.0943 14.87359 0.01363
C 15.88038 13.432 -0.02162
C 14.71436 12.81951 0.00415
C 14.70887 11.38 -0.0014
C 15.99054 30.5881 -0.02971
C 16.0085 10.66201 0.02162
C 14.77135 8.49074 0.01241
C 14.73435 7.0694 -0.01454
C 15.98815 6.3172 0.01945
C 16.04339 4.94454 0.01416
C 14.77953 4.20566 0.03542
C 14.80525 2.78523 0.02299
C 16.05504 2.19406 0.00244
C 16.017 0.76914 -0.01717
C 14.7721 34.03128 0.05265
C 16.01298 9.20036 0.0076
C 16.01001 31.95169 0.00165
C 14.75258 32.65437 0.02819
C 12.2483 0.03506 -0.00891
C 9.79801 0.05808 -0.00719
C 12.29571 32.70687 0.01364
C 13.51232 32.02222 -0.01062
C 13.5135 30.59148 -0.00033
C 12.2682 29.92377 0.03589
C 12.25375 28.51852 -0.02759
C 13.53304 27.88433 0.0402
C 13.57902 26.43841 0.00572
C 13.38946 13.30441 0.03592
C 12.33615 12.81813 0.00406
C 12.26295 11.32552 0.00943
C 13.52517 10.69361 0.02841
C 13.49614 9.22845 -0.01111
C 12.31485 8.50571 -0.01275
C 12.3099 7.04847 0.00985
C 13.51301 6.38149 -0.02245
C 13.54371 4.95672 -0.00428
C 12.24213 4.33387 0.03101
C 12.23806 2.90808 -0.01536
C 13.48379 2.14469 -0.02689
C 13.55574 0.7127 -0.01046
C 17.25087 32.64537 -0.01952
C 18.46565 31.96102 -0.02813
C 18.4906 30.50545 0.00374
C 17.20453 29.79703 0.00052
C 19.70838 32.65283 0.00213
C 20.89462 32.00085 -0.00066
C 20.8479 30.55139 -0.00289
C 19.68739 29.85487 0.00028
C 19.65361 28.45132 -0.02213
C 20.90108 27.77001 0.03698
C 20.93072 26.3289 -0.00109
C 19.71535 25.51718 -0.00491
C 19.65611 24.10096 0.03338
C 20.92797 23.42923 -0.0258
C 20.91835 21.94815 -0.0331
C 19.68101 21.30944 -0.00316
C 19.60168 19.892 0.02188
C 20.82141 19.14601 -0.01979
C 20.75031 17.78144 0.02691
C 19.51124 17.0182 -0.01581
C 19.61065 15.60803 0.01452
C 20.78609 14.90985 0.04892
C 20.79445 13.52816 -0.00111
C 19.52739 12.77689 -0.03557
C 19.59976 11.37842 0.03754
C 17.1989 0.02072 -0.05302
C 11.01151 0.77045 0.01641
C 18.48927 0.7769 -0.04147
C 17.30996 2.82338 0.03505
C 17.26734 28.4128 -0.03682
C 18.43646 27.67509 0.01965
C 18.5222 26.2275 0.02058
C 17.27429 25.57333 -0.01957
C 17.20011 24.19507 -0.0108
C 18.37717 23.33875 -0.00368
C 18.54182 21.92223 -0.02696
C 18.38206 19.07908 -0.00114
C 18.36211 17.85148 0.00228
C 17.06547 15.49633 0.00798
C 18.35688 14.98719 0.00422
C 18.28974 13.51359 0.0351
C 17.06991 12.81667 -0.03113
C 17.10482 11.3889 0.02098
C 18.40012 10.64197 0.01848
C 18.47657 9.25421 -0.00619
C 17.31539 8.4843 -0.02162
C 17.19488 7.06515 0.00889
C 18.44739 6.36886 -0.00481
C 18.48185 4.94614 0.00979
C 17.31678 4.21733 0.01443
C 18.50913 2.12194 -0.02815
C 11.00873 2.23708 0.02339
C 9.82618 2.91749 -0.00334
C 9.71968 4.322 -0.01634
C 2.35652 4.32514 0.0174
C 2.3879 2.89827 0.03828
C 3.64357 2.14279 0.01226
C 3.65111 0.72696 -0.00279
C 2.42154 0.04455 0.01996
C 4.92817 32.6945 -0.03996
C 6.16373 31.96377 0.01465
C 6.12034 30.60917 -0.00074
C 4.86041 29.91406 -0.00518
C 4.97291 28.46794 0.0086
C 6.06681 27.71344 -0.00643
C 6.01489 26.32419 0.017
C 4.80579 25.56643 -0.03113
C 4.90658 24.19712 -0.02566
C 6.19056 23.64086 -0.00094
C 4.89116 21.20829 0.02322
C 4.96276 19.96151 -0.00725
C 4.65135 16.98148 -0.05697
C 5.06204 15.68312 0.01087
C 6.16547 14.86271 -0.01343
C 6.03773 13.44121 0.00988
C 3.66912 5.06264 0.0073
C 4.86843 12.78845 0.0276
C 3.61433 6.44201 0.00402
C 2.33759 8.56636 0.03267
C 3.67034 30.62735 -0.00449
C 2.44111 29.85314 -0.01979
C 2.49215 28.4526 0.02784
C 3.59697 27.70827 -0.01977
C 3.58879 26.31669 -0.00561
C 2.41737 25.45853 0.00208
C 2.4267 24.02968 0.01707
C 3.71066 23.50553 0.02769
C 3.7251 21.9777 -0.03291
C 2.46961 21.216 -0.04999
C 2.39448 19.79772 0.04505
C 3.67467 19.10352 0.03284
C 3.53639 17.71936 -0.04307
C 2.26771 17.05258 0.03189
C 2.49426 15.65153 0.00031
C 3.74712 14.95383 -0.003
C 3.66504 13.44789 0.01402
C 2.41438 12.77746 0.02379
C 2.39343 11.36816 0.00907
C 3.62858 10.67784 0.00643
C 3.6301 9.23016 -0.01509
C 2.38952 7.1638 0.02374
C 20.84505 10.69143 0.01739
C 4.90415 11.29215 0.01305
C 6.15177 9.24485 0.03368
C 8.52506 5.04647 0.00393
C 7.28948 4.33048 0.00895
C 7.26112 2.92708 0.00685
C 8.58701 2.21494 0.02888
C 8.53361 0.81386 -0.00482
C 7.35426 0.05739 -0.01384
C 9.8395 32.69778 0.03693
C 11.05324 31.98254 0.01745
C 11.10209 30.62322 0.00488
C 9.87579 29.79507 -0.01004
C 9.82745 28.40092 -0.02896
C 11.09131 27.75705 -0.00131
C 11.0979 26.25374 -0.01118
C 9.71428 12.86595 -0.014
C 9.89632 11.35802 0.02147
C 11.08436 10.65808 0.00373
C 11.06229 9.26197 -0.00191
C 9.82597 8.58853 0.00438
C 9.7839 7.18166 0.01291
C 11.08265 6.43932 0.00093
C 10.97776 5.00706 0.00057
C 8.57246 6.42797 0.0288
C 6.17207 10.69105 -0.00077
C 7.36506 7.17385 -0.0008
C 8.62626 9.35824 -0.00892
C 4.90096 8.55581 -0.02929
C 4.83415 7.15294 -0.00966
C 6.07567 6.40572 -0.03337
C 6.05742 4.99624 0.01227
C 4.90749 4.30158 0.00873
C 4.85053 2.83124 -0.00049
C 6.03178 2.15266 0.00848
C 6.11515 0.76094 -0.01303
C 4.92586 34.06739 -0.01378
C 7.38156 32.80761 0.02635
C 8.62258 31.97828 0.0127
C 8.6977 30.55451 0.01396
C 7.37803 29.8695 0.01849
C 7.34713 28.42041 -0.01142
C 8.53403 27.74438 -0.00562
C 8.28272 26.31964 -0.00494
C 7.21988 25.57839 0.00054
C 8.59576 13.31984 0.03007
C 7.29233 12.71328 -0.00095
C 7.33285 11.33927 0.01572
C 8.60386 10.78297 -0.04848
C 7.38545 8.60938 -0.01362
C 20.83716 9.22795 0.00755
C 19.69482 8.52174 -0.0054
C 19.721 7.0955 0.00667
C 30.77027 9.27581 0.01518
C 29.47257 8.55402 0.01908
C 29.52428 7.13293 0.07705
C 30.74669 6.37183 0.0103
C 30.77079 4.95425 0.02108
C 29.50464 4.29928 0.00716
C 29.49825 2.83996 0.00307
C 30.72821 2.1131 0.00346
C 30.74403 0.67532 0.01713
C 29.51134 34.04104 -0.01694
C 32.00929 32.61081 0.01428
C 33.26003 31.94687 -0.02142
C 33.26273 30.51514 0.0544
C 31.98046 29.79479 0.00026
C 31.96449 28.36614 0.00682
C 33.21476 27.65037 -0.01779
C 33.19471 26.24506 0.03794
C 31.89508 25.56012 0.01927
C 31.88716 24.15889 0.01574
C 33.15564 23.39635 -0.02383
C 33.17305 22.07703 -0.01429
C 30.79536 10.62059 -0.00971
C 31.92878 21.35017 -0.0136
C 29.47806 11.42325 -0.03735
C 30.70373 13.52434 -0.02155
C 28.32173 2.10221 -0.00416
C 28.30908 0.68327 0.01177
C 27.08354 34.07064 0.04266
C 29.48478 32.61279 0.01324
C 30.68838 31.95416 0.0014
C 30.74361 30.49927 0.00924
C 29.51024 29.77306 0.02326
C 29.49239 28.4513 0.00261
C 30.6899 27.68686 0.03265
C 30.65726 26.2767 -0.02049
C 29.50645 25.54728 -0.01854
C 29.42314 24.19064 -0.01415
C 30.65719 23.42144 -0.03039
C 30.69216 22.04271 0.01836
C 29.44813 21.29167 0.03531
C 29.55762 19.92003 -0.00669
C 30.833 19.22046 0.0101
C 30.89097 17.75693 0.01705
C 29.60899 17.04429 -0.0405
C 29.5069 15.64475 -0.01303
C 30.67958 14.92198 -0.01461
C 29.47741 12.7974 -0.00944
C 27.17495 2.86171 0.01699
C 32.0833 19.99736 0.00594
C 31.92556 15.60805 0.00369
C 1.2098 21.96372 0.02712
C 34.41682 21.31571 -0.02213
C 34.25989 19.93686 0.01951
C 1.03409 19.10616 -0.01678
C 0.94224 17.69115 0.01223
C 34.07641 16.98612 0.00648
C 34.3308 15.59986 0.02114
C 1.22186 14.98026 -0.02957
C 1.17229 13.4748 0.00343
C 34.35327 12.76134 -0.02656
C 34.37104 11.35135 -0.02442
C 1.14823 10.67381 -0.00027
C 1.19152 9.26241 -0.00583
C 34.41643 8.53249 -0.02302
C 34.41635 7.08644 -0.02849
C 1.16871 6.44837 0.02931
C 1.14782 5.04116 0.00628
C 34.37914 4.30813 -0.0345
C 34.39014 2.92914 -0.00931
C 1.21197 2.14688 -0.00939
C 1.17475 0.70051 -0.00468
C 1.20881 23.36692 0.00723
C 32.19821 17.00589 -0.02474
C 34.39812 24.03566 0.03076
C 1.25085 26.20677 -0.00598
C 33.16554 14.87721 0.00455
C 33.15913 13.48199 -0.00644
C 31.9325 12.81313 -0.01839
C 31.98044 11.34168 0.00137
C 33.18613 10.6494 0.00199
C 33.20337 9.24205 0.04381
C 32.01412 8.53475 0.02806
C 31.96105 7.1348 0.01504
C 33.20354 6.39668 -0.00069
C 33.20858 4.98555 0.04926
C 32.01161 4.2022 -0.03838
C 31.92535 2.86497 0.00349
C 33.17858 2.16613 -0.00323
C 33.19213 0.69919 -0.00841
C 32.01933 34.078 0.0001
C 0.0357 32.66291 -0.02927
C 1.24583 31.93813 -0.01404
C 1.25993 30.50254 0.01027
C 0.00075 29.81377 0.01831
C 0.01698 28.42114 -0.01037
C 1.19366 27.67293 -0.00439
C 34.37167 25.46504 -0.05239
C 3.68674 31.99419 0.00211
C 27.04437 4.2355 0.01799
C 28.27202 6.39483 0.01495
C 23.27997 13.4651 0.01511
C 22.05914 12.85121 -0.00478
C 22.02765 11.39161 -0.01662
C 23.30893 10.70391 -0.01185
C 23.39267 9.21759 0.01126
C 22.09195 8.55784 0.01852
C 22.11825 7.14844 -0.00381
C 23.38804 6.38912 0.03046
C 23.48105 4.99072 0.0296
C 22.21713 4.24016 0.03374
C 22.23187 2.78711 -0.02845
C 23.41845 2.04799 -0.03213
C 23.41217 0.73032 0.02239
C 22.16662 34.07494 0.01153
C 24.61628 32.56642 0.02734
C 25.8224 31.86866 -0.0055
C 25.79627 30.46872 0.01515
C 24.52342 29.78728 -0.00225
C 24.54512 28.41442 0.00071
C 25.76921 27.69628 -0.01107
C 25.82726 26.25242 -0.01586
C 23.21967 14.85131 0.00199
C 24.53792 25.5687 -0.01971
C 22.03655 15.63478 0.01087
C 23.34465 17.70199 0.00096
C 20.97444 6.39614 0.00143
C 20.94954 4.93412 -0.017
C 19.71743 4.24195 0.00364
C 19.76499 2.81511 -0.00831
C 20.97737 2.15071 -0.02957
C 20.98656 0.69967 -0.04422
C 19.71643 0.07427 0.00654
C 22.18088 32.59764 -0.00703
C 23.3986 31.91821 -0.04076
C 23.35296 30.50029 -0.00652
C 22.09949 29.86747 0.0058
C 22.13331 28.46231 -0.00865
C 23.33444 27.66912 0.00675
C 23.33108 26.30301 -0.00311
C 22.08701 25.60715 0.00742
C 22.16262 24.1164 -0.01594
C 23.36279 23.42803 0.0106
C 23.32539 22.01519 -0.01154
C 22.12322 21.28568 -0.01721
C 22.04222 19.85809 -0.02422
C 23.35721 19.14702 0.01277
C 22.04493 17.09384 -0.01527
C 28.28552 4.98027 0.01259
C 24.53543 24.13922 -0.02118
C 25.7833 21.98 -0.00178
C 27.13108 28.35654 -0.00802
C 28.31117 27.66262 -0.00218
C 28.25058 26.21935 -0.01654
C 27.04571 25.51081 -0.00037
C 27.01284 24.16049 -0.0032
C 28.23316 23.46262 0.00622
C 28.21416 22.04511 -0.02815
C 27.07842 21.33443 -0.00942
C 27.01935 19.90232 0.00487
C 28.2792 19.17428 0.00826
C 28.2938 17.77254 -0.00294
C 27.04231 16.98166 0.00152
C 27.03423 15.57109 0.01257
C 28.24655 14.92001 0.02316
C 28.22686 13.47283 0.04185
C 26.97571 12.78982 0.00194
C 27.04522 11.35164 -0.00621
C 28.27027 10.58813 0.02611
C 28.24918 9.22518 0.02198
C 27.03119 8.50681 0.01094
C 27.09187 7.11058 0.00235
C 27.07474 29.74856 0.00195
C 25.81367 23.48071 0.00733
C 28.28132 30.46748 0.00996
C 27.11807 32.63934 0.00367
C 24.55076 21.29621 0.00768
C 24.5662 19.87723 -0.0276
C 25.78857 19.19061 0.03005
C 25.77712 17.67322 -0.04078
C 24.58409 17.00176 0.02117
C 24.5169 15.53616 0.02737
C 25.79534 14.85615 -0.00498
C 25.69753 13.43468 0.00135
C 24.5159 12.73568 0.03102
C 24.55242 11.33902 0.02555
C 25.81706 10.65648 0.01423
C 25.80344 9.1952 -0.00285
C 24.56069 8.48705 -0.009
C 24.63523 7.05359 -0.01199
C 25.81763 6.45766 -0.00229
C 25.87786 5.01653 -0.00938
C 24.6542 4.19174 -0.0264
C 24.67521 2.78568 -0.01154
C 25.95268 2.16626 0.00684
C 25.82562 0.71909 -0.01052
C 24.68809 0.01326 -0.01679
C 28.29335 31.88856 0.04306
C 2.4567 32.69339 0.0064
