369
Graphene
C 0.03496 0.0955 0.01295
C 13.51206 30.54217 -0.01952
C 12.30101 29.78009 -0.02813
C 12.27587 28.37513 0.00374
C 13.5768 27.71323 0.00052
C 13.35416 26.28829 -0.03682
C 12.36029 25.69109 0.01965
C 12.39458 12.67244 0.02058
C 12.22794 11.30722 -0.01957
C 13.40596 10.5536 -0.0108
C 13.46391 9.17953 -0.00368
C 12.25004 8.48707 -0.02696
C 12.25529 7.03204 -0.00114
C 13.50757 6.27854 0.00228
C 13.53536 4.92831 0.00798
C 12.30976 4.21059 0.00422
C 12.22682 2.78364 0.0351
C 13.46276 2.05783 -0.03113
C 13.48136 0.62802 0.02098
C 12.28776 0.02578 0.01848
C 13.43265 31.95355 0.05265
C 14.75125 32.61118 -0.00619
C 12.23293 32.66378 -0.01717
C 10.96069 0.676 0.02299
C 9.83665 24.27401 0.02819
C 11.08124 23.5291 0.00165
C 9.92282 21.47336 -0.02971
C 9.74889 20.27237 0.02894
C 9.88981 17.14348 -0.01789
C 10.30974 15.86188 0.00444
C 11.16929 14.92114 -0.00925
C 11.20564 13.44017 0.01877
C 9.89901 12.80188 0.01363
C 9.85959 11.34407 -0.02162
C 11.03322 10.62004 0.00415
C 11.09117 9.12872 -0.0014
C 9.83351 8.44677 0.02162
C 9.84125 7.09495 0.0076
C 11.08156 6.27982 0.01241
C 11.04619 4.93663 -0.01454
C 9.90166 4.27 0.01945
C 9.88296 2.84238 0.01416
C 11.00092 2.06826 0.03542
C 9.75163 0.02982 0.00244
C 9.76882 25.6811 -0.00891
C 16.00804 31.88554 -0.02162
C 14.76289 29.83902 -0.00481
C 17.24937 8.68428 0.04892
C 17.17813 7.15669 -0.00111
C 18.42054 6.39626 -0.03557
C 18.33438 4.9625 0.03754
C 17.15595 4.22492 0.01739
C 17.16612 2.75788 0.00755
C 18.36479 2.07251 -0.0054
C 18.36852 0.66346 0.00667
C 17.18635 34.06115 0.00143
C 19.65935 32.57072 -0.017
C 20.93058 31.89522 0.00364
C 20.85543 30.51068 -0.00831
C 19.65289 29.82886 -0.02957
C 19.59097 28.38647 -0.04422
C 20.81135 27.59328 0.00654
C 20.9007 26.17731 -0.00703
C 19.85119 11.33383 -0.04076
C 21.13539 10.79996 -0.00652
C 20.91529 9.30678 0.0058
C 18.47035 9.24511 0.01452
C 15.98861 30.5015 0.00889
C 18.3725 10.76584 -0.01581
C 18.39158 27.75802 -0.01979
C 14.74526 28.4325 0.00979
C 15.87504 27.5926 0.01443
C 14.54234 11.52982 0.03505
C 15.86819 10.74522 -0.02815
C 15.94454 9.22908 -0.04147
C 14.7424 8.50342 -0.05302
C 14.75733 7.06763 0.00213
C 15.99849 6.35195 -0.00066
C 15.97839 4.91116 -0.00289
C 14.70336 4.20791 0.00028
C 14.68314 2.85494 -0.02213
C 15.87985 2.04106 0.03698
C 15.90803 0.67234 -0.00109
C 14.71443 34.04909 -0.00491
C 17.20213 32.61532 0.03338
C 18.30983 31.87641 -0.0258
C 18.36331 30.48811 -0.0331
C 17.19316 29.7235 -0.00316
C 17.16959 28.29841 0.02188
C 17.07206 11.43482 0.02691
C 10.95368 26.35728 -0.01046
C 11.05184 27.74428 -0.02689
C 9.85083 28.4548 -0.01536
C 3.61512 2.19339 -0.03337
C 3.63413 0.83685 0.01227
C 2.42975 0.02273 0.00873
C 4.88282 32.71512 -0.00049
C 6.15923 31.98984 0.00848
C 6.09076 30.62718 -0.01303
C 4.94544 29.9309 -0.01378
C 4.80097 28.46274 0.02635
C 6.10666 27.72654 0.0127
C 6.10945 26.33613 0.01396
C 4.88284 25.60287 0.01849
C 4.8282 24.20335 -0.01142
C 6.1184 23.49677 -0.00562
C 6.13501 22.05189 -0.00494
C 4.93555 21.30164 0.00054
C 4.96306 19.93252 0.03007
C 6.20581 19.20463 -0.00095
C 5.9346 17.82965 0.01572
C 4.98409 11.51913 -0.04848
C 2.37777 2.89 -0.00966
C 6.08668 10.70141 -0.00892
C 2.3978 4.34576 -0.02929
C 3.72403 6.50459 -0.00077
C 3.67279 30.6794 0.01996
C 2.42725 29.94473 -0.03996
C 2.34256 28.51029 0.01465
C 3.58867 27.76633 -0.00074
C 3.61649 26.34801 -0.00518
C 2.42834 25.62942 0.0086
C 2.39336 24.17684 -0.00643
C 3.61418 23.41333 0.017
C 3.68405 22.04445 -0.03113
C 2.45549 21.34036 -0.02566
C 2.44064 19.89658 -0.00094
C 3.69268 19.17705 0.02322
C 3.70083 17.64154 -0.00725
C 2.5154 16.91598 -0.05697
C 2.27422 11.67846 0.01087
C 3.63627 10.94851 -0.01343
C 3.7156 9.48129 0.00988
C 2.50246 8.62716 0.0276
C 2.46548 7.2586 0.01305
C 3.67407 5.07893 0.03368
C 6.15554 9.30981 -0.01362
C 4.88022 8.65527 -0.0008
C 4.93505 7.15247 0.0288
C 8.36421 14.86987 0.01641
C 8.61648 13.49487 -0.00719
C 7.33961 12.73233 0.01364
C 7.38988 11.31758 -0.01062
C 8.67347 10.65816 -0.00033
C 8.61081 9.22611 0.03589
C 7.43903 8.55913 -0.02759
C 7.45897 7.17056 0.0402
C 8.59013 6.47466 0.00572
C 8.68781 4.94496 0.03592
C 7.4485 4.30008 0.00406
C 7.39094 2.9299 0.00943
C 8.62402 2.16553 0.02841
C 8.54692 0.76667 -0.01111
C 7.31529 34.07307 -0.01275
C 9.73545 32.62301 0.00985
C 11.03929 31.94537 -0.02245
C 11.10281 30.51698 -0.00428
C 9.81302 29.85057 0.03101
C 7.35392 15.67254 0.02339
C 6.93805 16.9782 -0.00334
C 8.83439 17.9526 -0.01634
C 8.66831 19.39053 0.00057
C 6.18609 6.44458 0.00393
C 6.18368 5.04868 0.00895
C 4.93708 4.32471 0.00685
C 4.86199 2.8739 0.02888
C 6.16902 2.16484 -0.00482
C 6.11706 0.79138 -0.01384
C 4.82983 0.12096 0.03693
C 7.34841 32.72227 0.01745
C 8.55449 31.91927 0.00488
C 19.67674 8.54493 -0.00865
C 8.61317 30.53205 -0.01004
C 7.34507 28.4783 -0.00131
C 8.55455 27.76528 -0.01118
C 8.54938 26.35962 -0.014
C 7.33694 25.62423 0.02147
C 7.32525 24.17729 0.00373
C 8.54514 23.54624 -0.00191
C 8.55359 22.21309 0.00438
C 7.41374 21.3875 0.01291
C 7.41345 19.99737 0.00093
C 7.30713 29.87968 -0.02896
C 3.71793 32.02263 -0.00279
C 19.66432 7.11382 0.00675
C 20.79447 5.02669 0.00742
C 30.69779 0.79305 0.00307
C 29.38472 0.03841 0.00346
C 31.90407 32.66272 0.01713
C 33.13585 32.01096 -0.01694
C 33.223 30.60168 0.01428
C 31.94647 29.92446 -0.02142
C 31.90351 28.4637 0.0544
C 33.08831 27.75652 0.00026
C 33.14202 26.3172 0.00682
C 31.8756 25.61197 -0.01779
C 31.99732 24.14269 0.03794
C 33.21477 23.43578 0.01927
C 33.22549 22.02896 0.01574
C 32.02107 21.33345 -0.02383
C 31.99734 19.8989 -0.01429
C 33.22089 19.15984 -0.0136
C 33.15949 17.69485 0.00594
C 31.896 17.03666 -0.02474
C 31.93568 15.6656 0.00369
C 30.66744 2.21609 0.00716
C 33.23913 14.92685 0.00455
C 29.40494 2.82294 0.02108
C 30.72787 5.01622 0.07705
C 29.42782 25.53921 0.03265
C 29.43437 24.14219 -0.02049
C 30.7133 23.45593 -0.01854
C 30.75846 21.99013 -0.01415
C 29.52545 21.28414 -0.03039
C 29.48629 19.85691 0.01836
C 30.72259 19.14427 0.03531
C 30.70002 17.74537 -0.00669
C 29.5293 17.03351 0.0101
C 29.5571 15.62008 0.01705
C 30.76519 14.86943 -0.0405
C 30.71411 13.49489 -0.01303
C 29.48869 12.76981 -0.01461
C 29.55979 11.39941 -0.02155
C 30.74743 10.63492 -0.00944
C 30.76581 9.19274 -0.03735
C 29.5394 8.48545 -0.00971
C 29.51346 7.06418 0.01518
C 30.795 6.38409 0.01908
C 29.50539 4.30556 0.0103
C 30.65645 26.32771 0.00261
C 33.21688 13.48104 -0.00644
C 31.9788 11.36001 0.00137
C 0.04782 19.88123 0.01951
C 1.25339 19.15488 -0.01678
C 1.28489 17.71441 0.01223
C 34.38078 17.04083 0.00648
C 0.03901 15.57912 0.02114
C 1.36545 14.91679 -0.02957
C 1.35104 13.43239 0.00343
C 34.41171 12.74029 -0.02656
C 34.37773 11.3848 -0.02442
C 1.25209 10.78578 -0.00027
C 1.21673 9.3015 -0.00583
C 0.02271 8.55007 -0.02302
C 34.39279 7.13654 -0.02849
C 1.25897 6.49959 0.02931
C 1.25227 5.00368 0.00628
C 0.03914 4.34232 -0.0345
C 34.43068 2.94247 -0.00931
C 1.17773 2.21702 -0.00939
C 1.23466 0.73564 -0.00468
C 34.39339 21.29573 -0.02213
C 31.99079 12.78335 -0.01839
C 1.27137 22.0014 0.02712
C 34.40629 24.17664 0.03076
C 33.22084 10.65513 0.00199
C 33.25064 9.2603 0.04381
C 32.02098 8.57449 0.02806
C 32.02638 7.08961 0.01504
C 33.14431 6.38713 -0.00069
C 33.22371 4.95867 0.04926
C 31.95284 4.27384 -0.03838
C 31.89987 2.82268 0.00349
C 33.14081 2.18213 -0.00323
C 33.17817 0.80017 -0.00841
C 31.9519 34.07799 0.0001
C 34.40985 32.74791 -0.02927
C 1.15363 31.99849 -0.01404
C 1.15348 30.62666 0.01027
C 0.04102 29.87649 0.01831
C 34.34841 28.4344 -0.01037
C 1.11298 27.75296 -0.00439
C 1.23894 26.3432 -0.00598
C 34.42007 25.61373 -0.05239
C 1.16275 23.39068 0.00723
C 30.67368 27.74775 0.02326
C 29.41156 28.40893 0.00924
C 29.35461 29.83663 0.0014
C 23.32441 2.13495 0.01153
C 23.29242 0.70297 0.02734
C 21.97894 34.00539 -0.0055
C 24.56777 32.6256 0.01515
C 25.73412 31.90082 -0.00225
C 25.71833 30.48071 0.00071
C 24.5176 29.75975 -0.01107
C 24.50683 28.29083 -0.01586
C 25.77064 27.56756 -0.01971
C 25.82729 26.19327 -0.02118
C 24.58745 25.39146 0.00733
C 24.59188 24.06363 -0.00178
C 25.73014 23.25478 0.00768
C 25.92419 21.84798 -0.0276
C 25.95733 19.05116 0.03005
C 25.85752 17.76536 -0.04078
C 25.848 14.77356 0.02117
C 25.70015 13.42229 0.02737
C 24.42144 12.64053 -0.00498
C 22.08323 2.80186 0.02239
C 24.66411 11.21802 0.00135
C 22.04844 4.29485 -0.03213
C 23.28551 6.33124 0.03374
C 19.567 4.31943 -0.01594
C 19.51748 2.88915 0.0106
C 20.81434 2.12595 -0.01154
C 20.75143 0.63593 -0.01721
C 19.59075 33.98396 -0.02422
C 22.09381 32.61162 0.01277
C 23.32796 31.89707 0.00096
C 23.26714 30.44147 -0.01527
C 22.01752 29.73565 0.01087
C 22.06037 28.30185 0.00199
C 23.36541 27.56392 0.01511
C 23.36884 26.22099 -0.00478
C 22.08465 25.56915 -0.01662
C 22.93808 12.65632 -0.01185
C 22.42559 11.53947 0.01126
C 23.4222 10.54603 0.01852
C 23.3006 9.12944 -0.00381
C 22.14266 8.49112 0.03046
C 22.09659 7.08104 0.0296
C 23.22253 4.96571 -0.02845
C 25.87074 10.55577 0.03102
C 25.79752 9.16817 0.02555
C 24.56467 8.48335 0.01423
C 27.00232 15.50078 -0.00294
C 28.28511 14.89011 0.00152
C 28.22193 13.41719 0.01257
C 27.03153 12.72101 0.02316
C 27.08918 11.33881 0.04185
C 28.34571 10.68511 0.00194
C 28.3281 9.22515 -0.00621
C 27.07067 8.45356 0.02611
C 27.06209 7.0716 0.02198
C 28.26872 6.33079 0.01094
C 28.20948 4.87906 0.00235
C 27.04229 4.23691 0.01495
C 26.97505 2.83059 0.01259
C 28.17413 2.12086 0.01799
C 28.18638 0.71824 0.01699
C 26.96671 34.06843 -0.00416
C 29.41196 32.69957 0.01177
C 30.59352 31.99301 0.04266
C 30.68778 30.55814 0.01324
C 27.11838 16.93734 0.00826
C 28.21894 17.63278 0.00487
C 28.28212 19.07662 -0.00942
C 27.11282 19.8775 -0.02815
C 24.61184 7.17786 -0.00285
C 25.79268 6.36949 -0.009
C 25.75608 4.96705 -0.01199
C 24.58367 4.24705 -0.00229
C 24.54817 2.85526 -0.00938
C 25.79083 2.17152 -0.0264
C 25.73209 0.7221 -0.01154
C 24.54177 0.01837 0.00684
C 26.96532 32.63016 -0.01052
C 20.89388 6.43904 -0.00311
C 28.1492 32.03634 -0.01679
C 26.93952 29.81299 0.04306
C 27.03228 28.35245 0.00996
C 28.24294 27.61977 0.00195
C 28.22963 26.19789 -0.00802
C 26.98567 25.45023 -0.00218
C 26.94833 24.0457 -0.01654
C 28.24646 23.38629 -0.00037
C 28.39045 22.02981 -0.0032
C 27.16859 21.3221 0.00622
C 28.17449 30.62209 0.00367
C 2.41212 32.79584 0.01226
