411
Graphene
C 34.39737 0.07086 0.01295
C 13.52266 0.91767 -0.00428
C 12.28821 0.23888 0.03101
C 14.73499 32.82014 -0.01536
C 15.95027 32.10317 -0.02689
C 15.88175 30.58577 -0.01046
C 14.66704 30.03944 -0.00891
C 14.66518 19.61285 0.02819
C 16.01399 19.07569 0.00165
C 16.0532 17.70947 -0.02971
C 14.79111 16.96614 0.02894
C 14.72084 15.55057 -0.01789
C 15.95948 14.77604 0.00444
C 15.94529 13.42636 -0.00925
C 14.68525 12.75126 0.01877
C 14.77497 11.35915 0.01363
C 15.98406 10.61484 -0.02162
C 15.92334 9.22201 0.00415
C 14.72716 8.51926 -0.0014
C 14.69228 7.16977 0.02162
C 15.94873 6.47891 0.0076
C 16.04538 5.03176 0.01241
C 13.50923 2.24177 -0.02245
C 12.31788 2.90899 0.00985
C 12.28172 4.43063 -0.01275
C 13.56452 5.01702 -0.01111
C 10.94597 5.04386 0.00373
C 9.74118 4.34557 -0.00191
C 9.80766 2.93417 0.00438
C 10.94563 2.22791 0.01291
C 11.04999 0.88142 0.00093
C 9.7905 0.15938 0.00057
C 12.26439 32.94029 -0.01634
C 13.46253 32.11745 -0.00334
C 13.49556 30.72619 0.02339
C 13.69386 19.03844 0.01641
C 14.7881 4.30516 -0.01454
C 13.5619 17.59632 -0.00719
C 12.21077 15.55286 -0.01062
C 13.53365 14.80286 -0.00033
C 13.50984 13.43494 0.03589
C 12.21989 12.80369 -0.02759
C 12.28499 11.43836 0.0402
C 13.47079 10.64321 0.00572
C 13.41104 9.22407 0.03592
C 12.22548 8.52012 0.00406
C 12.24533 7.05095 0.00943
C 13.5275 6.41049 0.02841
C 12.28062 16.95614 0.01364
C 14.795 2.93732 0.01945
C 16.03869 2.20472 0.01416
C 16.02041 0.73676 0.03542
C 17.21976 4.2736 -0.00481
C 17.25029 2.82183 0.00979
C 18.46734 2.05551 0.01443
C 18.44872 0.6311 0.03505
C 17.20794 34.07228 -0.02815
C 19.6731 32.69335 -0.04147
C 20.86561 31.91467 -0.05302
C 20.76371 30.48701 0.00213
C 19.58622 29.81804 -0.00066
C 19.58137 28.39711 -0.00289
C 18.42952 4.957 0.00889
C 20.76137 27.7031 0.00028
C 19.57066 25.564 0.03698
C 19.45357 24.0499 -0.00109
C 20.72133 23.35898 -0.00491
C 20.78683 21.94999 0.03338
C 19.53114 21.3471 -0.0258
C 19.5916 19.91213 -0.0331
C 20.84611 19.15087 -0.00316
C 20.86587 17.71919 0.02188
C 19.65908 16.93179 -0.01979
C 19.65459 15.54091 0.02691
C 20.74214 26.3091 -0.02213
C 10.91365 6.47528 0.02147
C 18.42572 6.34393 -0.02162
C 17.18892 8.51023 0.01848
C 14.83762 0.18683 0.02299
C 17.26407 32.71883 0.00244
C 18.43568 32.01887 -0.01717
C 18.46348 30.60675 0.05265
C 17.1407 29.93708 -0.01952
C 17.0438 28.47754 -0.02813
C 18.24778 27.67552 0.00374
C 18.29142 26.11138 0.00052
C 18.17574 23.51825 -0.03682
C 18.28418 22.03017 0.01965
C 17.2225 7.11005 -0.00619
C 17.06418 21.22738 0.02058
C 18.48965 19.04862 -0.0108
C 18.45559 17.57773 -0.00368
C 17.2926 16.86455 -0.02696
C 17.20461 15.48904 -0.00114
C 18.39649 14.77113 0.00228
C 18.51003 13.37654 0.00798
C 17.22679 12.73241 0.00422
C 17.34544 11.29606 0.0351
C 18.51313 10.56515 -0.03113
C 18.38863 9.19519 0.02098
C 17.1821 19.83607 -0.01957
C 20.96733 14.82578 -0.01581
C 9.75696 7.18835 -0.014
C 11.04411 9.34136 -0.00131
C 2.29868 2.87344 0.03189
C 3.59106 2.23992 0.00031
C 3.6319 0.86955 -0.003
C 2.39979 0.02983 0.01402
C 4.7988 32.76412 0.02379
C 6.05286 32.13243 0.00907
C 6.09365 30.71731 0.00643
C 4.88999 29.86293 -0.01509
C 4.92187 28.43098 0.03267
C 6.268 27.67985 0.02374
C 6.09455 26.36381 0.00402
C 4.97877 25.58131 0.0073
C 5.02564 24.11921 0.0174
C 6.105 23.34563 0.03828
C 6.08391 21.88745 0.01226
C 4.86746 21.16124 -0.00279
C 4.85941 19.74288 0.01996
C 6.07158 19.16123 -0.03996
C 6.07848 17.80612 0.01465
C 4.75938 17.01767 -0.00074
C 4.86965 15.58219 -0.00518
C 2.41611 4.28942 -0.04307
C 3.62845 4.95841 0.03284
C 3.60364 6.35207 0.04505
C 2.48768 7.18895 -0.04999
C 3.66537 30.50733 0.00088
C 2.44948 29.86848 0.00828
C 2.33986 28.46534 -0.02375
C 3.60026 27.67692 0.00558
C 3.71553 26.33113 -0.0059
C 2.47995 25.50815 -0.01386
C 2.43806 24.11527 -0.02805
C 3.76772 23.40898 0.00081
C 3.64893 22.00116 0.00245
C 2.37313 21.33207 0.02728
C 6.12458 15.04296 0.0086
C 2.32143 19.88468 -0.00039
C 3.58624 17.75963 0.00211
C 2.38206 17.09747 -0.00449
C 2.47949 15.67239 -0.01979
C 3.64857 14.88237 0.02784
C 3.62489 13.49604 -0.01977
C 2.37601 12.78075 -0.00561
C 2.3935 11.34598 0.00208
C 3.66466 10.80152 0.01707
C 3.62837 9.35025 0.02769
C 2.44544 8.53941 -0.03291
C 3.55801 19.1717 0.0064
C 6.07449 13.68678 -0.00643
C 4.90713 12.86757 0.017
C 4.92326 11.43561 -0.03113
C 8.47447 9.34462 -0.00562
C 7.31564 8.59185 -0.00494
C 7.27484 7.20747 0.00054
C 8.4913 6.49361 0.03007
C 8.56433 5.12603 -0.00095
C 7.29688 4.42824 0.01572
C 7.3086 2.9997 -0.04848
C 8.61551 2.30733 -0.00892
C 8.54006 0.89731 -0.01362
C 7.28083 0.15299 -0.0008
C 8.59058 10.68239 -0.01142
C 9.78564 32.85336 0.0288
C 10.94372 30.79157 0.00895
C 9.85 30.06244 0.00685
C 11.15592 17.74596 0.02888
C 9.82149 17.20142 -0.00482
C 9.86133 15.76473 -0.01384
C 10.95301 14.89093 0.03693
C 10.96635 13.48961 0.01745
C 9.75974 12.83883 0.00488
C 9.77215 11.39248 -0.01004
C 11.02838 10.71649 -0.02896
C 11.0353 32.19836 0.00393
C 9.89379 8.60426 -0.01118
C 7.35096 11.43623 0.01849
C 8.56177 13.61432 0.0127
C 6.09295 10.69798 -0.02566
C 6.136 9.29941 -0.00094
C 4.86674 8.53607 0.02322
C 4.79247 7.11184 -0.00725
C 5.99822 6.48716 -0.05697
C 6.06236 5.03022 0.01087
C 4.85714 4.37116 -0.01343
C 4.81928 2.99323 0.00988
C 6.0972 2.2989 0.0276
C 6.06774 0.81006 0.01305
C 7.3411 12.92737 0.01396
C 4.79727 0.11633 -0.00077
C 8.58131 32.13116 -0.02929
C 8.6663 30.7711 -0.00966
C 7.30659 30.01229 -0.03337
C 7.37042 28.6248 0.01227
C 7.22748 19.97611 0.00873
C 8.3443 19.26484 -0.00049
C 8.52771 17.94721 0.00848
C 7.34301 17.06838 -0.01303
C 7.39231 15.65879 -0.01378
C 8.6785 14.97611 0.02635
C 7.21858 32.84046 0.03368
C 3.67992 31.96605 0.04421
C 20.96635 13.40846 0.01452
C 19.72068 11.35174 -0.00111
C 30.65917 9.22146 -0.03735
C 29.458 8.42967 -0.00971
C 29.49725 6.99442 0.01518
C 30.69915 6.35012 0.01908
C 30.68397 4.98082 0.07705
C 29.509 4.24545 0.0103
C 29.50393 2.88128 0.02108
C 30.70375 2.11866 0.00716
C 30.70491 0.79167 0.00307
C 29.50548 34.06634 0.00346
C 31.90555 32.62877 0.01713
C 33.18947 31.97124 -0.01694
C 33.18096 30.6141 0.01428
C 31.95202 29.79874 -0.02142
C 31.94582 28.40665 0.0544
C 33.23273 27.74924 0.00026
C 33.24785 26.28702 0.00682
C 31.96048 25.55345 -0.01779
C 31.94083 24.15191 0.03794
C 33.1628 23.38598 0.01927
C 33.16014 22.04428 0.01574
C 30.71176 10.57021 -0.00944
C 29.53583 11.33131 -0.02155
C 29.50244 12.74337 -0.01461
C 30.71217 13.49722 -0.01303
C 26.97257 2.80743 0.01259
C 28.26366 2.07913 0.01799
C 28.29635 0.66819 0.01699
C 27.06834 34.04307 -0.00416
C 29.4875 32.64713 0.01177
C 30.7444 31.90534 0.04266
C 30.73803 30.52332 0.01324
C 29.49866 29.79754 0.0014
C 29.46946 28.34822 0.00924
C 30.69724 27.57245 0.02326
C 31.97653 21.33382 -0.02383
C 30.72966 26.25197 0.00261
C 29.37153 24.13386 -0.02049
C 30.63997 23.49059 -0.01854
C 30.6724 22.07499 -0.01415
C 29.4645 21.3348 -0.03039
C 29.41288 19.86064 0.01836
C 30.67729 19.11144 0.03531
C 30.75357 17.76574 -0.00669
C 29.54326 17.07536 0.0101
C 29.45076 15.58567 0.01705
C 30.69278 14.87767 -0.0405
C 29.49761 25.57348 0.03265
C 31.89913 19.87739 -0.01429
C 33.13974 19.21509 -0.0136
C 33.16874 17.75585 0.00594
C 1.22294 23.44661 0.00723
C 1.13202 21.98714 0.02712
C 34.39328 21.21505 -0.02213
C 34.37845 19.81588 0.01951
C 1.20745 19.16149 -0.01678
C 1.21052 17.79599 0.01223
C 0.0429 17.03543 0.00648
C 34.39865 15.61112 0.02114
C 1.21866 14.96714 -0.02957
C 1.17747 13.52374 0.00343
C 0.03332 24.10297 0.03076
C 34.31653 12.67337 -0.02656
C 1.18329 10.5681 -0.00027
C 1.17434 9.20091 -0.00583
C 34.3875 8.55156 -0.02302
C 34.28393 7.08456 -0.02849
C 1.14035 6.43605 0.02931
C 1.18324 5.03858 0.00628
C 34.41419 4.27914 -0.0345
C 34.333 2.88409 -0.00931
C 1.16705 2.17247 -0.00939
C 1.22633 0.70697 -0.00468
C 34.36496 11.31297 -0.02442
C 27.01109 4.25724 0.01495
C 0.02326 25.53573 -0.05239
C 1.16755 27.68747 -0.00439
C 31.98447 17.01348 -0.02474
C 31.94751 15.58777 0.00369
C 33.1808 14.9049 0.00455
C 33.08671 13.4638 -0.00644
C 31.94726 12.77727 -0.01839
C 31.91725 11.30493 0.00137
C 33.08978 10.63476 0.00199
C 33.13848 9.21696 0.04381
C 31.95583 8.4599 0.02806
C 31.89266 7.10206 0.01504
C 1.20896 26.33501 -0.00598
C 33.10001 6.39585 -0.00069
C 31.91188 4.24861 -0.03838
C 31.92501 2.91718 0.00349
C 33.08 2.1828 -0.00323
C 33.1016 0.7103 -0.00841
C 31.9559 0.01956 0.0001
C 34.42119 32.70422 -0.02927
C 1.19647 31.98562 -0.01404
C 1.19737 30.50124 0.01027
C 34.365 29.89154 0.01831
C 34.39054 28.48401 -0.01037
C 33.15696 4.97886 0.04926
C 19.77045 12.72475 0.04892
C 28.31392 4.96807 0.00235
C 27.01741 7.01583 0.02198
C 22.17874 17.03249 0.01277
C 22.11248 15.61208 0.00096
C 23.33686 14.9231 -0.01527
C 23.45562 13.47136 0.01087
C 22.248 12.76464 0.00199
C 22.16614 11.32874 0.01511
C 23.39338 10.57081 -0.00478
C 23.32849 9.203 -0.01662
C 22.0636 8.46677 -0.01185
C 22.16628 7.01114 0.01126
C 23.34697 6.37552 0.01852
C 23.35901 4.92746 -0.00381
C 22.14583 4.21657 0.03046
C 22.19578 2.77612 0.0296
C 23.37613 2.03541 0.03374
C 23.4224 0.64963 -0.02845
C 22.14412 34.04967 -0.03213
C 24.55294 32.62285 0.02239
C 25.82728 31.90219 0.01153
C 25.76245 30.50715 0.02734
C 24.54897 29.84219 -0.0055
C 23.39459 17.73531 -0.02422
C 23.31993 19.1637 -0.01721
C 22.06664 19.83806 -0.01154
C 22.0172 21.27174 0.0106
C 20.89581 10.52936 -0.03557
C 20.91122 9.12856 0.03754
C 19.61757 8.4772 0.01739
C 19.62452 7.00391 0.00755
C 20.94643 6.22029 -0.0054
C 20.8934 4.88445 0.00667
C 19.65404 4.18609 0.00143
C 19.64837 2.76327 -0.017
C 20.96542 2.14132 0.00364
C 20.98163 0.70266 -0.00831
C 24.47306 28.35411 0.01515
C 19.75425 0.04499 -0.02957
C 23.29478 31.88135 0.00654
C 23.32382 30.42743 -0.00703
C 22.05974 29.69485 -0.04076
C 21.98984 28.33809 -0.00652
C 23.33788 27.63835 0.0058
C 23.34196 26.29332 -0.00865
C 22.0264 25.66172 0.00675
C 21.94141 24.13333 -0.00311
C 23.1668 23.44077 0.00742
C 23.25218 22.01068 -0.01594
C 22.09485 32.58082 -0.04422
C 25.78265 27.62618 -0.00225
C 25.78916 26.33039 0.00071
C 24.55781 25.59643 -0.01107
C 28.25983 30.57927 0.00367
C 27.06352 29.8491 0.04306
C 26.99191 28.41209 0.00996
C 28.19128 27.679 0.00195
C 28.20252 26.21978 -0.00802
C 27.00334 25.57293 -0.00218
C 26.92586 24.17754 -0.01654
C 28.10401 23.42957 -0.00037
C 28.15067 22.0186 -0.0032
C 26.9853 21.33083 0.00622
C 28.31465 31.9572 -0.01679
C 27.01549 19.83168 -0.02815
C 28.23883 17.70036 0.00487
C 26.97596 16.99892 0.00826
C 27.01943 15.53767 -0.00294
C 28.2573 14.85756 0.00152
C 28.30068 13.47685 0.01257
C 27.0516 12.67809 0.02316
C 27.09608 11.22566 0.04185
C 28.32509 10.51502 0.00194
C 28.22277 9.15139 -0.00621
C 26.98224 8.46378 0.02611
C 28.19818 19.19178 -0.00942
C 28.27115 6.36717 0.01094
C 26.99083 32.63594 -0.01052
C 25.89293 0.70121 -0.01154
C 24.40942 24.12615 -0.01586
C 25.67969 23.40348 -0.01971
C 25.75544 21.98258 -0.02118
C 24.46297 21.3839 0.00733
C 24.52409 19.90492 -0.00178
C 25.73956 19.14648 0.00768
C 25.81682 17.77662 -0.0276
C 24.60615 17.04549 0.03005
C 24.54775 15.56506 -0.04078
C 25.80981 14.82118 0.02117
C 24.61803 33.97904 0.00684
C 25.87048 13.42679 0.02737
C 24.56278 11.33976 0.00135
C 25.8099 10.59317 0.03102
C 25.76041 9.15336 0.02555
C 24.56301 8.48363 0.01423
C 24.60292 7.04417 -0.00285
C 25.826 6.41153 -0.009
C 25.83454 4.96566 -0.01199
C 24.50568 4.20135 -0.00229
C 24.57244 2.80691 -0.00938
C 25.73695 2.08442 -0.0264
C 24.62124 12.73651 -0.00498
C 2.3996 32.64076 -0.00177
