365
Graphene
C 34.39359 34.07839 0.01295
C 11.0045 8.95654 0.00052
C 9.65777 8.27111 -0.03682
C 10.98791 0.80955 0.01965
C 9.83441 34.04433 0.02058
C 12.29051 32.84869 -0.01957
C 13.47415 32.03037 -0.0108
C 13.61709 30.53314 -0.00368
C 12.37126 29.82573 -0.02696
C 11.02466 10.50285 0.00374
C 12.41595 28.37296 -0.00114
C 13.73131 26.13035 0.00798
C 12.32016 25.5723 0.00422
C 12.37625 24.14145 0.0351
C 13.56266 23.29236 -0.03113
C 13.46613 22.11075 0.02098
C 12.23414 21.25676 0.01848
C 12.24086 19.80217 -0.00619
C 13.45541 19.14603 -0.02162
C 13.67576 27.57558 0.00228
C 9.80908 11.24014 -0.02813
C 9.79494 12.69771 -0.01952
C 11.03378 13.37866 0.05265
C 7.30872 0.0204 0.02894
C 9.84188 32.71386 -0.01789
C 11.11766 32.0216 0.00444
C 11.08349 30.57502 -0.00925
C 9.81941 29.8725 0.01877
C 9.86039 28.41669 0.01363
C 11.13289 27.70083 -0.02162
C 11.08878 26.27664 0.00415
C 9.90405 25.53945 -0.0014
C 9.95048 24.1711 0.02162
C 11.15653 23.39318 0.0076
C 11.05192 22.07165 0.01241
C 9.86502 21.32736 -0.01454
C 9.90702 19.93988 0.01945
C 11.06342 19.1499 0.01416
C 11.07882 17.65446 0.03542
C 9.78215 16.91645 0.02299
C 9.83794 15.59855 0.00244
C 11.0061 14.80622 -0.01717
C 13.40616 17.69226 0.00889
C 12.26193 16.96335 -0.00481
C 12.2539 15.55542 0.00979
C 13.49906 14.87438 0.01443
C 14.34894 2.52842 -0.03557
C 15.90878 2.12428 0.03754
C 16.05133 0.70672 0.01739
C 14.78285 0.01511 0.00755
C 17.21039 32.68346 -0.0054
C 18.32254 31.89721 0.00667
C 18.11587 30.41033 0.00143
C 16.92192 17.13528 -0.017
C 17.17343 15.74549 0.00364
C 18.41013 14.96228 -0.00831
C 18.46642 13.5093 -0.02957
C 17.1593 12.81404 -0.04422
C 17.20676 11.46843 0.00654
C 18.39778 10.65349 -0.00703
C 18.12849 9.20681 -0.04076
C 17.19081 2.74258 -0.00652
C 18.40881 2.01705 0.0058
C 18.37133 0.64118 -0.00865
C 17.24558 34.04487 0.00675
C 16.07115 9.30294 -0.00111
C 8.51455 0.73653 -0.02971
C 15.96115 10.65142 0.04892
C 14.77395 12.83454 -0.01581
C 13.51435 13.38812 0.03505
C 12.20481 12.70332 -0.02815
C 12.23742 11.30234 -0.04147
C 13.51634 10.79122 -0.05302
C 13.5388 9.16125 0.00213
C 12.44665 8.58132 -0.00066
C 13.71214 0.99515 -0.00289
C 12.40359 0.35091 0.00028
C 14.74326 32.67158 -0.02213
C 15.98786 31.92656 0.03698
C 16.26049 30.4616 -0.00109
C 14.92351 29.86548 -0.00491
C 14.69187 28.45523 0.03338
C 14.70073 19.86423 -0.0258
C 15.87954 17.88209 -0.0331
C 14.72704 17.00194 -0.00316
C 14.75677 15.58446 0.02188
C 16.02092 14.92812 -0.01979
C 16.02039 13.57442 0.02691
C 14.77847 11.40743 0.01452
C 8.61039 2.08938 0.00165
C 7.5062 2.98131 0.02819
C 7.40527 4.3729 -0.00891
C 3.64728 6.46149 0.00848
C 3.67467 5.04097 -0.01303
C 2.45206 4.33742 -0.01378
C 2.40075 2.88503 0.02635
C 3.67303 2.08024 0.0127
C 3.63944 0.68921 0.01396
C 2.40866 0.03567 0.01849
C 4.82107 32.68979 -0.01142
C 6.06439 31.96028 -0.00562
C 6.12747 30.60813 -0.00494
C 4.91541 29.84446 0.00054
C 4.90003 28.34139 0.03007
C 6.17183 27.60272 -0.00095
C 6.16199 26.26192 0.01572
C 4.88079 25.55965 -0.04848
C 4.90699 24.21014 -0.00892
C 6.1424 23.43997 -0.01362
C 6.13905 21.98833 -0.0008
C 4.84602 21.36669 0.0288
C 2.46968 7.20888 -0.00049
C 4.94588 19.9221 0.00393
C 2.4447 8.59902 0.00873
C 3.6398 10.751 -0.03337
C 3.66832 30.53155 -0.00518
C 2.46991 29.83024 0.0086
C 2.40406 28.40483 -0.00643
C 3.68166 27.731 0.017
C 3.61232 26.31307 -0.03113
C 2.36106 25.55604 -0.02566
C 2.35855 24.23616 -0.00094
C 3.61432 23.48884 0.02322
C 3.67653 22.01748 -0.00725
C 2.42264 21.335 -0.05697
C 2.42719 19.8768 0.01087
C 3.65358 19.2087 -0.01343
C 3.77079 17.81269 0.00988
C 2.45559 17.01208 0.0276
C 2.49946 15.64509 0.01305
C 3.70889 14.96935 -0.00077
C 3.61399 13.54453 0.03368
C 2.4201 12.92627 -0.02929
C 2.46208 11.40136 -0.00966
C 3.70676 9.29357 0.01227
C 19.61021 32.57869 -0.00311
C 6.19441 19.2202 0.00895
C 4.94122 17.11325 0.02888
C 7.43571 25.55864 -0.01062
C 7.3868 24.1569 -0.00033
C 8.64624 23.49466 0.03589
C 8.62554 22.05599 -0.02759
C 7.42202 21.3149 0.0402
C 7.45582 19.88839 0.00572
C 8.62835 19.19156 0.03592
C 8.63805 17.75177 0.00406
C 7.39322 17.056 0.00943
C 7.41522 15.67856 0.02841
C 8.62225 14.83493 -0.01111
C 8.60076 13.48781 -0.01275
C 7.32358 12.87854 0.00985
C 7.27912 11.36595 -0.02245
C 8.56537 10.68105 -0.00428
C 8.56293 9.25692 0.03101
C 7.27545 8.58553 -0.01536
C 7.37246 7.15651 -0.02689
C 8.64903 6.59384 -0.01046
C 8.66372 26.33391 0.01364
C 6.18061 17.8094 0.00685
C 8.60075 27.73644 -0.00719
C 7.37419 29.87178 0.02339
C 4.95694 15.72023 -0.00482
C 6.13953 14.98217 -0.01384
C 6.0904 13.5882 0.03693
C 4.89945 12.87403 0.01745
C 4.89588 11.48072 0.00488
C 6.10022 10.68784 -0.01004
C 6.0559 9.26428 -0.02896
C 4.8248 8.55108 -0.00131
C 4.92855 7.12132 -0.01118
C 6.1539 6.46956 -0.014
C 6.10073 5.03742 0.02147
C 4.8993 4.35068 0.00373
C 4.88849 2.88467 -0.00191
C 6.2054 2.19899 0.00438
C 6.1021 0.7748 0.01291
C 4.8621 0.01442 0.00093
C 7.36003 32.65373 0.00057
C 8.62754 31.98814 -0.01634
C 8.57962 30.60127 -0.00334
C 7.3583 28.42033 0.01641
C 3.58292 31.97109 -0.00074
C 20.80285 31.95031 0.00742
C 20.93222 14.92247 0.0106
C 29.44439 0.02352 0.00346
C 31.94151 32.71531 0.01713
C 33.1986 32.00361 -0.01694
C 33.14878 30.57071 0.01428
C 31.92614 29.88835 -0.02142
C 31.89072 28.47429 0.0544
C 33.13737 27.76767 0.00026
C 33.12078 26.30249 0.00682
C 30.65797 0.67722 0.00307
C 31.9026 25.64319 -0.01779
C 33.14023 23.47354 0.01927
C 33.18216 22.04769 0.01574
C 31.93924 21.29451 -0.02383
C 32.05023 19.90631 -0.01429
C 33.2171 19.14015 -0.0136
C 33.16336 17.71309 0.00594
C 31.94438 17.09018 -0.02474
C 31.98089 15.6221 0.00369
C 31.85629 24.17486 0.03794
C 30.75192 2.11472 0.00716
C 29.48592 2.81938 0.02108
C 29.5146 4.23526 0.0103
C 29.41762 24.18068 -0.02049
C 30.60225 23.45883 -0.01854
C 30.63604 22.07018 -0.01415
C 29.50635 21.28799 -0.03039
C 29.49993 19.8506 0.01836
C 30.74241 19.24708 0.03531
C 30.76493 17.79799 -0.00669
C 29.56335 17.02299 0.0101
C 29.54684 15.60548 0.01705
C 30.78498 14.915 -0.0405
C 30.76711 13.52697 -0.01303
C 29.54083 12.77491 -0.01461
C 29.51386 11.33342 -0.02155
C 30.77682 10.56718 -0.00944
C 30.75708 9.22903 -0.03735
C 29.50047 8.54159 -0.00971
C 29.48462 7.07188 0.01518
C 30.74194 6.40551 0.01908
C 30.73315 4.90201 0.07705
C 33.15416 14.91883 0.00455
C 33.22765 13.48856 -0.00644
C 31.97093 12.76671 -0.01839
C 32.00413 11.32955 0.00137
C 34.39244 19.93223 0.01951
C 1.21198 19.20978 -0.01678
C 1.26739 17.73173 0.01223
C 34.43044 17.06918 0.00648
C 34.40339 15.63508 0.02114
C 1.14859 14.93869 -0.02957
C 1.16587 13.51371 0.00343
C 34.41964 12.77181 -0.02656
C 0.00312 11.37099 -0.02442
C 1.26285 10.74779 -0.00027
C 1.16317 9.19894 -0.00583
C 34.3824 8.50649 -0.02302
C 34.3878 7.11198 -0.02849
C 1.22817 6.43476 0.02931
C 1.18426 5.01909 0.00628
C 0.01327 4.34575 -0.0345
C 34.42171 2.89134 -0.00931
C 1.19845 2.11791 -0.00939
C 1.17825 0.71357 -0.00468
C 34.40952 21.33437 -0.02213
C 29.48372 25.62839 0.03265
C 1.17119 22.02533 0.02712
C 34.39014 24.17256 0.03076
C 33.18557 10.64065 0.00199
C 33.22168 9.20317 0.04381
C 31.98515 8.4536 0.02806
C 31.96256 7.10664 0.01504
C 33.2066 6.39868 -0.00069
C 33.20784 5.03294 0.04926
C 32.02982 4.22108 -0.03838
C 31.98585 2.88373 0.00349
C 33.16498 2.15924 -0.00323
C 33.17243 0.71202 -0.00841
C 31.92653 0.10301 0.0001
C 34.42834 32.61913 -0.02927
C 1.23626 31.92481 -0.01404
C 1.19337 30.49385 0.01027
C 34.40741 29.8249 0.01831
C 34.4246 28.47523 -0.01037
C 1.17125 27.73241 -0.00439
C 1.17532 26.29754 -0.00598
C 34.35852 25.6394 -0.05239
C 1.17684 23.49444 0.00723
C 30.62059 26.32627 0.00261
C 30.59557 27.76651 0.02326
C 29.30442 28.35964 0.00924
C 23.3488 9.17856 -0.0055
C 21.98778 8.46926 0.01515
C 22.07851 7.01554 -0.00225
C 23.3395 6.29842 0.00071
C 23.29225 4.91245 -0.01107
C 22.07443 4.21305 -0.01586
C 22.11794 2.87079 -0.01971
C 23.31742 2.16847 -0.02118
C 23.3633 0.67783 0.00733
C 22.11308 34.05112 -0.00178
C 24.46592 32.50606 0.00768
C 25.72646 31.87145 -0.0276
C 25.84909 30.43404 0.03005
C 24.46725 29.75531 -0.04078
C 25.87488 17.72071 0.02117
C 24.86294 16.99908 0.02737
C 24.63403 15.54919 -0.00498
C 25.87079 14.93853 0.00135
C 25.8482 13.47071 0.03102
C 23.30267 10.54612 0.02734
C 24.63164 12.73557 0.02555
C 22.08488 11.28155 0.01153
C 23.34869 13.35681 -0.03213
C 20.93889 13.49607 -0.01154
C 19.67371 12.75328 -0.01721
C 19.65853 11.30688 -0.02422
C 20.86897 10.55568 0.01277
C 20.672 9.13429 0.00096
C 19.36357 8.50871 -0.01527
C 19.64207 7.00978 0.01087
C 20.83655 6.25789 0.00199
C 20.74121 4.86245 0.01511
C 19.55245 4.10986 -0.00478
C 19.59802 2.75823 -0.01662
C 20.88171 2.16259 -0.01185
C 20.86601 0.67615 0.01126
C 19.59662 34.00291 0.01852
C 22.10451 32.60755 -0.00381
C 23.23972 31.85138 0.03046
C 23.4665 30.3799 0.0296
C 22.20611 15.6307 0.03374
C 23.38879 14.77305 -0.02845
C 22.12804 12.70551 0.02239
C 19.73271 15.6748 -0.01594
C 24.55736 11.35204 0.01423
C 25.84686 9.21511 -0.009
C 28.2665 14.91821 0.00152
C 28.32314 13.4983 0.01257
C 27.1237 12.79334 0.02316
C 27.04399 11.34129 0.04185
C 28.28273 10.67018 0.00194
C 28.21337 9.25192 -0.00621
C 27.03774 8.54144 0.02611
C 27.06471 7.13626 0.02198
C 28.28607 6.44647 0.01094
C 28.26739 4.94555 0.00235
C 26.94385 4.28936 0.01495
C 27.00699 2.84532 0.01259
C 28.24035 2.12678 0.01799
C 28.13199 0.6458 0.01699
C 26.94885 34.07003 -0.00416
C 29.36714 32.70048 0.01177
C 30.66345 32.00559 0.04266
C 30.64602 30.59147 0.01324
C 29.33549 29.8692 0.0014
C 27.0261 15.62066 -0.00294
C 25.83867 10.69151 -0.00285
C 27.18515 17.02915 0.00826
C 28.28652 19.15395 -0.00942
C 24.60946 8.49887 -0.01199
C 24.64167 7.14944 -0.00229
C 25.79552 6.3769 -0.00938
C 25.79272 4.99868 -0.0264
C 24.53435 4.31116 -0.01154
C 24.54474 2.92705 0.00684
C 25.69982 2.15568 -0.01052
C 25.73626 0.74072 -0.01679
C 24.55858 34.03168 0.00367
C 26.91755 32.65883 0.04306
C 28.152 32.01833 0.00996
C 28.24204 30.59826 0.00195
C 27.06566 29.79384 -0.00802
C 26.99868 28.41866 -0.00218
C 28.10969 27.6018 -0.01654
C 28.28361 26.21057 -0.00037
C 28.35231 23.36908 -0.0032
C 28.31955 22.12817 0.00622
C 26.9828 19.85382 -0.02815
C 28.37957 17.73512 0.00487
C 2.4354 32.64029 0.01465
