425
Graphene
C 0.01426 34.05391 0.01295
C 12.31246 24.17957 0.00572
C 13.48853 23.47951 0.03592
C 13.50192 22.03625 0.00406
C 12.30482 21.29094 0.00943
C 12.30773 19.92829 0.02841
C 13.51619 19.11364 -0.01111
C 13.50683 17.71156 -0.01275
C 12.27468 17.08427 0.00985
C 12.27722 15.61016 -0.02245
C 13.50933 14.9394 -0.00428
C 12.27174 25.6648 0.0402
C 13.57082 13.4761 0.03101
C 12.32391 11.43731 -0.02689
C 13.55299 10.6765 -0.01046
C 13.54493 9.20913 -0.00891
C 12.30249 8.41898 0.02819
C 12.34785 7.01248 0.00165
C 13.55246 6.34278 -0.02971
C 13.53868 4.87708 0.02894
C 12.24463 4.11127 -0.01789
C 12.26423 2.74337 0.00444
C 13.49669 2.09868 -0.00925
C 12.31198 12.79386 -0.01536
C 13.46712 26.31095 -0.02759
C 13.41312 27.78729 0.03589
C 12.1907 28.51475 -0.00033
C 11.07534 19.20015 -0.01384
C 11.08697 17.79807 0.03693
C 9.83265 17.13396 0.01745
C 9.86833 15.69493 0.00488
C 11.07977 14.90942 -0.01004
C 11.07014 13.49923 -0.02896
C 9.79715 12.77549 -0.00131
C 9.93068 11.38028 -0.01118
C 11.10228 10.69987 -0.014
C 11.10162 9.28458 0.02147
C 9.84534 8.62122 0.00373
C 9.81693 7.13772 -0.00191
C 11.05695 6.29517 0.00438
C 11.00362 4.91136 0.01291
C 9.74279 4.2899 0.00093
C 9.78767 2.91417 0.00057
C 11.00609 2.13762 -0.01634
C 11.01525 0.76097 -0.00334
C 9.75455 0.07292 0.02339
C 12.29965 32.69652 0.01641
C 13.50974 31.98822 -0.00719
C 13.49548 30.58672 0.01364
C 12.26638 29.91325 -0.01062
C 13.51832 0.73198 0.01877
C 9.88215 19.93314 -0.00482
C 12.24653 0.05488 0.01363
C 15.9879 31.93584 0.00415
C 16.00036 2.12745 0.0351
C 16.01755 0.61404 -0.03113
C 14.76134 0.02843 0.02098
C 17.28296 32.53228 0.01848
C 18.5269 31.67632 -0.00619
C 18.48762 30.18863 -0.02162
C 17.11259 29.72187 0.00889
C 17.05668 28.37438 -0.00481
C 18.31343 27.67612 0.00979
C 18.31638 26.24406 0.01443
C 14.73802 2.79565 0.00422
C 17.01443 25.552 0.03505
C 18.38091 23.40478 -0.04147
C 18.35789 21.98861 -0.05302
C 17.13695 21.24656 0.00213
C 17.28407 19.81292 -0.00066
C 18.65538 19.11678 -0.00289
C 18.42765 17.75052 0.00028
C 17.31042 16.88586 -0.02213
C 17.35211 15.40867 0.03698
C 18.43958 13.92828 -0.00109
C 17.3045 12.9311 -0.00491
C 17.1062 24.10941 -0.02815
C 14.72972 4.18937 0.00798
C 15.96765 4.99154 0.00228
C 15.99462 6.38275 -0.00114
C 15.95324 30.54847 -0.0014
C 14.69279 29.89838 0.02162
C 14.63989 28.50922 0.0076
C 15.85019 27.77095 0.01241
C 15.88402 26.32705 -0.01454
C 14.70191 25.60938 0.01945
C 14.68416 24.23992 0.01416
C 15.89664 23.4548 0.03542
C 15.95178 22.03527 0.02299
C 14.73459 21.26765 0.00244
C 14.69843 19.84997 -0.01717
C 16.06353 19.14376 0.05265
C 16.04154 17.6855 -0.01952
C 14.79932 17.00404 -0.02813
C 14.79603 15.58884 0.00374
C 15.95039 14.92493 0.00052
C 16.03955 13.52033 -0.03682
C 14.79762 12.8052 0.01965
C 14.81015 11.31667 0.02058
C 16.07901 10.66036 -0.01957
C 16.06274 9.2302 -0.0108
C 14.81438 8.50481 -0.00368
C 14.79056 7.02037 -0.02696
C 14.77871 32.59104 -0.02162
C 9.86685 21.33252 0.02888
C 11.08919 22.11513 0.00685
C 11.08502 23.47608 0.00895
C 3.61682 2.24381 -0.00449
C 3.66233 0.75372 -0.01979
C 2.4141 34.05464 0.02784
C 4.93119 32.71168 -0.01977
C 6.16908 31.97108 -0.00561
C 6.1207 30.56884 0.00208
C 4.91602 29.82464 0.01707
C 4.88608 28.43431 0.02769
C 6.17914 27.67384 -0.03291
C 6.14091 26.32103 -0.04999
C 2.32836 2.86244 0.00211
C 4.92937 25.592 0.04505
C 6.1953 23.46108 -0.04307
C 6.1257 22.02326 0.03189
C 4.95722 21.35333 0.00031
C 4.91879 19.90522 -0.003
C 6.14269 19.13532 0.01402
C 6.09473 17.72962 0.02379
C 4.90995 17.02735 0.00907
C 4.8998 15.59492 0.00643
C 6.14819 14.92711 -0.01509
C 6.05872 13.44604 0.03267
C 4.90403 24.23243 0.03284
C 2.31869 4.28777 0.0064
C 3.59526 4.97729 -0.00039
C 3.62523 6.46174 0.02728
C 3.73551 30.52869 -0.01471
C 2.53158 29.80247 -0.02827
C 2.48738 28.32689 0.01078
C 3.69525 27.68111 -0.00112
C 3.69377 26.28702 0.03345
C 2.516 25.58667 0.00748
C 2.455 24.23206 0.00662
C 3.68279 23.51807 -0.0154
C 3.69695 22.01877 -0.01299
C 2.46665 21.31817 -0.00407
C 2.47216 19.92777 0.01138
C 3.67589 19.20841 0.03278
C 3.68275 17.76899 -0.00177
C 2.47734 17.07352 0.04421
C 2.46246 15.6276 0.00088
C 3.66944 14.85435 0.00828
C 3.60885 13.4765 -0.02375
C 2.32634 12.7708 0.00558
C 2.27311 11.2737 -0.0059
C 3.55094 10.62664 -0.01386
C 3.61221 9.25317 -0.02805
C 2.37389 8.58193 0.00081
C 2.39063 7.12109 0.00245
C 4.86478 12.75404 0.02374
C 4.81255 11.30996 0.00402
C 6.10554 10.71435 0.0073
C 6.1599 9.33315 0.0174
C 8.56156 13.5189 0.01227
C 7.37028 12.81089 0.00873
C 7.33979 11.35238 -0.00049
C 8.63321 10.69737 0.00848
C 8.63708 9.29715 -0.01303
C 7.38957 8.64462 -0.01378
C 7.36526 7.16459 0.02635
C 8.56165 6.41977 0.0127
C 8.49599 5.02651 0.01396
C 7.31707 4.37252 0.01849
C 7.30499 2.93167 -0.01142
C 8.54433 2.2086 -0.00562
C 8.56706 0.77135 -0.00494
C 7.37866 0.05895 0.00054
C 9.80761 32.70851 0.03007
C 10.97188 31.96775 -0.00095
C 10.9999 30.61659 0.01572
C 9.83055 29.85447 -0.04848
C 9.87468 28.4563 -0.00892
C 11.0007 27.73637 -0.01362
C 10.965 26.32615 -0.0008
C 9.83025 25.55126 0.0288
C 9.79746 24.19848 0.00393
C 8.57324 14.98566 -0.03337
C 17.26928 11.49727 0.03338
C 7.37771 15.64196 -0.00966
C 8.61061 17.78545 0.03368
C 4.91047 8.61854 0.03828
C 4.91205 7.15523 0.01226
C 6.09425 6.50717 -0.00279
C 6.11084 5.07946 0.01996
C 4.91957 4.36303 -0.03996
C 4.83155 2.89371 0.01465
C 6.06427 2.20412 -0.00074
C 6.10487 0.75664 -0.00518
C 4.94637 0.04463 0.0086
C 7.33036 32.72153 -0.00643
C 8.56679 32.06504 0.017
C 8.56934 30.58066 -0.03113
C 7.34502 29.87399 -0.02566
C 7.3412 28.49977 -0.00094
C 8.62984 27.77499 0.02322
C 8.60153 26.31304 -0.00725
C 7.3672 25.57218 -0.05697
C 7.3786 24.18994 0.01087
C 8.6576 23.42595 -0.01343
C 8.58483 22.03618 0.00988
C 7.3965 21.36328 0.0276
C 7.38516 19.90977 0.01305
C 8.65458 19.19144 -0.00077
C 7.42083 17.04596 -0.02929
C 3.76688 32.00974 0.01218
C 18.45737 10.72879 -0.0258
C 17.2522 8.58575 -0.00316
C 29.535 11.36868 -0.02155
C 30.75852 10.61129 -0.00944
C 30.79276 9.23715 -0.03735
C 29.50496 8.46912 -0.00971
C 29.48554 7.01919 0.01518
C 30.74086 6.26631 0.01908
C 30.69423 4.89464 0.07705
C 29.44585 4.24884 0.0103
C 29.39695 2.8178 0.02108
C 30.71571 2.1174 0.00716
C 29.48534 12.72344 -0.01461
C 30.74049 0.65445 0.00307
C 32.01247 32.62727 0.01713
C 33.26409 31.88546 -0.01694
C 33.23699 30.46985 0.01428
C 31.95703 29.73388 -0.02142
C 31.98838 28.32993 0.0544
C 33.22126 27.63296 0.00026
C 33.18468 26.19634 0.00682
C 31.91025 25.46134 -0.01779
C 31.87207 24.12414 0.03794
C 33.16808 23.43566 0.01927
C 29.46512 34.06742 0.00346
C 30.65152 13.46842 -0.01303
C 30.73073 14.92886 -0.0405
C 29.48527 15.64494 0.01705
C 28.32375 6.32646 0.01094
C 28.19776 4.98474 0.00235
C 27.02343 4.29984 0.01495
C 26.97192 2.89217 0.01259
C 28.20898 2.17796 0.01799
C 28.2383 0.72254 0.01699
C 27.00197 0.01408 -0.00416
C 29.48926 32.66046 0.01177
C 30.83026 31.86783 0.04266
C 30.75907 30.50016 0.01324
C 29.50153 29.77914 0.0014
C 29.50139 28.36504 0.00924
C 30.70926 27.61993 0.02326
C 30.70784 26.242 0.00261
C 29.48754 25.56718 0.03265
C 29.48356 24.15336 -0.02049
C 30.67284 23.4123 -0.01854
C 30.66582 22.03234 -0.01415
C 29.46742 21.25359 -0.03039
C 29.47518 19.85165 0.01836
C 30.73116 19.15416 0.03531
C 30.73723 17.78561 -0.00669
C 29.49832 17.11184 0.0101
C 33.1331 22.00005 0.01574
C 27.03851 7.11242 0.02198
C 31.97113 21.28403 -0.02383
C 33.2135 19.17258 -0.0136
C 1.24676 23.41815 0.00723
C 1.14828 22.02204 0.02712
C 34.36337 21.26864 -0.02213
C 34.38147 19.89552 0.01951
C 1.2152 19.19877 -0.01678
C 1.29186 17.77993 0.01223
C 0.08862 17.0658 0.00648
C 0.00962 15.67135 0.02114
C 1.20319 14.91392 -0.02957
C 1.13798 13.49904 0.00343
C 34.40328 24.10224 0.03076
C 34.33927 12.75866 -0.02656
C 1.12134 10.63011 -0.00027
C 1.13791 9.14096 -0.00583
C 34.37981 8.46201 -0.02302
C 34.36708 7.03966 -0.02849
C 1.16394 6.38058 0.02931
C 1.16289 4.96304 0.00628
C 34.33007 4.21278 -0.0345
C 34.34231 2.83154 -0.00931
C 1.16461 2.14094 -0.00939
C 1.2191 0.66012 -0.00468
C 34.39029 11.32466 -0.02442
C 0.06063 25.49428 -0.05239
C 1.301 26.20847 -0.00598
C 1.27718 27.57444 -0.00439
C 33.2147 17.80801 0.00594
C 31.96758 17.11284 -0.02474
C 31.91697 15.64336 0.00369
C 33.18522 14.98696 0.00455
C 33.14589 13.53748 -0.00644
C 31.90129 12.79227 -0.01839
C 31.98406 11.36381 0.00137
C 33.16321 10.61326 0.00199
C 33.15939 9.18587 0.04381
C 32.01985 8.41261 0.02806
C 31.92114 7.02795 0.01504
C 33.18629 6.25419 -0.00069
C 33.13842 4.86707 0.04926
C 31.88005 4.17349 -0.03838
C 31.9183 2.77298 0.00349
C 33.14953 2.09208 -0.00323
C 33.17633 0.64298 -0.00841
C 31.99802 34.01992 0.0001
C 0.03454 32.61241 -0.02927
C 1.25818 31.91097 -0.01404
C 1.24996 30.48869 0.01027
C 0.04476 29.7437 0.01831
C 0.02814 28.37185 -0.01037
C 31.94222 19.88046 -0.01429
C 27.11098 8.51657 0.02611
C 28.33951 9.2063 -0.00621
C 28.27131 10.60297 0.00194
C 19.59293 2.80469 0.00742
C 20.85559 2.03679 -0.01594
C 20.83123 0.5656 0.0106
C 19.67507 33.89897 -0.01154
C 22.20213 32.61383 -0.01721
C 23.47143 32.00457 -0.02422
C 23.42869 30.56457 0.01277
C 22.03982 30.06951 0.00096
C 21.91457 28.66489 -0.01527
C 23.24948 27.84895 0.01087
C 19.63305 4.20118 -0.00311
C 23.23108 26.36852 0.00199
C 22.03619 24.18646 -0.00478
C 23.27508 23.51231 -0.01662
C 23.27154 22.05106 -0.01185
C 22.04483 21.3764 0.01126
C 21.92291 19.96721 0.01852
C 23.49088 10.60843 -0.00381
C 23.42139 9.19184 0.03046
C 22.17028 8.57782 0.0296
C 22.21191 7.12293 0.03374
C 23.38006 6.39051 -0.02845
C 21.98732 25.64889 0.01511
C 20.95342 4.95381 0.00675
C 20.95153 6.40323 -0.00865
C 19.68529 7.04654 0.0058
C 17.19638 7.09305 0.02188
C 18.48906 6.33618 -0.01979
C 18.43669 4.99326 0.02691
C 17.25411 4.31075 -0.01581
C 17.25197 2.84886 0.01452
C 18.4112 2.04592 0.04892
C 18.49925 0.60848 -0.00111
C 17.24093 34.01409 -0.03557
C 19.73317 32.39869 0.03754
C 21.08951 31.73494 0.01739
C 19.39212 28.54676 0.00755
C 20.7285 27.90399 -0.0054
C 20.74266 26.43553 0.00667
C 19.58807 25.57502 0.00143
C 19.60717 24.16651 -0.017
C 20.81861 23.46226 0.00364
C 20.79026 22.04699 -0.00831
C 19.58752 21.33388 -0.02957
C 19.81444 19.92608 -0.04422
C 19.80437 11.3186 0.00654
C 20.95698 10.80205 -0.00703
C 20.99358 9.32209 -0.04076
C 19.77474 8.61038 -0.00652
C 23.33658 4.9624 -0.03213
C 22.12111 4.24725 0.02239
C 22.12177 2.7724 0.01153
C 23.28329 2.05426 0.02734
C 25.82153 0.72807 -0.01154
C 24.58664 0.00341 0.00684
C 27.06775 32.70654 -0.01052
C 28.28362 31.92157 -0.01679
C 28.26929 30.54809 0.00367
C 27.09027 29.73004 0.04306
C 26.98934 28.35086 0.00996
C 28.22792 27.63246 0.00195
C 28.24277 26.20086 -0.00802
C 26.987 25.50535 -0.00218
C 26.96598 24.06532 -0.01654
C 28.23242 23.44573 -0.00037
C 28.24114 22.05142 -0.0032
C 26.98696 21.28176 0.00622
C 26.91795 19.88902 -0.02815
C 28.2228 19.15169 -0.00942
C 28.23183 17.76074 0.00487
C 26.95493 16.99425 0.00826
C 27.07633 15.61487 -0.00294
C 28.29303 14.89966 0.00152
C 28.36116 13.45598 0.01257
C 27.10106 12.72681 0.02316
C 27.15754 11.3659 0.04185
C 25.77305 2.14669 -0.0264
C 18.47968 9.26823 -0.0331
C 24.59464 2.83022 -0.00938
C 25.82205 4.97479 -0.01199
C 23.33681 0.64301 -0.0055
C 22.12318 34.03953 0.01515
C 24.69334 32.7139 -0.00225
C 25.84978 31.96125 0.00071
C 25.86461 30.51422 -0.01107
C 24.63632 29.822 -0.01586
C 24.51955 28.43155 -0.01971
C 25.77331 27.68968 -0.02118
C 25.76205 26.25962 0.00733
C 24.55013 25.60293 -0.00178
C 24.5225 24.17591 0.00768
C 25.75814 23.48527 -0.0276
C 25.76777 22.0027 0.03005
C 24.53883 21.36031 -0.04078
C 24.41231 20.02058 0.02117
C 25.68201 19.20999 0.02737
C 25.82254 17.88786 -0.00498
C 24.64019 11.09615 0.00135
C 25.97077 10.60051 0.03102
C 25.88035 9.23076 0.02555
C 24.65717 8.58145 0.01423
C 24.56848 7.11169 -0.00285
C 25.84079 6.44693 -0.009
C 24.57002 4.25612 -0.00229
C 2.45483 32.64057 0.02426
