380
Graphene
C 34.40293 0.03094 0.01295
C 13.47403 30.56104 -0.01454
C 12.30508 29.85986 0.01945
C 12.26868 28.45673 0.01416
C 13.49751 27.74183 0.03542
C 13.52545 26.29125 0.02299
C 12.35942 25.58711 0.00244
C 12.2479 24.14333 -0.01717
C 13.44831 23.33627 0.05265
C 13.51154 21.929 -0.01952
C 12.26327 21.27366 -0.02813
C 12.33698 19.84107 0.00374
C 13.6147 19.13668 0.00052
C 13.54209 17.71223 -0.03682
C 12.32918 17.1198 0.01965
C 12.34057 15.69324 0.02058
C 13.52572 14.82774 -0.01957
C 13.45156 13.37198 -0.0108
C 12.25652 12.69379 -0.00368
C 12.27277 11.31571 -0.02696
C 13.48974 31.93141 0.01241
C 12.23007 32.66926 0.0076
C 9.80366 0.01109 0.02162
C 11.02137 0.71509 -0.0014
C 10.98596 23.46411 -0.01275
C 11.05237 22.09399 0.00985
C 9.88202 21.36639 -0.02245
C 9.92616 19.92787 -0.00428
C 11.12496 19.19132 0.03101
C 11.14021 17.78722 -0.01536
C 9.91625 17.05419 -0.02689
C 9.8055 15.59277 -0.01046
C 11.07724 15.06565 -0.00891
C 13.61442 10.65142 -0.00114
C 11.06202 13.6125 0.02819
C 11.19201 10.5949 -0.02971
C 10.98281 9.27853 0.02894
C 9.88588 8.43809 -0.01789
C 9.83217 7.13252 0.00444
C 11.09382 6.40344 -0.00925
C 11.05912 4.92291 0.01877
C 9.79512 4.23877 0.01363
C 9.83506 2.8367 -0.02162
C 11.10735 2.17063 0.00415
C 10.01695 12.80665 0.00165
C 13.55026 9.24795 0.00228
C 12.31368 8.6032 0.00798
C 12.31258 7.11332 0.00422
C 16.02353 14.85009 -0.0331
C 16.01528 13.39078 -0.00316
C 14.74322 12.74424 0.02188
C 14.75871 11.3271 -0.01979
C 15.98455 10.62041 0.02691
C 15.94 9.22196 -0.01581
C 14.73406 8.51261 0.01452
C 14.77751 7.1431 0.04892
C 16.02757 6.41474 -0.00111
C 14.71848 15.5613 -0.0258
C 16.02451 5.05358 -0.03557
C 14.77789 2.85778 0.01739
C 16.03885 2.12463 0.00755
C 15.95395 0.64281 -0.0054
C 14.70225 34.0259 0.00667
C 17.25539 32.62002 0.00143
C 18.45588 31.92639 -0.017
C 18.44309 30.44203 0.00364
C 17.12829 29.83925 -0.00831
C 17.17852 28.39971 -0.02957
C 14.74415 4.2833 0.03754
C 9.77711 24.26803 -0.01111
C 14.77505 16.97685 0.03338
C 16.0113 19.15046 -0.00109
C 13.50917 6.47664 0.0351
C 13.5006 5.05325 -0.03113
C 12.30513 4.3076 0.02098
C 12.32023 2.8988 0.01848
C 13.55308 2.10235 -0.00619
C 13.48496 0.65971 -0.02162
C 12.2467 0.00745 0.00889
C 14.73644 32.60986 -0.00481
C 15.97914 31.95276 0.00979
C 15.97557 17.70512 -0.00491
C 15.90813 30.52374 0.01443
C 14.73539 28.39702 -0.02815
C 15.90176 27.69318 -0.04147
C 15.96327 26.28184 -0.05302
C 14.76316 25.53805 0.00213
C 14.71412 24.09647 -0.00066
C 15.95154 23.32534 -0.00289
C 15.93681 21.91156 0.00028
C 14.73679 21.18156 -0.02213
C 14.82219 19.77637 0.03698
C 14.7483 29.81812 0.03505
C 18.4149 27.67072 -0.04422
C 9.89491 25.63423 0.02841
C 11.07094 27.75352 0.00406
C 3.67277 4.91734 -0.05697
C 2.46213 4.2227 0.01087
C 2.4158 2.8514 -0.01343
C 3.68573 2.17297 0.00988
C 3.63496 0.75779 0.0276
C 2.41571 0.02345 0.01305
C 4.85621 32.70107 -0.00077
C 6.08562 31.97981 0.03368
C 6.07063 30.59868 -0.02929
C 4.8876 29.8299 -0.00966
C 4.93672 28.43794 -0.03337
C 6.20801 27.76097 0.01227
C 6.14107 26.33421 0.00873
C 4.94801 25.63184 -0.00049
C 4.89279 24.18086 0.00848
C 6.07162 23.50833 -0.01303
C 6.13266 22.04498 -0.01378
C 4.92595 21.3112 0.02635
C 4.81585 19.89164 0.0127
C 3.70229 6.3832 -0.00725
C 2.5078 7.07883 0.02322
C 2.48122 8.494 -0.00094
C 3.67083 9.22138 -0.02566
C 3.62799 30.5399 0.00907
C 2.40636 29.8727 0.00643
C 2.43985 28.3965 -0.01509
C 3.67074 27.74124 0.03267
C 3.69056 26.29218 0.02374
C 2.4928 25.55276 0.00402
C 2.47116 24.16301 0.0073
C 3.71443 23.40904 0.0174
C 3.69752 22.02381 0.03828
C 6.05844 19.19415 0.01396
C 2.4341 21.40725 0.01226
C 3.61322 19.22257 0.01996
C 3.70372 17.8033 -0.03996
C 2.43948 17.05232 0.01465
C 2.54278 15.63879 -0.00074
C 3.74615 14.94187 -0.00518
C 3.68741 13.53632 0.0086
C 2.48964 12.82205 -0.00643
C 2.42643 11.34494 0.017
C 3.65969 10.65925 -0.03113
C 2.45551 19.97686 -0.00279
C 6.18358 17.70081 0.01849
C 4.91401 17.06581 -0.01142
C 4.96912 15.68536 -0.00562
C 7.37575 21.33251 0.02147
C 7.31648 19.87952 0.00373
C 8.63888 19.19239 -0.00191
C 8.66167 17.78673 0.00438
C 7.50517 17.03893 0.01291
C 7.49085 15.50947 0.00093
C 8.67872 14.86089 0.00057
C 7.34614 7.10688 -0.01634
C 8.53503 6.43168 -0.00334
C 8.65192 22.0913 -0.014
C 8.58081 4.94479 0.02339
C 7.30959 2.85795 -0.00719
C 8.5558 2.11846 0.01364
C 8.55793 0.62547 -0.01062
C 7.31593 0.01157 -0.00033
C 9.85633 32.6579 0.03589
C 11.04592 31.99066 -0.02759
C 11.02321 30.57813 0.0402
C 9.79681 29.87962 0.00572
C 9.82583 28.43764 0.03592
C 7.35648 4.27147 0.01641
C 11.15141 26.35234 0.00943
C 8.54624 23.54546 -0.01118
C 7.39421 25.62111 -0.02896
C 6.12216 14.96566 -0.00494
C 5.97673 13.6536 0.00054
C 5.01381 12.76568 0.03007
C 4.84626 11.36255 -0.00095
C 4.88003 8.43394 0.01572
C 4.98388 7.10427 -0.04848
C 6.13956 6.44283 -0.00892
C 6.14216 5.0148 -0.01362
C 4.95366 4.2405 -0.0008
C 7.35264 24.20995 -0.00131
C 4.88394 2.9058 0.0288
C 6.07429 0.74355 0.00895
C 4.8566 0.00993 0.00685
C 7.34562 32.69616 0.02888
C 8.60439 31.99607 -0.00482
C 8.60296 30.59073 -0.01384
C 7.34684 29.89606 0.03693
C 7.42838 28.47693 0.01745
C 8.63043 27.72456 0.00488
C 8.68101 26.28733 -0.01004
C 6.11411 2.14771 0.00393
C 18.44233 26.2299 0.00654
C 17.17909 25.61202 -0.00703
C 17.1575 24.13753 -0.04076
C 30.6799 21.97269 0.02108
C 29.46821 21.27621 0.00716
C 29.45958 19.73717 0.00307
C 30.72965 19.2166 0.00346
C 30.74115 6.39898 0.01713
C 30.60809 5.05522 -0.01694
C 29.46466 4.21416 0.01428
C 29.48484 2.87294 -0.02142
C 30.71881 2.18124 0.0544
C 30.76898 0.71661 0.00026
C 29.54195 0.01801 0.00682
C 31.96175 32.71689 -0.01779
C 33.165 32.01846 0.03794
C 33.17045 30.60975 0.01927
C 32.01313 29.78952 0.01574
C 32.04364 28.34538 -0.02383
C 33.2645 27.69963 -0.01429
C 33.22014 26.27952 -0.0136
C 31.97119 25.6061 0.00594
C 30.73771 23.45115 0.0103
C 29.51128 24.11226 0.07705
C 29.51478 25.50518 0.01908
C 30.71785 26.27618 0.01518
C 28.31596 27.69333 0.00924
C 28.2729 26.26091 0.02326
C 27.09144 25.55423 0.00261
C 27.08176 24.12298 0.03265
C 28.2957 23.45061 -0.02049
C 28.21121 21.93882 -0.01854
C 26.99312 21.24641 -0.01415
C 27.0027 19.69549 -0.03039
C 28.27812 19.09872 0.01836
C 31.95433 24.16276 -0.02474
C 26.97016 4.20144 0.03531
C 28.27313 2.13471 0.0101
C 28.25454 0.73008 0.01705
C 26.92088 33.98713 -0.0405
C 29.45413 32.6477 -0.01303
C 30.77136 31.92598 -0.01461
C 30.79861 30.49815 -0.02155
C 29.60738 29.82392 -0.00944
C 29.58943 28.31378 -0.03735
C 30.81645 27.68742 -0.00971
C 26.97 2.88243 -0.00669
C 33.14532 23.48218 0.00369
C 33.16826 22.05329 0.00455
C 31.88608 21.31017 -0.00644
C 0.01155 21.35576 -0.02213
C 34.40101 19.92062 0.01951
C 1.15021 19.20528 -0.01678
C 1.21381 17.81203 0.01223
C 34.26998 17.01072 0.00648
C 0.0548 15.61113 0.02114
C 1.22627 14.92203 -0.02957
C 1.18494 13.50431 0.00343
C 0.04209 12.67532 -0.02656
C 1.24511 22.1487 0.02712
C 0.0519 11.40285 -0.02442
C 1.20397 9.18135 -0.00583
C 34.40169 8.52427 -0.02302
C 34.37475 7.06612 -0.02849
C 1.24644 6.39115 0.02931
C 1.19588 4.98031 0.00628
C 34.37982 4.27608 -0.0345
C 34.33091 2.80425 -0.00931
C 1.14152 2.13315 -0.00939
C 1.17671 0.73665 -0.00468
C 1.16707 10.62879 -0.00027
C 26.99246 28.55978 0.0014
C 1.23373 23.53334 0.00723
C 34.40767 25.54431 -0.05239
C 31.89999 19.844 -0.01839
C 33.13453 19.15962 0.00137
C 33.11616 17.76267 0.00199
C 33.19383 9.19716 0.04381
C 32.20737 8.46029 0.02806
C 31.85394 7.12624 0.01504
C 33.13684 6.40233 -0.00069
C 33.16235 5.03247 0.04926
C 31.95063 4.32456 -0.03838
C 34.41859 24.17227 0.03076
C 31.94059 2.89276 0.00349
C 33.19396 0.75022 -0.00841
C 31.98201 0.0329 0.0001
C 34.42191 32.69591 -0.02927
C 1.19894 31.9544 -0.01404
C 1.15623 30.5605 0.01027
C 34.37975 29.91842 0.01831
C 0.02691 28.4165 -0.01037
C 1.21959 27.73745 -0.00439
C 1.22303 26.23459 -0.00598
C 33.12698 2.15835 -0.00323
C 27.13697 29.90813 0.01324
C 28.31263 30.48921 0.04266
C 28.22571 31.90384 0.01177
C 20.82929 31.93824 0.0296
C 19.63876 29.88002 0.03374
C 19.73385 28.45847 -0.02845
C 20.88573 27.64183 -0.03213
C 20.94337 26.249 0.02239
C 19.68097 25.57197 0.01153
C 19.74358 24.15735 0.02734
C 20.94113 23.37495 -0.0055
C 20.89838 21.93084 0.01515
C 19.71086 32.63777 0.03046
C 19.69409 21.23052 -0.00225
C 20.81741 19.15805 -0.01107
C 20.85894 17.76349 -0.01586
C 19.64457 17.02494 -0.01971
C 19.66974 15.66018 -0.02118
C 20.86185 14.85013 0.00733
C 20.843 13.49094 -0.00178
C 19.6776 12.70386 0.00768
C 19.69393 11.28726 -0.0276
C 21.04048 10.51926 0.03005
C 19.62123 19.7942 0.00071
C 20.88551 9.18005 -0.04078
C 17.15525 34.01475 -0.00381
C 18.37854 2.11661 0.01126
C 18.40733 23.39685 -0.00652
C 18.45727 21.99674 0.0058
C 17.24699 21.24221 -0.00865
C 17.21592 19.80605 0.00675
C 18.37908 19.09461 -0.00311
C 18.38896 17.69987 0.00742
C 17.15854 16.98529 -0.01594
C 17.22758 15.5586 0.0106
C 18.44277 14.80737 -0.01154
C 18.43046 0.67387 0.01852
C 18.42824 13.41372 -0.01721
C 17.23291 11.29055 0.01277
C 18.52116 10.64378 0.00096
C 18.42469 9.2088 -0.01527
C 17.19443 8.58144 0.01087
C 17.30233 7.157 0.00199
C 18.54582 6.40751 0.01511
C 18.47742 4.98583 -0.00478
C 17.27977 4.31575 -0.01662
C 17.25711 2.85581 -0.01185
C 17.22301 12.72114 -0.02422
C 3.63652 31.99238 0.02379
C 19.64142 8.46983 0.02117
C 20.94777 6.42726 -0.00498
C 22.09816 2.84676 -0.02815
C 23.32163 2.17039 -0.00942
C 23.25591 0.63844 0.00487
C 22.02388 34.04524 0.00826
C 25.91965 27.70083 -0.00294
C 25.83377 26.36811 0.00152
C 24.65281 25.60646 0.01257
C 24.73413 24.17122 0.02316
C 25.84758 23.41889 0.04185
C 22.05856 4.26229 0.00622
C 25.74808 22.02168 0.00194
C 24.61467 19.86285 0.02611
C 25.75069 19.08456 0.02198
C 24.90395 17.30293 0.01094
C 24.42955 4.32572 0.00235
C 24.60328 2.89655 0.01495
C 25.73415 2.07036 0.01259
C 25.69612 0.66217 0.01799
C 24.48102 0.05766 0.01699
C 26.96405 32.5886 -0.00416
C 24.51641 21.27498 -0.00621
C 19.66845 7.11412 0.02737
C 23.33973 4.86005 -0.0032
C 22.08454 11.43296 -0.01654
C 20.88156 4.94696 0.00135
C 19.68591 4.2647 0.03102
C 19.66098 2.8138 0.02555
C 20.85117 2.11289 0.01423
C 20.86208 0.68731 -0.00285
C 19.64467 34.05056 -0.009
C 23.3957 26.09421 -0.01199
C 22.18241 25.5178 -0.00229
C 22.14509 24.09279 -0.00938
C 22.14095 7.12712 -0.00037
C 23.42979 23.46293 -0.0264
C 22.13352 21.22508 0.00684
C 22.12595 19.85874 -0.01052
C 23.32713 19.18668 -0.01679
C 23.54295 17.70026 0.00367
C 22.15212 16.97915 0.04306
C 22.15093 15.6174 0.00996
C 23.37873 14.90831 0.00195
C 23.3786 13.68838 -0.00802
C 22.24995 12.72219 -0.00218
C 23.31122 22.02077 -0.01154
C 2.41605 32.68593 0.01402
