336
Graphene
C 34.41429 0.01028 0.01295
C 16.00764 27.67601 -0.00481
C 14.71422 7.11101 0.00979
C 15.9155 6.48641 0.01443
C 15.89388 5.11155 0.03505
C 14.64242 4.34486 -0.02815
C 14.71934 2.84499 -0.04147
C 15.90933 2.07014 -0.05302
C 15.90684 0.63219 0.00213
C 14.72336 34.05172 -0.00066
C 17.22811 32.64229 -0.00289
C 18.4201 31.8946 0.00028
C 18.46759 30.51283 -0.02213
C 17.24594 29.75443 0.03698
C 17.22443 28.30589 -0.00109
C 18.58484 27.81803 -0.00491
C 18.48755 8.99568 0.03338
C 17.38874 8.28644 -0.0258
C 14.83275 28.20384 0.00889
C 17.16184 7.02548 -0.0331
C 14.76574 29.71611 -0.02162
C 16.07893 31.7816 0.01848
C 9.67706 2.83017 -0.02813
C 11.07259 2.46173 0.00374
C 11.11497 0.86735 0.00052
C 9.83806 0.03562 -0.03682
C 12.35104 32.75496 0.01965
C 13.54635 31.95724 0.02058
C 13.49778 30.51578 -0.01957
C 12.27529 29.84556 -0.0108
C 12.22745 28.27474 -0.00368
C 13.44655 27.77015 -0.02696
C 13.59631 6.33089 -0.00114
C 13.46882 5.04514 0.00228
C 12.41934 2.98901 0.00798
C 13.51574 2.19668 0.00422
C 13.52759 0.69354 0.0351
C 12.23832 0.1022 -0.03113
C 14.77607 32.56622 0.02098
C 16.01534 30.41884 -0.00619
C 9.8408 8.64768 -0.01952
C 18.45344 6.27927 -0.00316
C 17.16538 4.21743 -0.01979
C 19.57631 0.0581 0.0058
C 22.14557 32.74786 -0.00865
C 23.40186 31.97334 0.00675
C 23.34722 30.58655 -0.00311
C 22.14243 29.8927 0.00742
C 22.15117 28.52479 -0.01594
C 23.31434 27.70674 0.0106
C 23.32708 26.23485 -0.01154
C 21.99191 25.50194 -0.01721
C 22.10594 24.25979 -0.02422
C 23.17848 23.38274 0.01277
C 23.43462 22.05244 0.00096
C 23.37621 14.94536 -0.01527
C 23.29052 13.47346 0.01087
C 22.29315 12.74172 0.00199
C 22.12334 11.40245 0.01511
C 23.37041 10.62378 -0.00478
C 20.83949 0.73223 -0.00652
C 18.44667 4.81195 0.02188
C 20.86486 2.10297 -0.04076
C 19.68062 4.26683 0.00654
C 17.07825 2.7801 0.02691
C 18.40331 2.09566 -0.01581
C 18.38301 0.73309 0.01452
C 17.15701 34.04985 0.04892
C 19.69839 32.69853 -0.00111
C 20.93046 32.07067 -0.03557
C 20.8891 30.65232 0.03754
C 19.70663 29.87095 0.01739
C 19.76261 28.44377 0.00755
C 20.96365 27.74899 -0.0054
C 20.92901 26.3988 0.00667
C 20.96191 10.60907 0.00143
C 20.86859 9.27133 -0.017
C 19.67007 8.49965 0.00364
C 19.69954 7.04985 -0.00831
C 20.92465 6.40888 -0.02957
C 20.90946 4.95423 -0.04422
C 19.66567 2.82203 -0.00703
C 23.40805 9.22738 -0.01662
C 10.98781 27.79241 0.05265
C 9.85706 29.93701 0.00244
C 2.41126 8.49376 0.00488
C 2.45209 7.03419 -0.01004
C 3.64052 6.34065 -0.02896
C 3.64478 4.91477 -0.00131
C 2.39256 4.22567 -0.01118
C 2.42915 2.78574 -0.014
C 3.66591 2.13882 0.02147
C 3.695 0.73225 0.00373
C 2.43401 34.07119 -0.00191
C 4.89308 32.71683 0.00438
C 6.21704 31.91566 0.01291
C 6.20538 30.574 0.00093
C 4.97361 29.82491 0.00057
C 4.93523 28.44323 -0.01634
C 6.11038 27.67725 -0.00334
C 6.01472 26.36972 0.02339
C 4.8263 25.57407 0.01641
C 3.64429 9.18318 0.01745
C 4.85609 24.16663 -0.00719
C 3.66817 10.64154 0.03693
C 2.47788 12.76888 -0.00482
C 3.68101 30.57392 0.01849
C 2.41981 29.89875 -0.01142
C 2.46805 28.5223 -0.00562
C 3.67883 27.79515 -0.00494
C 3.67718 26.33364 0.00054
C 2.40119 25.57998 0.03007
C 2.42964 24.17935 -0.00095
C 3.6759 23.41081 0.01572
C 3.75037 21.94098 -0.04848
C 2.49667 21.3007 -0.00892
C 2.46758 19.79136 -0.01362
C 3.73615 19.07474 -0.0008
C 3.68478 17.68772 0.0288
C 2.47102 17.05111 0.00393
C 2.45874 15.65701 0.00895
C 3.65387 14.89491 0.00685
C 3.65603 13.57187 0.02888
C 2.45336 11.40486 -0.01384
C 9.81944 28.43977 -0.01717
C 6.25855 23.30219 0.01364
C 5.02136 21.15476 -0.00033
C 8.56344 27.70695 0.02894
C 8.59698 26.37487 -0.01789
C 7.33248 25.59319 0.00444
C 7.21154 24.27224 -0.00925
C 8.58513 9.1646 0.01877
C 7.36541 8.56377 0.01363
C 7.44838 7.17078 -0.02162
C 8.70316 6.38676 0.00415
C 8.63973 5.01377 -0.0014
C 7.46056 4.30959 0.02162
C 7.38186 2.93355 0.0076
C 8.5475 2.1415 0.01241
C 8.578 0.68064 -0.01454
C 7.33076 34.06635 0.01945
C 9.9158 32.7473 0.01416
C 11.17653 32.0149 0.03542
C 11.07404 30.56118 0.02299
C 7.43178 28.41551 -0.02971
C 6.0758 21.91865 -0.01062
C 7.42439 29.84529 0.00165
C 8.67715 31.99329 -0.00891
C 4.90023 19.82876 0.03589
C 4.88345 17.01674 -0.02759
C 4.74113 15.67116 0.0402
C 4.66141 12.72015 0.00572
C 5.00438 11.40376 0.03592
C 6.11781 10.59282 0.00406
C 6.15023 9.23719 0.00943
C 4.85523 8.58748 0.02841
C 4.9036 7.06237 -0.01111
C 6.17973 6.38455 -0.01275
C 6.13707 4.96016 0.00985
C 4.92373 4.25714 -0.02245
C 4.91369 2.84471 -0.00428
C 6.14039 2.16567 0.03101
C 6.18687 0.75426 -0.01536
C 4.94329 0.05042 -0.02689
C 7.39181 32.67961 -0.01046
C 8.67157 30.60185 0.02819
C 22.12541 8.60013 -0.01185
C 22.06226 7.18469 0.01126
C 23.34869 6.43717 0.01852
C 31.90026 28.39155 0.0544
C 33.13783 27.71952 0.00026
C 33.19007 26.30797 0.00682
C 31.92103 25.52785 -0.01779
C 31.96196 24.14497 0.03794
C 33.21516 23.49677 0.01927
C 33.22887 22.01777 0.01574
C 32.01765 21.2485 -0.02383
C 31.88744 19.85913 -0.01429
C 33.22042 19.20811 -0.0136
C 33.154 17.7431 0.00594
C 31.89363 17.03786 -0.02474
C 31.85039 15.62241 0.00369
C 33.20479 14.93212 0.00455
C 33.25005 13.54492 -0.00644
C 31.95338 12.76735 -0.01839
C 31.93774 11.44691 0.00137
C 31.95021 29.82601 -0.02142
C 33.23818 10.6684 0.00199
C 33.20387 30.53468 0.01428
C 32.00847 32.6672 0.01713
C 29.51736 17.00737 0.0101
C 29.45917 15.59497 0.01705
C 30.66188 14.96428 -0.0405
C 30.74472 13.44445 -0.01303
C 29.56858 12.79002 -0.01461
C 29.49725 11.34601 -0.02155
C 30.71396 10.68803 -0.00944
C 30.70172 9.25418 -0.03735
C 29.47109 8.51751 -0.00971
C 29.50879 7.13276 0.01518
C 30.78741 6.39602 0.01908
C 30.7286 5.01322 0.07705
C 29.47006 4.2771 0.0103
C 29.49023 2.88782 0.02108
C 30.73467 2.123 0.00716
C 30.67843 0.76698 0.00307
C 29.50605 0.02217 0.00346
C 33.18851 31.99511 -0.01694
C 30.68592 17.65905 -0.00669
C 33.16926 9.24022 0.04381
C 32.03699 7.1323 0.01504
C 1.24266 17.75123 0.01223
C 34.40227 17.13043 0.00648
C 34.41397 15.65361 0.02114
C 1.13434 14.865 -0.02957
C 1.22023 13.52675 0.00343
C 34.39244 12.80964 -0.02656
C 34.42467 11.3386 -0.02442
C 1.23319 10.61479 -0.00027
C 1.12836 9.25525 -0.00583
C 34.38388 8.47842 -0.02302
C 34.4096 7.10172 -0.02849
C 1.2593 6.37316 0.02931
C 1.19207 4.90999 0.00628
C 34.39534 4.25623 -0.0345
C 34.39499 2.82233 -0.00931
C 1.15907 2.05981 -0.00939
C 1.19595 0.70808 -0.00468
C 1.26609 19.15858 -0.01678
C 31.95431 8.52109 0.02806
C 34.40745 19.89555 0.01951
C 1.26798 22.02969 0.02712
C 33.22593 6.35239 -0.00069
C 33.11387 4.97123 0.04926
C 31.94343 4.24774 -0.03838
C 31.9046 2.8666 0.00349
C 33.15166 2.16168 -0.00323
C 33.23501 0.76985 -0.00841
C 31.97971 0.01177 0.0001
C 0.02761 32.71399 -0.02927
C 1.2244 31.99585 -0.01404
C 1.24637 30.61403 0.01027
C 0.0248 29.84172 0.01831
C 0.0431 28.41963 -0.01037
C 1.26198 27.70949 -0.00439
C 1.16922 26.32347 -0.00598
C 34.42008 25.62281 -0.05239
C 0.01854 24.11075 0.03076
C 1.23823 23.38506 0.00723
C 0.00047 21.26626 -0.02213
C 30.69609 19.19271 0.03531
C 29.46826 19.84647 0.01836
C 29.50776 21.22939 -0.03039
C 24.76315 17.00735 0.03005
C 24.45202 15.77598 -0.04078
C 25.79551 14.92977 0.02117
C 25.74213 13.52518 0.02737
C 24.57329 12.7101 -0.00498
C 24.57865 11.36177 0.00135
C 25.86202 10.66367 0.03102
C 25.84001 9.24702 0.02555
C 24.6158 8.57749 0.01423
C 24.58242 7.17707 -0.00285
C 25.80007 6.41384 -0.009
C 25.79362 4.94349 -0.01199
C 24.52544 4.20509 -0.00229
C 24.57779 2.85222 -0.00938
C 25.82683 2.14332 -0.0264
C 25.77897 0.71877 -0.01154
C 24.53948 34.04427 0.00684
C 25.90104 17.77869 -0.0276
C 26.98269 32.67285 -0.01052
C 25.82409 19.26903 0.00768
C 24.49145 21.2668 0.00733
C 23.3631 5.03416 -0.00381
C 22.14083 4.25474 0.03046
C 22.11121 2.84178 0.0296
C 23.35058 2.16647 0.03374
C 23.40443 0.75333 -0.02845
C 22.17374 0.0022 -0.03213
C 24.60744 32.67305 0.02239
C 25.82406 31.92139 0.01153
C 25.85495 30.4749 0.02734
C 24.5654 29.78713 -0.0055
C 24.50208 28.36637 0.01515
C 25.84658 27.63109 -0.00225
C 25.83114 26.17855 0.00071
C 24.54103 25.4416 -0.01107
C 24.52863 24.09146 -0.01586
C 25.79878 23.34327 -0.01971
C 25.84867 22.00314 -0.02118
C 24.59323 19.92651 -0.00178
C 28.18029 31.89825 -0.01679
C 28.24161 30.47407 0.00367
C 27.01542 29.74906 0.04306
C 28.2364 4.97726 0.00235
C 27.00989 4.26713 0.01495
C 27.07383 2.83295 0.01259
C 28.25148 2.11797 0.01799
C 28.2521 0.64242 0.01699
C 27.0194 0.03418 -0.00416
C 29.52071 32.64178 0.01177
C 30.74297 31.9888 0.04266
C 30.74405 30.52473 0.01324
C 29.47576 29.80367 0.0014
C 29.4335 28.38456 0.00924
C 30.75418 27.64729 0.02326
C 30.74267 26.27104 0.00261
C 29.52018 25.4541 0.03265
C 29.57664 24.04597 -0.02049
C 30.77728 23.37088 -0.01854
C 30.69439 21.95605 -0.01415
C 28.27355 6.38219 0.01094
C 27.04588 6.99891 0.02198
C 27.00189 8.52752 0.02611
C 28.25612 9.26651 -0.00621
C 27.0549 28.23476 0.00996
C 28.26458 27.61687 0.00195
C 28.23281 26.16922 -0.00802
C 27.05919 25.5093 -0.00218
C 27.04095 24.07887 -0.01654
C 28.28986 23.39755 -0.00037
C 28.32688 22.01128 -0.0032
C 27.05957 21.30475 0.00622
C 3.75776 31.95696 0.01396
C 27.03655 19.90853 -0.02815
C 28.25224 17.80047 0.00487
C 27.05762 17.07165 0.00826
C 26.99021 15.63051 -0.00294
C 28.20084 14.865 0.00152
C 28.25639 13.55725 0.01257
C 27.0221 12.83377 0.02316
C 27.03307 11.42695 0.04185
C 28.26574 10.64134 0.00194
C 28.22894 19.20359 -0.00942
C 2.50492 32.62661 0.0127
