428
Graphene
C 0.05597 34.00565 0.01295
C 12.26192 2.93258 0.03589
C 13.57627 2.15491 -0.02759
C 13.48752 0.74797 0.0402
C 12.28907 34.07752 0.00572
C 14.75594 32.63096 0.03592
C 15.97373 31.90985 0.00406
C 15.97891 30.52572 0.00943
C 14.75518 29.73495 0.02841
C 14.79022 28.38151 -0.01111
C 16.016 27.64887 -0.01275
C 12.25447 4.28093 -0.00033
C 15.93789 26.25074 0.00985
C 14.76449 24.1766 -0.00428
C 16.00487 23.52931 0.03101
C 15.96764 22.01199 -0.01536
C 14.78451 21.22588 -0.02689
C 14.75316 19.79915 -0.01046
C 15.98942 19.0447 -0.00891
C 15.91315 17.6728 0.02819
C 14.7396 17.00693 0.00165
C 14.75895 15.56883 -0.02971
C 15.95065 14.90805 0.02894
C 14.73649 25.55859 -0.02245
C 13.55855 5.02859 -0.01062
C 13.47819 6.43804 0.01364
C 12.21916 7.09088 -0.00719
C 13.54742 31.95182 0.00685
C 13.51532 30.53677 0.02888
C 12.32224 29.8865 -0.00482
C 12.27267 28.49204 -0.01384
C 13.47083 27.7392 0.03693
C 13.47573 26.28542 0.01745
C 12.30039 25.67649 0.00488
C 12.37273 24.19249 -0.01004
C 13.57691 23.45324 -0.02896
C 13.59599 21.97194 -0.00131
C 12.31919 21.31672 -0.01118
C 12.28141 19.93133 -0.014
C 13.52175 19.12214 0.02147
C 13.46811 17.64327 0.00373
C 12.18287 17.04796 -0.00191
C 12.27663 15.6298 0.00438
C 13.50887 14.9275 0.01291
C 13.55076 13.52486 0.00093
C 12.34723 12.87791 0.00057
C 12.22851 11.48345 -0.01634
C 13.48694 10.68264 -0.00334
C 13.43647 9.30993 0.02339
C 12.22747 8.59723 0.01641
C 16.07876 13.47859 -0.01789
C 14.83426 12.75299 0.00444
C 14.74488 11.40967 -0.00925
C 15.99139 10.63567 0.01877
C 18.41017 14.8493 0.00228
C 18.46152 13.50558 0.00798
C 17.24182 12.6992 0.00422
C 17.20837 11.38151 0.0351
C 18.377 10.61167 -0.03113
C 18.39576 9.22691 0.02098
C 17.14485 8.51574 0.01848
C 17.18851 7.01841 -0.00619
C 18.42435 6.28967 -0.02162
C 18.45619 4.89293 0.00889
C 17.16881 4.26931 -0.00481
C 17.15653 2.80759 0.00979
C 18.40178 2.15156 0.01443
C 18.40556 0.74032 0.03505
C 17.22378 34.0299 -0.02815
C 19.63495 32.72031 -0.04147
C 20.86266 31.96598 -0.05302
C 20.85947 30.59303 0.00213
C 19.71245 29.818 -0.00066
C 19.71089 28.38367 -0.00289
C 20.9595 27.70449 0.00028
C 20.92698 26.31907 -0.02213
C 19.71639 25.63107 0.03698
C 17.1871 15.58849 -0.00114
C 12.31317 32.66041 0.00895
C 17.21049 16.96446 -0.02696
C 18.39681 19.22986 -0.0108
C 15.95964 9.2325 0.01363
C 14.69811 8.615 -0.02162
C 14.74086 7.19215 0.00415
C 15.88438 6.39097 -0.0014
C 15.95424 4.97347 0.02162
C 14.6784 4.30088 0.0076
C 14.71542 2.91685 0.01241
C 15.95848 2.12663 -0.01454
C 15.90484 0.7317 0.01945
C 14.70276 0.02299 0.01416
C 17.18682 32.6715 0.03542
C 18.46858 31.98927 0.02299
C 18.48073 30.55568 0.00244
C 17.17375 29.85859 -0.01717
C 17.2312 28.38192 0.05265
C 18.44322 27.7596 -0.01952
C 18.47138 26.29194 -0.02813
C 17.25149 25.56109 0.00374
C 17.26817 24.1266 0.00052
C 18.46504 23.47886 -0.03682
C 18.41237 21.97716 0.01965
C 17.16642 21.31565 0.02058
C 17.16514 19.88596 -0.01957
C 18.34843 17.8053 -0.00368
C 19.69359 24.17385 -0.00109
C 9.81631 34.07365 0.00393
C 11.08039 2.11744 -0.0008
C 6.20467 30.57862 -0.00039
C 4.9779 29.89553 0.0064
C 4.89825 28.43397 0.00211
C 6.02595 27.74041 -0.00449
C 6.03803 26.34293 -0.01979
C 4.86833 25.54535 0.02784
C 4.96874 24.07809 -0.01977
C 6.13263 23.41644 -0.00561
C 6.16005 21.78448 0.00208
C 4.91028 21.31328 0.01707
C 6.14998 32.01152 0.02728
C 4.94492 12.67748 0.02769
C 6.10026 10.77741 -0.04999
C 6.07798 9.26966 0.04505
C 4.89696 8.50902 0.03284
C 4.87967 7.10939 -0.04307
C 6.15122 6.33234 0.03189
C 6.13491 4.9203 0.00031
C 4.93703 4.25651 -0.003
C 4.84372 2.84365 0.01402
C 6.17869 2.15215 0.02379
C 6.15295 0.64417 0.00907
C 4.8718 11.31454 -0.03291
C 4.95186 32.66292 0.00245
C 2.44329 34.01295 0.00081
C 3.7116 0.73573 -0.02805
C 3.72583 30.61224 0.00787
C 2.50323 29.86504 0.02426
C 2.50875 28.46327 0.01218
C 3.65556 27.70655 -0.01471
C 3.64904 26.27881 -0.02827
C 2.42405 25.50296 0.01078
C 2.42776 24.1035 -0.00112
C 3.70717 23.46422 0.03345
C 3.70588 22.02059 0.00748
C 2.40942 21.41422 0.00662
C 2.36246 20.09811 -0.0154
C 3.82104 13.42383 -0.01299
C 2.53566 12.88173 -0.00407
C 2.44608 11.35045 0.01138
C 3.63786 10.6615 0.03278
C 3.60398 9.10526 -0.00177
C 2.34867 8.393 0.04421
C 2.34291 7.04564 0.00088
C 3.62364 6.38711 0.00828
C 3.67002 4.92799 -0.02375
C 2.43682 4.20863 0.00558
C 2.41496 2.85677 -0.0059
C 3.70484 2.07262 -0.01386
C 4.95293 34.04658 0.00643
C 7.37755 32.73092 -0.01509
C 8.59929 31.95195 0.03267
C 8.60702 30.55185 0.02374
C 9.76275 28.46236 -0.02929
C 11.03861 27.81115 -0.00966
C 11.04866 26.33347 -0.03337
C 9.73971 25.63518 0.01227
C 9.76689 24.1832 0.00873
C 11.09284 23.55464 -0.00049
C 11.11478 22.12674 0.00848
C 9.884 21.44805 -0.01303
C 9.89161 20.11213 -0.01378
C 10.89952 19.17598 0.02635
C 11.05619 17.73784 0.0127
C 11.01369 14.90756 0.01396
C 11.06685 13.57992 0.01849
C 9.83407 12.91817 -0.01142
C 9.84734 11.45267 -0.00562
C 11.06509 10.72394 -0.00494
C 10.99492 9.29415 0.00054
C 9.80948 8.58228 0.03007
C 9.7755 7.12108 -0.00095
C 11.02769 6.41202 0.01572
C 11.07543 5.00392 -0.04848
C 9.88182 4.31024 -0.00892
C 9.86768 2.8885 -0.01362
C 9.83725 29.85349 0.03368
C 11.05829 0.71208 0.0288
C 11.11063 30.56447 -0.00077
C 9.83045 32.63432 0.0276
C 7.4059 29.84607 0.00402
C 7.30737 28.41257 0.0073
C 8.58737 27.7527 0.0174
C 8.54812 26.30385 0.03828
C 7.28543 25.61625 0.01226
C 7.31807 24.10579 -0.00279
C 8.62572 23.50135 0.01996
C 8.57044 22.11368 -0.03996
C 7.51778 21.29704 0.01465
C 8.61122 13.3588 -0.00074
C 7.42918 12.78708 -0.00518
C 7.26863 11.44483 0.0086
C 8.56113 10.69721 -0.00643
C 8.53084 9.30389 0.017
C 7.25898 8.60431 -0.03113
C 7.28357 7.18335 -0.02566
C 8.54245 6.4416 -0.00094
C 8.53262 5.06218 0.02322
C 7.39941 4.25611 -0.00725
C 7.32904 2.80502 -0.05697
C 8.6528 2.1168 0.01087
C 8.64895 0.70845 -0.01343
C 7.38176 0.07915 0.00988
C 11.05222 31.96724 0.01305
C 20.93556 23.52992 -0.00491
C 20.96229 22.05928 0.03338
C 19.66254 21.31401 -0.0258
C 29.48769 12.78094 -0.01461
C 29.48879 11.31571 -0.02155
C 30.7226 10.58041 -0.00944
C 30.74289 9.17196 -0.03735
C 29.5254 8.49971 -0.00971
C 29.50254 7.03427 0.01518
C 30.61055 6.30043 0.01908
C 30.74213 4.85936 0.07705
C 29.47175 4.18841 0.0103
C 29.48175 2.82634 0.02108
C 30.67346 13.49371 -0.01303
C 30.73509 2.11514 0.00716
C 29.52527 0.04028 0.00346
C 31.94342 32.60127 0.01713
C 33.23445 31.85638 -0.01694
C 33.23551 30.43514 0.01428
C 31.99809 29.77253 -0.02142
C 31.9744 28.27431 0.0544
C 33.22416 27.61502 0.00026
C 33.1827 26.23989 0.00682
C 31.8957 25.57163 -0.01779
C 31.88098 24.16186 0.03794
C 30.74359 0.7253 0.00307
C 30.70112 14.92942 -0.0405
C 29.54275 15.69812 0.01705
C 29.46737 17.05976 0.0101
C 27.04491 7.10799 0.02198
C 28.22348 6.43227 0.01094
C 28.26271 5.03949 0.00235
C 27.00399 4.28002 0.01495
C 27.05527 2.88473 0.01259
C 28.28976 2.11504 0.01799
C 28.28329 0.66808 0.01699
C 27.02699 0.0561 -0.00416
C 29.52272 32.57319 0.01177
C 30.78188 31.88727 0.04266
C 30.74907 30.41989 0.01324
C 29.45211 29.77466 0.0014
C 29.42739 28.37587 0.00924
C 30.75489 27.64983 0.02326
C 30.71768 26.20509 0.00261
C 29.47939 25.55752 0.03265
C 29.50834 24.13275 -0.02049
C 30.7231 23.45671 -0.01854
C 30.76877 21.93133 -0.01415
C 29.49353 21.31949 -0.03039
C 29.52866 19.95211 0.01836
C 30.74192 19.18745 0.03531
C 30.77972 17.77465 -0.00669
C 33.17046 23.47516 0.01927
C 33.16268 22.05862 0.01574
C 31.95879 21.29494 -0.02383
C 31.95712 19.83185 -0.01429
C 34.39392 24.15308 0.03076
C 1.17637 23.50122 0.00723
C 1.19125 22.09048 0.02712
C 0.00611 21.35785 -0.02213
C 34.41083 19.90376 0.01951
C 1.27465 19.11691 -0.01678
C 1.17405 17.76547 0.01223
C 34.42405 17.0421 0.00648
C 0.01282 15.64394 0.02114
C 1.17154 14.90157 -0.02957
C 1.27762 13.52462 0.00343
C 34.35405 12.79525 -0.02656
C 34.42943 11.41047 -0.02442
C 1.23215 10.68107 -0.00027
C 1.2137 9.22934 -0.00583
C 34.40178 8.45333 -0.02302
C 34.28618 7.04492 -0.02849
C 1.13219 6.33699 0.02931
C 1.17362 4.89828 0.00628
C 34.36488 4.16972 -0.0345
C 0.01256 2.80953 -0.00931
C 1.26499 2.0667 -0.00939
C 1.24021 0.7029 -0.00468
C 34.372 25.57512 -0.05239
C 27.01772 8.51858 0.02611
C 1.23939 26.22182 -0.00598
C 0.10751 28.28419 -0.01037
C 33.19179 19.13455 -0.0136
C 33.23059 17.72118 0.00594
C 31.96035 17.04934 -0.02474
C 31.92776 15.65862 0.00369
C 33.16571 14.86963 0.00455
C 33.08869 13.49211 -0.00644
C 31.86569 12.76923 -0.01839
C 31.93775 11.39042 0.00137
C 33.25793 10.61085 0.00199
C 33.17107 9.21907 0.04381
C 31.93598 8.51069 0.02806
C 31.94076 7.04083 0.01504
C 33.14095 6.38414 -0.00069
C 33.13817 4.90216 0.04926
C 31.97074 4.12962 -0.03838
C 31.98112 2.7434 0.00349
C 33.2249 2.0439 -0.00323
C 33.23335 0.61638 -0.00841
C 31.98269 34.02579 0.0001
C 34.42163 32.67642 -0.02927
C 1.20624 31.92499 -0.01404
C 1.28253 30.47333 0.01027
C 0.065 29.70745 0.01831
C 1.29745 27.6425 -0.00439
C 28.31755 9.20443 -0.00621
C 28.29237 10.59833 0.00194
C 27.11107 11.40279 0.04185
C 22.18696 25.6137 0.00675
C 22.1203 24.15257 -0.00311
C 23.35574 23.38706 0.00742
C 23.38533 21.97792 -0.01594
C 22.12265 21.32986 0.0106
C 22.15662 19.86929 -0.01154
C 23.40424 19.16628 -0.01721
C 23.33592 17.75249 -0.02422
C 22.0559 17.10663 0.01277
C 22.11059 15.58962 0.00096
C 23.38678 14.96763 -0.01527
C 23.34504 13.48575 0.01087
C 22.11861 12.83365 0.00199
C 22.09618 11.38726 0.01511
C 23.37418 10.66335 -0.00478
C 23.38955 9.29065 -0.01662
C 22.08751 8.56967 -0.01185
C 22.09909 7.11752 0.01126
C 23.33133 6.49361 0.01852
C 23.37358 4.95772 -0.00381
C 22.13511 4.25172 0.03046
C 22.12228 2.84232 0.0296
C 23.39454 2.0499 0.03374
C 23.39333 26.29967 -0.00865
C 23.38362 0.61789 -0.02845
C 23.33622 27.71105 0.0058
C 22.12562 29.81807 -0.04076
C 19.74659 19.93845 -0.0331
C 20.96904 19.16595 -0.00316
C 20.87491 17.70278 0.02188
C 19.5916 17.03886 -0.01979
C 19.61506 15.61831 0.02691
C 20.83419 14.86545 -0.01581
C 20.78343 13.46516 0.01452
C 19.67611 12.75886 0.04892
C 19.61323 11.32078 -0.00111
C 20.88615 10.6392 -0.03557
C 20.88369 9.26407 0.03754
C 19.64904 8.47301 0.01739
C 19.61681 7.06404 0.00755
C 20.86449 6.40428 -0.0054
C 20.93968 4.92264 0.00667
C 19.71383 4.21615 0.00143
C 19.64449 2.7373 -0.017
C 20.9537 2.13083 0.00364
C 20.95754 0.70732 -0.00831
C 19.59144 0.04159 -0.02957
C 22.09974 32.59094 -0.04422
C 23.34803 31.92222 0.00654
C 23.29322 30.50911 -0.00703
C 22.18605 28.40942 -0.00652
C 3.71005 31.99181 0.00267
C 22.11718 34.02637 -0.03213
C 25.84143 31.91504 0.01153
C 25.80779 2.12426 -0.0264
C 25.77516 0.69229 -0.01154
C 24.5859 33.97689 0.00684
C 27.08331 32.72519 -0.01052
C 28.27684 31.95225 -0.01679
C 28.20587 30.49592 0.00367
C 26.98906 29.75865 0.04306
C 27.03409 28.33926 0.00996
C 28.31656 27.6642 0.00195
C 28.26048 26.25989 -0.00802
C 27.03545 25.60341 -0.00218
C 27.05272 24.14663 -0.01654
C 28.2094 23.4385 -0.00037
C 28.27834 22.05526 -0.0032
C 27.03375 21.38003 0.00622
C 27.08811 19.92974 -0.02815
C 28.30143 19.19606 -0.00942
C 28.26387 17.82359 0.00487
C 27.06331 17.08687 0.00826
C 27.04134 15.61291 -0.00294
C 28.38024 14.90235 0.00152
C 28.33518 13.50705 0.01257
C 27.08922 12.79982 0.02316
C 24.56885 2.76062 -0.00938
C 24.56962 32.53446 0.02239
C 24.59653 4.22697 -0.00229
C 25.75887 6.43164 -0.009
C 25.80645 30.56267 0.02734
C 24.60863 29.87624 -0.0055
C 24.67783 28.48506 0.01515
C 25.87697 27.61778 -0.00225
C 25.77848 26.21098 0.00071
C 24.61956 25.56102 -0.01107
C 24.5527 24.09924 -0.01586
C 25.80722 23.45214 -0.01971
C 25.83812 22.01754 -0.02118
C 24.65208 21.4033 0.00733
C 24.65132 19.88445 -0.00178
C 25.89256 19.14646 0.00768
C 25.84875 17.77696 -0.0276
C 24.58477 17.04119 0.03005
C 24.65755 15.69186 -0.04078
C 25.86698 14.91294 0.02117
C 25.80578 13.46891 0.02737
C 24.5445 12.76449 -0.00498
C 24.5772 11.37217 0.00135
C 25.8508 10.68863 0.03102
C 25.85164 9.28541 0.02555
C 24.59843 8.52241 0.01423
C 24.60858 7.15002 -0.00285
C 25.81131 4.95018 -0.01199
C 2.40653 32.64983 0.01913
