389
Graphene
C 34.36549 0.02312 0.01295
C 12.34785 12.88712 -0.02162
C 12.28132 11.46824 0.00415
C 13.4862 10.7146 -0.0014
C 13.58494 9.34655 0.02162
C 12.45487 8.49706 0.0076
C 13.45312 6.43225 0.01241
C 13.44214 5.0455 -0.01454
C 12.32124 2.81912 0.01945
C 13.52706 2.20157 0.01416
C 12.18605 15.66478 0.01363
C 13.53798 0.65526 0.03542
C 14.84412 32.68574 0.00244
C 16.04066 32.01221 -0.01717
C 15.96428 30.54703 0.05265
C 15.75244 23.31553 -0.01952
C 15.90405 22.01491 -0.02813
C 14.74142 21.30461 0.00374
C 14.73074 19.94036 0.00052
C 14.85129 11.14311 -0.03682
C 15.85472 10.60081 0.01965
C 12.32847 33.9876 0.02299
C 16.08267 9.07976 0.02058
C 12.35417 16.94595 0.01877
C 13.52124 19.16427 0.00444
C 10.96248 19.18559 0.00572
C 11.06272 17.81829 0.03592
C 9.85458 17.06587 0.00406
C 9.83423 15.62182 0.00943
C 11.03581 14.98906 0.02841
C 11.07659 13.569 -0.01111
C 9.8926 12.85204 -0.01275
C 9.90728 11.36287 0.00985
C 11.16992 10.65844 -0.02245
C 13.30136 17.84835 -0.00925
C 11.16435 9.07255 -0.00428
C 11.05301 2.226 -0.01536
C 11.01781 0.74347 -0.02689
C 9.80433 0.11796 -0.01046
C 12.3682 32.56408 -0.00891
C 13.61789 31.94512 0.02819
C 13.91132 23.38834 0.00165
C 13.57163 21.99729 -0.02971
C 12.23103 21.42256 0.02894
C 12.19406 19.99982 -0.01789
C 9.88391 8.57512 0.03101
C 14.75164 8.50736 -0.01957
C 14.69068 7.09084 -0.0108
C 15.9317 6.43023 -0.00368
C 18.42374 2.09607 -0.00109
C 18.49987 0.72551 -0.00491
C 17.32977 34.0637 0.03338
C 19.69868 32.58028 -0.0258
C 20.94246 31.92272 -0.0331
C 20.89528 30.53703 -0.00316
C 19.65145 29.80802 0.02188
C 19.67282 28.38019 -0.01979
C 20.88508 27.69257 0.02691
C 17.16413 2.83824 0.03698
C 20.85449 26.24996 -0.01581
C 19.6106 24.06447 0.04892
C 20.92408 23.42033 -0.00111
C 20.9279 21.97839 -0.03557
C 19.78758 21.19388 0.03754
C 20.95843 10.51775 0.01739
C 20.90173 9.1224 0.00755
C 19.64368 8.48434 -0.0054
C 19.59011 7.08077 0.00667
C 20.82771 6.33292 0.00143
C 19.63824 25.51932 0.01452
C 17.07606 4.23024 -0.02213
C 18.3953 4.91726 0.00028
C 18.33502 6.39087 -0.00289
C 15.84327 4.96658 -0.02696
C 14.61621 4.30564 -0.00114
C 14.72102 2.89088 0.00228
C 15.96105 2.08089 0.00798
C 16.05977 0.72006 0.00422
C 14.83017 34.06025 0.0351
C 17.24674 32.63558 -0.03113
C 18.44995 31.91025 0.02098
C 18.40403 30.48501 0.01848
C 17.10282 29.70279 -0.00619
C 17.24957 28.33461 -0.02162
C 18.50755 27.65325 0.00889
C 18.48216 26.26498 -0.00481
C 17.22806 25.5427 0.00979
C 16.98957 24.1641 0.01443
C 18.39637 23.30155 0.03505
C 18.44076 21.71324 -0.02815
C 17.14729 21.40037 -0.04147
C 18.46113 9.24832 -0.05302
C 17.26383 8.43632 0.00213
C 17.15403 7.08032 -0.00066
C 9.8059 19.98287 0.0402
C 9.76655 21.37425 -0.02759
C 10.99649 22.08844 0.03589
C 10.89191 23.42353 -0.00033
C 2.42169 4.27182 0.0086
C 2.41683 2.84992 -0.00643
C 3.65285 2.19502 0.017
C 3.66292 0.73426 -0.03113
C 2.36559 34.06924 -0.02566
C 4.91986 32.75492 -0.00094
C 6.16331 32.06246 0.02322
C 6.17086 30.6251 -0.00725
C 4.94541 29.87322 -0.05697
C 3.59906 5.04237 -0.00518
C 4.94478 28.46426 0.01087
C 6.12136 26.32907 0.00988
C 4.89782 25.61224 0.0276
C 4.88763 24.16273 0.01305
C 6.05216 23.48727 -0.00077
C 6.06652 22.07469 0.03368
C 4.90477 21.33324 -0.02929
C 4.94991 20.0036 -0.00966
C 6.16967 19.23437 -0.03337
C 6.14829 17.74641 0.01227
C 6.18109 27.7297 -0.01343
C 3.60395 6.48971 -0.00074
C 2.43026 7.2372 0.01465
C 2.35554 8.57298 -0.03996
C 3.68617 30.5621 -0.04999
C 2.43256 29.85364 0.04505
C 2.48874 28.44652 0.03284
C 3.73473 27.7157 -0.04307
C 3.67898 26.28058 0.03189
C 2.42068 25.64329 0.00031
C 2.45417 24.16909 -0.003
C 3.69705 23.45712 0.01402
C 3.68187 22.03318 0.02379
C 2.50843 21.31316 0.00907
C 2.55049 19.89866 0.00643
C 3.72269 19.19263 -0.01509
C 3.68301 17.7146 0.03267
C 2.43987 16.99099 0.02374
C 2.44335 15.57383 0.00402
C 3.61169 14.90647 0.0073
C 3.65765 13.5185 0.0174
C 2.35308 12.75621 0.03828
C 2.39106 11.31278 0.01226
C 3.57225 10.67031 -0.00279
C 3.63573 9.23761 0.01996
C 4.92741 17.03066 0.00873
C 20.83396 4.91084 -0.017
C 4.85844 15.55613 -0.00049
C 6.11285 13.44602 -0.01303
C 7.44015 19.96117 0.00488
C 8.63407 19.19974 -0.01004
C 8.60857 17.74824 -0.02896
C 7.3804 17.04568 -0.00131
C 7.37296 15.5565 -0.01118
C 8.60486 14.96898 -0.014
C 8.64102 13.51937 0.02147
C 7.36352 12.78876 0.00373
C 7.39163 11.409 -0.00191
C 7.35012 21.38315 0.01745
C 8.63721 10.67889 0.00438
C 7.41324 8.59666 0.00093
C 7.42807 7.18725 0.00057
C 7.45362 2.90723 -0.01634
C 8.65235 2.23132 -0.00334
C 8.65939 0.86312 0.02339
C 7.47342 0.1204 0.01641
C 9.8492 32.72539 -0.00719
C 11.0219 31.94711 0.01364
C 9.84741 24.17842 -0.01062
C 8.63215 9.27932 0.01291
C 8.61599 22.18282 0.03693
C 8.53374 23.60527 -0.01384
C 7.28018 24.19645 -0.00482
C 4.85055 12.74427 -0.01378
C 4.93165 11.29006 0.02635
C 6.14886 10.66354 0.0127
C 6.1308 9.25084 0.01396
C 4.9105 8.52924 0.01849
C 4.9505 7.07032 -0.01142
C 6.2412 6.35296 -0.00562
C 6.07683 4.98191 -0.00494
C 4.85987 4.32076 0.00054
C 4.91238 2.90761 0.03007
C 6.20117 2.24385 -0.00095
C 6.19763 0.84154 0.01572
C 4.89988 0.08632 -0.04848
C 7.44438 32.7521 -0.00892
C 8.55223 31.99846 -0.01362
C 8.62418 30.65104 -0.0008
C 7.40745 29.899 0.0288
C 7.43059 28.50326 0.00393
C 8.56761 27.6731 0.00895
C 8.33294 26.37042 0.00685
C 7.24304 25.52766 0.02888
C 6.06562 14.86325 0.00848
C 3.71476 31.95646 -0.03291
C 19.59738 4.22716 0.00364
C 20.8926 2.05425 -0.02957
C 30.7089 5.02388 0.07705
C 29.48016 4.2685 0.0103
C 29.47123 2.89334 0.02108
C 30.6806 2.12731 0.00716
C 30.7271 0.71936 0.00307
C 29.48818 0.00217 0.00346
C 31.88978 32.66583 0.01713
C 33.1877 31.90754 -0.01694
C 33.19541 30.48032 0.01428
C 30.67485 6.44002 0.01908
C 31.93935 29.74275 -0.02142
C 33.16263 27.65759 0.00026
C 33.18687 26.16179 0.00682
C 31.96744 25.49427 -0.01779
C 31.91668 24.15405 0.03794
C 33.15504 23.42712 0.01927
C 33.28268 21.9976 0.01574
C 32.10553 21.24794 -0.02383
C 32.06213 19.85459 -0.01429
C 33.27655 19.17416 -0.0136
C 31.92169 28.36238 0.0544
C 33.26669 17.7972 0.00594
C 29.45575 7.07533 0.01518
C 30.69302 9.35146 -0.03735
C 30.67695 30.46623 0.01324
C 29.44131 29.77224 0.0014
C 29.49188 28.33877 0.00924
C 30.75502 27.63155 0.02326
C 30.73057 26.22306 0.00261
C 29.46127 25.5429 0.03265
C 29.52472 24.10596 -0.02049
C 30.70823 23.47028 -0.01854
C 30.78911 22.03161 -0.01415
C 29.45806 8.51479 -0.00971
C 29.56574 21.2993 -0.03039
C 30.77936 19.17687 0.03531
C 30.84181 17.76214 -0.00669
C 29.57265 17.05028 0.0101
C 29.46452 15.59768 0.01705
C 30.72236 14.94936 -0.0405
C 30.68253 13.52859 -0.01303
C 29.44647 12.78795 -0.01461
C 29.40291 11.36814 -0.02155
C 30.65724 10.6988 -0.00944
C 29.60059 19.89791 0.01836
C 32.0141 17.06283 -0.02474
C 31.93342 15.62395 0.00369
C 33.17072 14.99284 0.00455
C 34.42566 21.27634 -0.02213
C 0.05136 19.92034 0.01951
C 1.31776 19.22539 -0.01678
C 1.28126 17.80253 0.01223
C 0.06623 17.0279 0.00648
C 34.43284 15.66164 0.02114
C 1.20942 14.89307 -0.02957
C 1.14991 13.51142 0.00343
C 34.31543 12.79422 -0.02656
C 1.23621 21.93406 0.02712
C 34.32186 11.40734 -0.02442
C 1.12503 9.2114 -0.00583
C 34.33892 8.55592 -0.02302
C 34.36562 7.13854 -0.02849
C 1.2126 6.46287 0.02931
C 1.1723 5.04161 0.00628
C 34.39326 4.27523 -0.0345
C 34.41756 2.89126 -0.00931
C 1.20893 2.21951 -0.00939
C 1.1558 0.75386 -0.00468
C 1.1293 10.67747 -0.00027
C 1.23606 23.42363 0.00723
C 34.39859 24.09043 0.03076
C 34.42683 25.52619 -0.05239
C 33.14552 13.60321 -0.00644
C 31.91118 12.85039 -0.01839
C 31.89358 11.38698 0.00137
C 33.11376 10.66933 0.00199
C 33.09272 9.25017 0.04381
C 31.93211 8.49349 0.02806
C 31.88876 7.07677 0.01504
C 33.1688 6.37664 -0.00069
C 33.16475 4.97172 0.04926
C 31.94925 4.27858 -0.03838
C 31.963 2.85744 0.00349
C 33.22131 2.15719 -0.00323
C 33.14746 0.74401 -0.00841
C 31.94047 0.08222 0.0001
C 34.40421 32.63497 -0.02927
C 1.16364 31.93036 -0.01404
C 1.18483 30.54738 0.01027
C 0.01702 29.82895 0.01831
C 0.02038 28.43648 -0.01037
C 1.2813 27.6685 -0.00439
C 1.14492 26.29409 -0.00598
C 30.69649 31.86482 0.04266
C 29.3775 32.6559 0.01177
C 27.05891 34.06037 -0.00416
C 28.26986 0.7126 0.01699
C 23.24752 6.33758 0.01852
C 23.34765 4.92806 -0.00381
C 22.09774 4.26599 0.03046
C 22.07685 2.85913 0.0296
C 23.30164 2.14492 0.03374
C 23.39235 0.73191 -0.02845
C 22.17928 0.05786 -0.03213
C 24.48729 32.64314 0.02239
C 25.8129 31.95348 0.01153
C 22.08081 7.04798 0.01126
C 25.77186 30.49147 0.02734
C 24.61365 28.38388 0.01515
C 25.79261 27.60913 -0.00225
C 25.80878 26.27349 0.00071
C 24.62219 25.51466 -0.01107
C 24.56878 24.07981 -0.01586
C 25.83511 23.33999 -0.01971
C 25.90616 21.92472 -0.02118
C 24.70022 21.26154 0.00733
C 24.60051 19.8087 -0.00178
C 24.56149 29.81311 -0.0055
C 22.09507 8.48342 -0.01185
C 23.30585 9.25451 -0.01662
C 23.26331 10.6531 -0.00478
C 20.92669 0.66897 -0.04422
C 19.69376 0.02215 0.00654
C 22.10449 32.69071 -0.00703
C 23.28051 31.91423 -0.04076
C 23.32846 30.52272 -0.00652
C 22.107 29.74724 0.0058
C 22.12784 28.36806 -0.00865
C 23.38159 27.67689 0.00675
C 23.34302 26.25693 -0.00311
C 22.05762 25.55633 0.00742
C 22.10384 24.05365 -0.01594
C 23.35435 23.32646 0.0106
C 23.45817 21.95355 -0.01154
C 22.20263 21.32714 -0.01721
C 22.08016 19.9914 -0.02422
C 23.26765 19.15825 0.01277
C 23.47606 17.76589 0.00096
C 23.4072 15.06358 -0.01527
C 23.25284 13.64841 0.01087
C 22.18627 12.84554 0.00199
C 21.94783 11.49151 0.01511
C 25.8771 19.17894 0.00768
C 19.6915 2.78001 -0.00831
C 25.87207 17.75581 -0.0276
C 24.60602 15.69785 -0.04078
C 28.35131 22.01161 -0.0032
C 27.13698 21.26586 0.00622
C 27.18053 19.83324 -0.02815
C 28.44622 19.16982 -0.00942
C 28.33913 17.7691 0.00487
C 27.11024 17.06612 0.00826
C 27.0804 15.666 -0.00294
C 28.28823 14.87501 0.00152
C 28.28756 13.5135 0.01257
C 28.32627 23.36539 -0.00037
C 26.98863 12.78108 0.02316
C 28.1817 10.63081 0.00194
C 28.21632 9.23414 -0.00621
C 27.00417 8.55172 0.02611
C 26.98615 7.10961 0.02198
C 28.2787 6.37404 0.01094
C 28.29249 4.99666 0.00235
C 27.024 4.27471 0.01495
C 27.05772 2.86726 0.01259
C 28.26175 2.09331 0.01799
C 26.99566 11.36574 0.04185
C 27.05915 24.04312 -0.01654
C 26.98598 25.4553 -0.00218
C 28.17534 26.20784 -0.00802
C 25.83345 15.01796 0.02117
C 25.75272 13.5482 0.02737
C 24.47461 12.81798 -0.00498
C 24.46722 11.35708 0.00135
C 25.75987 10.65928 0.03102
C 25.70378 9.19487 0.02555
C 24.52691 8.49313 0.01423
C 24.48905 7.04357 -0.00285
C 25.75738 6.41525 -0.009
C 25.76514 4.94315 -0.01199
C 24.50988 4.19096 -0.00229
C 24.613 2.79172 -0.00938
C 25.81689 2.06547 -0.0264
C 25.84049 0.66431 -0.01154
C 24.54737 34.02167 0.00684
C 26.97022 32.63594 -0.01052
C 28.20706 31.91068 -0.01679
C 28.18451 30.49457 0.00367
C 27.03068 29.76412 0.04306
C 26.97539 28.32502 0.00996
C 28.25194 27.62468 0.00195
C 24.64124 17.07913 0.03005
C 2.36514 32.6502 0.02769
