303
Graphene
C 34.31461 0.02755 0.01295
C 9.89808 24.17128 0.01452
C 11.24035 23.39442 0.04892
C 11.11617 21.93314 -0.00111
C 9.7783 21.35908 -0.03557
C 9.31018 19.85036 0.03754
C 10.64199 19.15366 0.01739
C 11.15405 17.94551 0.00755
C 9.96964 2.65775 -0.0054
C 11.20855 0.83631 0.00667
C 9.91698 34.06798 0.00143
C 12.29998 32.65794 -0.017
C 13.48505 32.02327 0.00364
C 13.54355 30.55197 -0.00831
C 12.34362 29.91405 -0.02957
C 12.32589 28.36718 -0.04422
C 9.92633 25.54538 -0.01581
C 13.47468 27.75601 0.00654
C 11.18633 26.25263 0.02691
C 9.81868 28.37383 0.02188
C 8.12092 15.40027 -0.02815
C 8.37501 14.13963 -0.04147
C 7.43594 12.84677 -0.05302
C 7.39431 11.46527 0.00213
C 7.24475 8.49975 -0.00066
C 7.26872 7.15979 -0.00289
C 7.42146 4.2082 0.00028
C 7.38534 2.81194 -0.02213
C 8.69894 2.06716 0.03698
C 8.69267 0.65267 -0.00109
C 7.40492 0.00232 -0.00491
C 9.84026 32.63275 0.03338
C 11.10188 31.86232 -0.0258
C 11.12278 30.492 -0.0331
C 9.86048 29.69689 -0.00316
C 11.12847 27.69924 -0.01979
C 7.06167 16.15199 0.03505
C 13.65263 26.35058 -0.00703
C 12.46964 24.14287 -0.00652
C 18.38641 27.7958 0.01126
C 18.166 0.64427 0.01852
C 16.97488 33.96177 -0.00381
C 19.56311 32.69543 0.03046
C 20.76296 32.14494 0.0296
C 20.75803 30.63606 0.03374
C 19.62323 29.80699 -0.02845
C 19.65883 28.3823 -0.03213
C 20.9438 2.17704 0.02239
C 20.79906 0.7833 0.01153
C 19.49683 0.08877 0.02734
C 22.02808 32.7668 -0.0055
C 23.2123 31.94604 0.01515
C 23.16352 30.53611 -0.00225
C 21.96703 29.80653 0.00071
C 17.06895 28.03991 -0.01185
C 12.44807 25.6471 -0.04076
C 17.10126 29.73564 -0.01662
C 18.38682 31.95622 0.01511
C 13.74109 23.46913 0.0058
C 12.29344 21.11447 -0.00865
C 11.90371 19.82499 0.00675
C 13.17218 17.48143 -0.00311
C 12.04665 16.88362 0.00742
C 12.33719 0.08027 -0.01594
C 14.77334 32.69129 0.0106
C 16.05737 31.81734 -0.01154
C 15.97748 30.45375 -0.01721
C 14.7382 29.72179 -0.02422
C 14.6765 28.32391 0.01277
C 15.70838 27.22092 0.00096
C 15.14887 26.15351 -0.01527
C 14.91296 34.03258 0.01087
C 17.19009 32.57282 0.00199
C 18.368 30.49263 -0.00478
C 22.05784 28.46125 -0.01107
C 7.82796 19.7888 0.01443
C 8.62594 22.10179 -0.00481
C 3.62894 10.77836 0.00985
C 3.71748 9.28798 -0.02245
C 2.47635 8.54698 -0.00428
C 2.45105 7.12289 0.03101
C 3.68745 6.45654 -0.01536
C 3.7139 5.02432 -0.02689
C 2.48137 4.22615 -0.01046
C 2.45955 2.85085 -0.00891
C 3.67364 2.14852 0.02819
C 3.59609 0.7285 0.00165
C 2.34467 0.04899 -0.02971
C 4.96983 32.65455 0.02894
C 6.19725 31.94136 -0.01789
C 6.21107 30.51223 0.00444
C 4.94842 29.85886 -0.00925
C 2.41891 11.46368 -0.01275
C 4.86344 28.38516 0.01877
C 2.40415 12.88122 -0.01111
C 3.61551 14.90146 0.00943
C 3.64285 30.5524 0.00057
C 2.4271 29.80534 -0.01634
C 2.3835 28.39474 -0.00334
C 3.61574 27.64246 0.02339
C 3.6538 26.28626 0.01641
C 2.39118 25.53633 -0.00719
C 2.34345 24.08048 0.01364
C 3.66131 23.38678 -0.01062
C 3.70838 21.95092 -0.00033
C 2.40513 21.32128 0.03589
C 2.50331 19.98181 -0.02759
C 3.81571 19.17846 0.0402
C 3.7985 17.77993 0.00572
C 2.49605 17.14372 0.03592
C 2.44723 15.67198 0.00406
C 3.6442 13.57268 0.02841
C 7.47026 21.30292 0.00979
C 6.09529 27.61745 0.01363
C 4.9407 25.46593 0.00415
C 4.89986 4.2941 -0.01957
C 4.84347 2.75442 -0.0108
C 6.12344 2.07036 -0.00368
C 6.05601 0.69286 -0.02696
C 4.84727 0.02413 -0.00114
C 7.46768 32.6447 0.00228
C 8.66314 31.86435 0.00798
C 8.58301 30.51054 0.00422
C 7.32227 29.80979 0.0351
C 7.30466 28.31815 -0.03113
C 8.56359 27.64519 0.02098
C 8.7132 26.23705 0.01848
C 7.33903 25.55111 -0.00619
C 7.45177 24.16765 -0.02162
C 8.66935 23.46377 0.00889
C 6.24409 4.91453 0.02058
C 6.11415 26.1699 -0.02162
C 6.1349 6.35229 0.01965
C 4.90524 8.60236 0.00052
C 4.89523 24.05835 -0.0014
C 6.15248 23.3996 0.02162
C 6.1951 21.97191 0.0076
C 5.06082 21.17308 0.01241
C 5.2119 19.77184 -0.01454
C 6.58323 18.91635 0.01945
C 6.3218 17.43595 0.01416
C 4.93814 17.03621 0.03542
C 4.81435 15.64009 0.02299
C 6.08014 15.03087 0.00244
C 6.1029 13.60772 -0.01717
C 4.83782 12.873 0.05265
C 4.88466 11.47172 -0.01952
C 6.19389 10.72837 -0.02813
C 6.16257 9.40926 0.00374
C 4.91585 7.14053 -0.03682
C 3.72103 31.96855 0.00093
C 23.11969 27.67513 -0.01586
C 23.49365 6.31938 -0.02118
C 33.05446 22.07833 0.01574
C 31.83239 21.32849 -0.02383
C 31.78095 19.94322 -0.01429
C 33.17065 19.26625 -0.0136
C 33.19413 17.8598 0.00594
C 31.93715 17.08224 -0.02474
C 31.9577 15.66325 0.00369
C 33.21851 14.96429 0.00455
C 33.13332 13.5788 -0.00644
C 31.98486 12.88235 -0.01839
C 31.97957 11.44451 0.00137
C 33.20681 10.72647 0.00199
C 33.18643 9.24904 0.04381
C 31.97289 8.50394 0.02806
C 31.86923 7.11441 0.01504
C 33.10668 23.44522 0.01927
C 33.1805 6.42232 -0.00069
C 31.81745 24.13534 0.03794
C 33.10382 26.37573 0.00682
C 29.4704 8.56324 -0.00971
C 29.45604 7.19712 0.01518
C 30.65121 6.46253 0.01908
C 30.69412 4.94843 0.07705
C 29.45981 4.20896 0.0103
C 29.38388 2.86422 0.02108
C 30.68466 2.16735 0.00716
C 30.70461 0.7272 0.00307
C 29.46026 0.05275 0.00346
C 31.90591 32.72243 0.01713
C 33.1657 31.94259 -0.01694
C 33.12481 30.56132 0.01428
C 31.81002 29.8612 -0.02142
C 31.8239 28.54222 0.0544
C 33.09458 27.79968 0.00026
C 31.90638 25.61841 -0.01779
C 30.70417 9.23552 -0.03735
C 33.22245 4.98919 0.04926
C 31.97032 2.89975 0.00349
C 0.01942 15.66714 0.02114
C 1.20279 15.01725 -0.02957
C 1.16377 13.56963 0.00343
C 34.42363 12.86751 -0.02656
C 0.03022 11.40462 -0.02442
C 1.20669 10.67406 -0.00027
C 1.28431 9.27462 -0.00583
C 0.02052 8.5524 -0.02302
C 34.37862 7.1478 -0.02849
C 1.23348 6.34371 0.02931
C 1.23895 4.94659 0.00628
C 34.42732 4.24229 -0.0345
C 34.42755 2.8583 -0.00931
C 1.26476 2.11956 -0.00939
C 1.09723 0.75702 -0.00468
C 34.3775 17.13434 0.00648
C 31.9208 4.32443 -0.03838
C 1.19311 17.78054 0.01223
C 34.40702 19.89899 0.01951
C 33.14749 2.18167 -0.00323
C 33.1398 0.79461 -0.00841
C 31.94462 0.06566 0.0001
C 34.39046 32.62069 -0.02927
C 1.19397 31.93742 -0.01404
C 1.18013 30.58815 0.01027
C 34.30606 29.90468 0.01831
C 34.35462 28.45041 -0.01037
C 1.13592 27.6807 -0.00439
C 1.1314 26.29745 -0.00598
C 34.33047 25.57221 -0.05239
C 34.25391 24.20982 0.03076
C 1.09429 23.49891 0.00723
C 1.11149 22.01899 0.02712
C 34.33624 21.34863 -0.02213
C 1.26692 19.19082 -0.01678
C 23.68199 9.965 -0.01971
C 30.69684 10.67031 -0.00944
C 29.49826 12.78464 -0.01461
C 25.6516 6.53645 -0.01154
C 25.73742 5.09817 0.00684
C 24.58068 4.3365 -0.01052
C 24.61527 2.82108 -0.01679
C 25.76548 2.07235 0.00367
C 25.71241 0.63755 0.04306
C 24.43897 34.06981 0.00996
C 26.89731 32.57321 0.00195
C 28.18031 31.90862 -0.00802
C 28.10364 30.49373 -0.00218
C 26.90123 29.84453 -0.01654
C 26.88453 28.37496 -0.00037
C 28.20936 27.72068 -0.0032
C 28.26843 26.29385 0.00622
C 27.12375 25.60185 -0.02815
C 24.37674 7.35287 -0.0264
C 28.22608 23.45281 -0.00942
C 24.40766 8.87565 -0.00938
C 25.80509 10.75428 -0.01199
C 23.35181 5.0176 0.00733
C 22.14042 2.83618 -0.00178
C 23.37313 2.19661 0.00768
C 23.37015 0.73968 -0.0276
C 22.11747 0.05736 0.03005
C 24.41534 32.66711 -0.04078
C 25.70543 31.927 0.02117
C 25.6956 30.50029 0.02737
C 24.43762 29.87045 -0.00498
C 24.42028 28.36984 0.00135
C 25.62619 27.59503 0.03102
C 25.86918 26.21198 0.02555
C 25.92155 13.60052 0.01423
C 24.79474 12.64482 -0.00285
C 24.51014 11.26331 -0.009
C 25.78414 9.36735 -0.00229
C 29.54264 11.36751 -0.02155
C 28.27736 22.09175 0.00487
C 26.66616 15.26223 -0.00294
C 29.38053 28.50667 0.00924
C 30.64947 27.76071 0.02326
C 30.71889 26.35288 0.00261
C 29.5248 25.62501 0.03265
C 29.41091 24.21009 -0.02049
C 30.62922 23.39001 -0.01854
C 30.55922 21.94987 -0.01415
C 29.1782 21.11213 -0.03039
C 29.23834 19.59747 0.01836
C 30.68846 19.14948 0.03531
C 30.75107 17.75409 -0.00669
C 29.43433 17.24123 0.0101
C 29.32123 15.79316 0.01705
C 30.60083 15.02302 -0.0405
C 30.7253 13.55153 -0.01303
C 29.4377 29.90171 0.0014
C 28.67762 18.45201 0.00826
C 30.58885 30.63972 0.01324
C 29.45281 32.72191 0.01177
C 28.0894 14.98535 0.00152
C 28.25085 13.4799 0.01257
C 27.08665 12.7993 0.02316
C 27.13155 11.36066 0.04185
C 28.26153 10.62613 0.00194
C 28.22453 9.26664 -0.00621
C 26.91248 8.55713 0.02611
C 26.97033 7.13827 0.02198
C 28.21801 6.44006 0.01094
C 28.24632 4.9635 0.00235
C 27.03077 4.30902 0.01495
C 27.01005 2.90138 0.01259
C 28.1542 2.18719 0.01799
C 28.1583 0.68748 0.01699
C 26.91962 34.00303 -0.00416
C 30.73408 32.04624 0.04266
C 2.45883 32.73795 0.01291
