360
Graphene
C 34.37719 0.05468 0.01295
C 15.92624 14.65985 0.02058
C 16.02157 13.23832 -0.01957
C 14.6834 12.52315 -0.0108
C 14.69308 11.01841 -0.00368
C 15.96959 10.53754 -0.02696
C 16.15642 9.13772 -0.00114
C 14.82842 8.48726 0.00228
C 14.77699 7.14314 0.00798
C 14.78609 15.49627 0.01965
C 16.02364 6.37632 0.00422
C 14.73989 4.27143 -0.03113
C 14.84652 2.83935 0.02098
C 16.03624 2.13346 0.01848
C 15.91985 0.76641 -0.00619
C 14.79551 34.0713 -0.02162
C 17.15866 32.67535 0.00889
C 18.39189 31.89433 -0.00481
C 18.13302 30.54701 0.00979
C 15.9566 4.98067 0.0351
C 16.06041 31.80742 -0.03682
C 14.79161 32.49458 0.00052
C 12.35019 34.00706 0.00374
C 9.95796 2.84738 -0.00925
C 11.15014 2.0932 0.01877
C 11.12953 0.70988 0.01363
C 9.8377 0.15998 -0.02162
C 12.29858 32.64793 0.00415
C 13.51123 32.0398 -0.0014
C 12.21916 15.7478 0.02162
C 13.37362 14.87793 0.0076
C 13.34391 13.28146 0.01241
C 12.07462 12.60702 -0.01454
C 13.73191 9.32513 0.01945
C 12.46268 8.73376 0.01416
C 12.47222 7.18934 0.03542
C 13.56391 6.44639 0.02299
C 13.51785 5.06355 0.00244
C 12.25175 4.35867 -0.01717
C 12.31615 2.91369 0.05265
C 13.599 2.07895 -0.01952
C 13.54005 0.67645 -0.02813
C 18.46024 17.79958 0.01443
C 9.8959 4.29242 0.00444
C 17.20279 17.01726 0.03505
C 18.42597 14.88738 -0.04147
C 19.69775 20.0961 0.00755
C 20.73037 19.35123 -0.0054
C 20.90863 17.73095 0.00667
C 19.69527 17.04213 0.00143
C 19.68615 15.63484 -0.017
C 20.91017 14.91206 0.00364
C 21.01585 13.56723 -0.00831
C 19.79863 12.75478 -0.02957
C 20.70543 21.97905 0.01739
C 19.72089 11.27858 -0.04422
C 20.94203 9.22225 -0.00703
C 19.65781 8.57798 -0.04076
C 19.67459 7.09153 -0.00652
C 20.95133 6.46574 0.0058
C 20.91963 5.0541 -0.00865
C 19.69117 4.22605 0.00675
C 19.60916 2.77488 -0.00311
C 20.83866 2.02917 0.00742
C 21.02951 10.63817 0.00654
C 20.84497 23.23995 0.03754
C 20.75299 26.01317 -0.03557
C 20.78192 27.57304 -0.00111
C 18.50612 13.43446 -0.05302
C 17.2843 12.64715 0.00213
C 17.22776 11.26485 -0.00066
C 18.43805 10.59144 -0.00289
C 18.50457 9.22395 0.00028
C 17.36083 8.51105 -0.02213
C 17.29014 7.03631 0.03698
C 18.49724 6.38827 -0.00109
C 18.45335 4.96662 -0.00491
C 17.2334 4.24747 0.03338
C 17.19817 2.85247 -0.0258
C 18.40529 2.07113 -0.0331
C 18.44853 0.60998 -0.00316
C 17.17183 0.0222 0.02188
C 19.57621 32.55583 -0.01979
C 20.7597 31.83317 0.02691
C 20.66868 30.42538 -0.01581
C 19.34245 29.71484 0.01452
C 19.54529 28.37516 0.04892
C 17.18529 15.57264 -0.02815
C 20.78428 0.62 -0.01594
C 11.05649 5.08628 -0.01789
C 9.868 7.17082 -0.02971
C 2.37077 4.38796 0.01396
C 2.4406 2.94978 0.01849
C 3.58645 2.20981 -0.01142
C 3.56962 0.81755 -0.00562
C 2.35086 0.00127 -0.00494
C 4.84471 32.7845 0.00054
C 6.15285 32.08624 0.03007
C 6.10207 30.63066 -0.00095
C 3.66703 5.03968 0.0127
C 4.93915 29.81994 0.01572
C 4.78663 19.89136 -0.00892
C 5.94238 19.20289 -0.01362
C 6.1149 17.86937 -0.0008
C 4.87838 17.19197 0.0288
C 4.90326 15.7328 0.00393
C 6.14773 15.03677 0.00895
C 6.16628 13.55704 0.00685
C 4.93303 12.9545 0.02888
C 4.92088 28.46426 -0.04848
C 3.69964 6.47617 0.02635
C 2.47212 7.17619 -0.01378
C 2.43049 8.59057 -0.01303
C 3.63243 30.59957 -0.02566
C 2.46695 29.82759 -0.00094
C 2.54733 28.34886 0.02322
C 3.78356 27.65459 -0.00725
C 3.60042 26.25435 -0.05697
C 2.50502 25.38759 0.01087
C 2.36296 23.93034 -0.01343
C 2.34972 21.37725 0.00988
C 2.38561 19.9596 0.0276
C 3.57179 19.23674 0.01305
C 3.59863 17.78477 -0.00077
C 2.35439 17.05461 0.03368
C 2.31537 15.7121 -0.02929
C 3.66113 15.02837 -0.00966
C 3.67054 13.60805 -0.03337
C 2.4872 12.83729 0.01227
C 2.46218 11.41817 0.00873
C 3.71155 10.72658 -0.00049
C 3.6912 9.27388 0.00848
C 4.89006 11.51172 -0.00482
C 11.13347 6.53538 0.02894
C 6.09519 10.76772 -0.01384
C 4.92186 8.552 0.01745
C 8.61692 6.42444 0.0402
C 8.65558 4.97898 0.00572
C 7.30309 4.36307 0.03592
C 7.33781 2.92289 0.00406
C 8.652 2.23509 0.00943
C 8.57786 0.79377 0.02841
C 7.31389 0.11289 -0.01111
C 9.86623 32.7324 -0.01275
C 7.35908 7.15093 -0.02759
C 10.96102 31.99348 0.00985
C 9.80294 15.6587 -0.00428
C 11.07416 15.05605 0.03101
C 11.06488 13.439 -0.01536
C 9.77406 12.95499 -0.02689
C 9.85518 11.45001 -0.01046
C 10.99081 10.79202 -0.00891
C 11.0974 9.3478 0.02819
C 9.86944 8.54805 0.00165
C 9.78889 17.00073 -0.02245
C 7.30309 8.54433 0.03589
C 8.63077 9.21519 -0.00033
C 8.59558 10.66813 -0.01062
C 4.92933 7.1326 0.00488
C 6.1402 6.47953 -0.01004
C 6.10737 5.08702 -0.02896
C 4.9222 4.28834 -0.00131
C 4.8737 2.87774 -0.01118
C 6.1276 2.13942 -0.014
C 6.06241 0.80437 0.02147
C 4.84155 0.06524 0.00373
C 7.34754 32.78912 -0.00191
C 8.5293 32.05918 0.00438
C 8.52851 30.69757 0.01291
C 7.33952 30.05364 0.00093
C 8.67221 17.83169 0.00057
C 7.40825 17.19611 -0.01634
C 7.35506 15.74314 -0.00334
C 8.58023 15.01305 0.02339
C 8.53212 13.62905 0.01641
C 7.35867 12.85611 -0.00719
C 7.3621 11.42026 0.01364
C 6.07936 9.30039 0.03693
C 19.63411 33.97038 0.0106
C 21.99544 32.52809 -0.01154
C 23.19319 31.84856 -0.01721
C 30.65993 2.17492 0.01713
C 30.62626 0.75155 -0.01694
C 29.40599 0.0711 0.01428
C 31.83175 32.74112 -0.02142
C 33.10684 32.03896 0.0544
C 33.10638 30.57001 0.00026
C 31.95992 29.84344 0.00682
C 31.91452 28.42957 -0.01779
C 29.4027 2.81876 0.00346
C 33.23961 27.70917 0.03794
C 31.95714 25.5943 0.01574
C 31.88475 24.11024 -0.02383
C 33.11747 23.38126 -0.01429
C 33.12263 21.98688 -0.0136
C 31.86933 21.24443 0.00594
C 31.97023 19.77611 -0.02474
C 33.17662 19.11353 0.00369
C 33.13495 17.76214 0.00455
C 33.22392 26.34751 0.01927
C 29.38255 4.27177 0.00307
C 30.69377 5.08141 0.00716
C 30.72529 6.42225 0.02108
C 29.36725 32.71411 -0.01854
C 30.64344 31.99713 -0.01415
C 30.59276 30.55007 -0.03039
C 29.40812 29.88374 0.01836
C 29.44413 28.45782 0.03531
C 30.67965 27.77329 -0.00669
C 30.6852 26.3223 0.0101
C 29.43618 25.51064 0.01705
C 29.46388 24.03795 -0.0405
C 30.69868 23.33681 -0.01303
C 30.71167 21.9517 -0.01461
C 29.47265 21.1854 -0.02155
C 29.53067 19.58518 -0.00944
C 30.82546 19.06001 -0.03735
C 29.53404 11.46652 -0.00971
C 30.82886 11.05476 0.01518
C 30.85053 9.4966 0.01908
C 29.6496 8.63628 0.07705
C 29.56086 7.18625 0.0103
C 33.07621 14.55494 -0.00644
C 26.90329 0.05983 -0.02049
C 33.09267 13.2314 -0.01839
C 33.18831 10.71897 0.00199
C 1.08258 19.13707 -0.01678
C 1.08726 17.69788 0.01223
C 34.28521 16.99062 0.00648
C 34.24626 15.54775 0.02114
C 1.1806 14.90996 -0.02957
C 1.23057 13.49504 0.00343
C 0.02866 12.76648 -0.02656
C 0.04532 11.33907 -0.02442
C 34.40035 19.89057 0.01951
C 1.32789 10.70399 -0.00027
C 34.38939 8.56126 -0.02302
C 0.02582 7.13224 -0.02849
C 1.31526 6.48597 0.02931
C 1.14098 5.05831 0.00628
C 34.31919 4.32664 -0.0345
C 34.42993 2.88243 -0.00931
C 1.25249 2.20058 -0.00939
C 1.2014 0.79243 -0.00468
C 1.22462 9.28699 -0.00583
C 34.36576 21.26386 -0.02213
C 1.16683 22.01092 0.02712
C 1.1071 23.37161 0.00723
C 33.18894 9.28714 0.04381
C 31.9714 8.66505 0.02806
C 31.96448 7.19114 0.01504
C 33.1332 6.43224 -0.00069
C 33.15735 5.05125 0.04926
C 31.9047 4.37268 -0.03838
C 31.87793 2.90524 0.00349
C 33.10385 2.19441 -0.00323
C 33.10547 0.78359 -0.00841
C 31.83869 0.03595 0.0001
C 34.39958 32.72059 -0.02927
C 1.15745 31.91337 -0.01404
C 1.16895 30.5572 0.01027
C 0.00574 29.83518 0.01831
C 0.05288 28.3203 -0.01037
C 1.30913 27.61114 -0.00439
C 1.23772 26.19028 -0.00598
C 0.05936 25.54961 -0.05239
C 34.31891 24.20866 0.03076
C 32.20908 11.71281 0.00137
C 28.16469 0.73162 0.03265
C 28.13418 2.15882 0.00261
C 26.87685 2.87197 0.02326
C 23.37476 6.32941 -0.00225
C 23.31995 4.89765 0.00071
C 22.11608 4.24403 -0.01107
C 22.0404 2.86683 -0.01586
C 23.21002 2.10218 -0.01971
C 23.20726 0.65521 -0.02118
C 22.0041 33.95506 0.00733
C 24.49021 32.63747 -0.00178
C 22.16824 7.05308 0.01515
C 25.75382 31.98448 0.00768
C 24.50304 29.75906 0.03005
C 24.5048 28.35566 -0.04078
C 25.76422 27.59908 0.02117
C 25.75722 26.2032 0.02737
C 24.50865 25.51315 -0.00498
C 24.58537 24.07903 0.00135
C 25.80624 23.32625 0.03102
C 25.85061 21.90759 0.02555
C 25.73084 30.51211 -0.0276
C 22.17134 8.56467 -0.0055
C 23.46206 9.33849 0.02734
C 23.47357 10.76752 0.01153
C 23.19702 30.34732 -0.02422
C 21.87008 29.66754 0.01277
C 21.99877 28.28757 0.00096
C 23.21506 27.589 -0.01527
C 23.26948 26.19335 0.01087
C 22.05861 25.42919 0.00199
C 22.11965 23.99386 0.01511
C 23.33909 23.41056 -0.00478
C 23.36766 21.98885 -0.01662
C 22.117 21.27188 -0.01185
C 22.03381 19.8834 0.01126
C 23.25913 19.15827 0.01852
C 23.29291 17.76422 -0.00381
C 22.11998 16.97096 0.03046
C 22.13097 15.59848 0.0296
C 23.41878 14.90945 0.03374
C 23.47634 13.55541 -0.02845
C 22.23741 12.8418 -0.03213
C 22.27084 11.35497 0.02239
C 24.52716 21.23582 0.01423
C 24.46526 19.84874 -0.00285
C 25.72883 19.08576 -0.009
C 25.69711 17.73164 -0.01199
C 28.19184 26.2023 0.01257
C 27.00833 25.51113 0.02316
C 26.98256 24.05792 0.04185
C 28.23673 23.38024 0.00194
C 28.28397 21.95051 -0.00621
C 27.05206 21.19798 0.02611
C 27.05784 19.77155 0.02198
C 28.19387 18.90881 0.01094
C 27.99388 17.39367 0.00235
C 26.84559 16.75522 0.01495
C 27.28464 12.78448 0.01259
C 27.20796 11.43007 0.01799
C 28.40818 10.70683 0.01699
C 28.3618 9.26622 -0.00416
C 27.10468 8.58186 0.01177
C 27.07009 7.18436 0.04266
C 28.28607 6.43039 0.01324
C 28.18927 4.99348 0.0014
C 26.97765 4.30892 0.00924
C 28.24944 27.65511 0.00152
C 3.66344 31.99784 -0.03113
C 26.99574 28.28886 -0.00294
C 28.12242 30.59812 0.00487
C 24.50876 17.06936 -0.00229
C 24.59808 15.65972 -0.00938
C 25.97498 15.27232 -0.0264
C 26.12982 13.6915 -0.01154
C 24.80269 12.9424 0.00684
C 24.82033 11.57605 -0.01052
C 25.87989 10.72621 -0.01679
C 25.93799 9.26819 0.00367
C 24.5493 8.55188 0.04306
C 24.61858 7.11124 0.00996
C 25.85573 6.47893 0.00195
C 25.79614 5.02424 -0.00802
C 24.5548 4.24449 -0.00218
C 24.5059 2.84646 -0.01654
C 25.68831 2.16319 -0.00037
C 25.68676 0.67886 -0.0032
C 24.42806 34.06094 0.00622
C 26.91998 32.70489 -0.02815
C 28.11423 32.03169 -0.00942
C 26.89635 29.77385 0.00826
C 2.37743 32.63586 0.017
