439
Graphene
C 0.02131 34.00939 0.01295
C 12.29699 19.99047 -0.00334
C 13.62265 19.23688 0.02339
C 13.48749 17.79709 0.01641
C 12.23613 17.08087 -0.00719
C 12.17657 15.60764 0.01364
C 13.4598 15.00595 -0.01062
C 13.50304 13.61351 -0.00033
C 12.29841 12.81602 0.03589
C 12.25165 11.49538 -0.02759
C 13.46254 10.69528 0.0402
C 13.42224 9.21 0.00572
C 12.25585 8.47149 0.03592
C 12.28393 7.02251 0.00406
C 13.45352 6.32707 0.00943
C 13.54542 4.91701 0.02841
C 12.2617 4.28904 -0.01111
C 12.29253 2.92385 -0.01275
C 13.51441 2.11026 0.00985
C 13.48073 0.75559 -0.02245
C 12.31557 0.03595 -0.00428
C 14.70573 32.54893 0.03101
C 15.86834 31.8775 -0.01536
C 16.24719 30.37223 -0.02689
C 12.33737 21.37527 -0.01634
C 13.52168 22.13732 0.00057
C 13.5071 23.61073 0.00093
C 12.24862 24.24397 0.01291
C 9.7711 15.72286 0.01572
C 11.00925 14.92744 -0.04848
C 10.99761 13.5099 -0.00892
C 9.73635 12.79108 -0.01362
C 9.78763 11.35981 -0.0008
C 11.01282 10.72596 0.0288
C 11.05546 9.26101 0.00393
C 9.77399 8.58738 0.00895
C 9.83985 7.18513 0.00685
C 10.98897 6.3895 0.02888
C 10.97617 5.05359 -0.00482
C 14.93035 29.75588 -0.01046
C 9.87473 4.22769 -0.01384
C 11.0467 2.15614 0.01745
C 11.12615 0.77393 0.00488
C 9.79507 0.05106 -0.01004
C 12.22203 32.65929 -0.02896
C 13.48228 31.85367 -0.00131
C 13.60707 30.44301 -0.01118
C 12.33451 29.71934 -0.014
C 12.44309 28.29555 0.02147
C 13.89766 27.77283 0.00373
C 13.72217 26.28609 -0.00191
C 12.30514 25.69864 0.00438
C 9.83286 2.84678 0.03693
C 9.81226 17.14736 -0.00095
C 14.58941 24.59408 -0.00891
C 15.93494 22.26423 0.00165
C 17.09626 19.88492 -0.01957
C 18.35316 19.21962 -0.0108
C 18.38002 17.74412 -0.00368
C 17.15316 17.02693 -0.02696
C 17.16822 15.65064 -0.00114
C 18.47096 14.91646 0.00228
C 18.409 13.47427 0.00798
C 17.09626 12.87151 0.00422
C 17.11742 11.37798 0.0351
C 18.35692 10.66797 -0.03113
C 18.40169 9.33195 0.02098
C 17.17424 8.54096 0.01848
C 17.16583 7.06736 -0.00619
C 18.42546 6.3621 -0.02162
C 18.40253 4.94079 0.00889
C 17.14789 4.24826 -0.00481
C 17.1684 2.82261 0.00979
C 18.41265 2.14254 0.01443
C 18.38467 0.70654 0.03505
C 17.1887 34.01243 -0.02815
C 19.60733 32.59746 -0.04147
C 20.79683 31.90806 -0.05302
C 20.73774 30.48894 0.00213
C 17.15738 21.53071 0.02058
C 18.31514 22.15847 0.01965
C 18.39157 23.53377 -0.03682
C 17.23286 24.33953 0.00052
C 14.77592 21.4409 -0.02971
C 14.75895 20.0374 0.02894
C 15.95988 19.1836 -0.01789
C 15.90787 17.72569 0.00444
C 14.65635 17.08631 -0.00925
C 14.69532 15.69655 0.01877
C 15.93514 15.00446 0.01363
C 15.95611 13.4953 -0.02162
C 14.69604 12.85993 0.00415
C 14.73654 11.34693 -0.0014
C 15.9005 10.60695 0.02162
C 15.84574 23.86271 0.02819
C 15.90274 9.09246 0.0076
C 14.61627 7.11581 -0.01454
C 15.85301 6.35814 0.01945
C 15.98252 4.95251 0.01416
C 14.69724 4.23581 0.03542
C 14.71601 2.88228 0.02299
C 16.00989 2.06828 0.00244
C 16.00741 0.59379 -0.01717
C 14.73006 34.02459 0.05265
C 17.10468 32.63548 -0.01952
C 18.32004 31.8745 -0.02813
C 17.98906 30.5462 0.00374
C 14.64281 8.44322 0.01241
C 19.39717 29.74244 -0.00066
C 11.05163 17.78741 0.03007
C 9.88924 19.85261 -0.00494
C 3.70333 0.70252 0.00088
C 2.51662 0.02245 0.00828
C 4.89183 32.7281 -0.02375
C 6.16717 31.93256 0.00558
C 6.07964 30.55708 -0.0059
C 4.84024 29.79848 -0.01386
C 4.84452 28.38648 -0.02805
C 6.09156 27.75331 0.00081
C 6.10646 26.27373 0.00245
C 4.9466 25.53606 0.02728
C 4.93311 24.09945 -0.00039
C 6.06804 23.44139 0.0064
C 6.08901 22.01267 0.00211
C 4.80302 21.34047 -0.00449
C 4.79668 19.92321 -0.01979
C 6.07108 19.29598 0.02784
C 6.00791 17.80484 -0.01977
C 4.90459 17.02052 -0.00561
C 4.87424 15.50989 0.00208
C 6.14864 14.88017 0.01707
C 6.15136 13.57267 0.02769
C 4.79753 12.77518 -0.03291
C 4.90689 11.46414 -0.04999
C 3.71526 2.17337 0.04421
C 2.50804 2.83682 -0.00177
C 2.56095 4.28845 0.03278
C 3.76572 5.02609 0.01138
C 3.69604 30.62556 -0.0005
C 2.46731 29.85206 -0.00018
C 2.43223 28.40759 0.01073
C 3.65348 27.66487 0.01984
C 3.70748 26.26896 0.00535
C 2.48182 25.55406 -0.00198
C 2.46702 24.13163 -0.00012
C 3.66332 23.42643 -0.04306
C 3.55444 22.02322 -0.03672
C 2.33921 21.2582 0.01913
C 2.35193 19.86241 0.00267
C 6.14679 10.73277 0.04505
C 3.67668 19.15544 0.00787
C 2.39074 17.12115 0.01218
C 2.29351 15.66582 -0.01471
C 3.57177 14.91194 -0.02827
C 3.54421 13.52949 0.01078
C 2.2999 12.77715 -0.00112
C 2.34419 11.27734 0.03345
C 3.63442 10.6775 0.00748
C 3.71779 9.23957 0.00662
C 2.5113 8.60354 -0.0154
C 2.51598 7.10742 -0.01299
C 3.75044 6.45437 -0.00407
C 3.61173 17.69401 0.02426
C 11.12858 19.20135 0.00054
C 6.08474 9.3088 0.03284
C 4.98924 7.15165 0.03189
C 8.57622 10.65171 -0.05697
C 8.53154 9.22584 0.01087
C 7.31694 8.54592 -0.01343
C 7.38369 7.19502 0.00988
C 8.60356 6.49738 0.0276
C 8.69992 5.06299 0.01305
C 7.41457 4.34037 -0.00077
C 7.33022 2.94559 0.03368
C 8.5627 2.16322 -0.02929
C 8.59081 0.72219 -0.00966
C 7.34785 0.04129 -0.03337
C 9.85755 32.66841 0.01227
C 11.12205 31.98861 0.00873
C 11.08277 30.48229 -0.00049
C 9.80784 29.80143 0.00848
C 9.85188 28.40476 -0.01303
C 11.10252 27.69753 -0.01378
C 11.10331 26.28575 0.02635
C 9.80412 25.65064 0.0127
C 9.78985 24.26949 0.01396
C 11.07024 23.47117 0.01849
C 11.04335 22.03538 -0.01142
C 9.81665 21.34566 -0.00562
C 7.39142 11.43977 -0.00725
C 7.4124 12.90868 0.02322
C 8.65443 13.57671 -0.00094
C 8.53821 15.03342 -0.02566
C 6.19695 6.45081 0.00031
C 6.2416 5.04851 -0.003
C 4.96814 4.31323 0.01402
C 4.95906 2.93652 0.02379
C 6.14734 2.20224 0.00907
C 6.1458 0.79941 0.00643
C 4.91843 0.06364 -0.01509
C 7.33351 32.6919 0.03267
C 8.61389 31.97226 0.02374
C 8.66768 30.5081 0.00402
C 7.43431 29.84972 0.0073
C 5.0076 8.573 -0.04307
C 7.36031 28.47423 0.0174
C 8.66746 26.41604 0.01226
C 7.34918 25.68477 -0.00279
C 7.3504 24.15763 0.01996
C 8.514 23.48652 -0.03996
C 8.62859 22.06014 0.01465
C 7.37273 21.32563 -0.00074
C 7.33645 19.88701 -0.00518
C 8.56836 19.21769 0.0086
C 8.46579 17.8069 -0.00643
C 7.2832 17.14318 0.017
C 7.27056 15.72571 -0.03113
C 8.57585 27.80615 0.03828
C 3.70739 31.98186 0.01116
C 19.45936 28.38892 -0.00289
C 20.80245 26.38411 -0.02213
C 30.5984 14.93817 -0.0405
C 30.63544 13.4423 -0.01303
C 29.46457 12.67765 -0.01461
C 29.56609 11.32289 -0.02155
C 30.75063 10.46821 -0.00944
C 30.76109 9.03345 -0.03735
C 29.52697 8.36628 -0.00971
C 29.50075 7.0112 0.01518
C 30.74375 6.28729 0.01908
C 30.68082 4.92266 0.07705
C 29.47959 4.25524 0.0103
C 29.57697 2.75784 0.02108
C 30.82057 2.05223 0.00716
C 30.79018 0.7214 0.00307
C 29.49954 0.00121 0.00346
C 31.9819 32.67596 0.01713
C 33.23614 31.94119 -0.01694
C 33.19487 30.48743 0.01428
C 31.92357 29.85008 -0.02142
C 31.96129 28.36906 0.0544
C 33.24338 27.65494 0.00026
C 33.15257 26.28036 0.00682
C 31.91537 25.60538 -0.01779
C 29.39973 15.5738 0.01705
C 29.46371 17.02665 0.0101
C 30.68186 17.741 -0.00669
C 30.67099 19.09977 0.03531
C 28.28704 10.55022 0.00194
C 28.28847 9.0442 -0.00621
C 27.0269 8.51061 0.02611
C 27.0198 7.0247 0.02198
C 28.24431 6.41079 0.01094
C 28.14804 4.98326 0.00235
C 27.01327 4.25854 0.01495
C 27.06043 2.79263 0.01259
C 28.29124 2.0853 0.01799
C 28.25224 0.70856 0.01699
C 27.01598 0.07622 -0.00416
C 31.9128 24.06326 0.03794
C 29.48465 32.65459 0.01177
C 30.64914 30.55628 0.01324
C 29.48009 29.86176 0.0014
C 29.50483 28.51269 0.00924
C 30.76258 27.73705 0.02326
C 30.68007 26.26815 0.00261
C 29.42679 25.57252 0.03265
C 29.43323 24.10799 -0.02049
C 30.70247 23.37987 -0.01854
C 30.632 21.98088 -0.01415
C 29.46036 21.23508 -0.03039
C 29.49249 19.85467 0.01836
C 30.78734 31.91859 0.04266
C 27.04543 11.19424 0.04185
C 33.16769 23.43535 0.01927
C 31.8265 21.3021 -0.02383
C 34.41965 24.20448 0.03076
C 1.17652 23.42324 0.00723
C 1.07833 21.97857 0.02712
C 34.34082 21.23196 -0.02213
C 34.33651 19.89536 0.01951
C 1.0867 19.12524 -0.01678
C 1.18158 17.74664 0.01223
C 34.39943 17.04047 0.00648
C 34.25456 15.63254 0.02114
C 1.14195 14.91654 -0.02957
C 1.13617 13.47173 0.00343
C 34.30242 12.70322 -0.02656
C 34.34409 11.35335 -0.02442
C 1.1312 10.59654 -0.00027
C 1.21497 9.22771 -0.00583
C 34.39691 8.49252 -0.02302
C 34.39744 7.01371 -0.02849
C 1.27893 6.37354 0.02931
C 1.28736 4.9911 0.00628
C 0.09207 4.27151 -0.0345
C 0.05816 2.87683 -0.00931
C 1.245 2.1286 -0.00939
C 1.24242 0.67175 -0.00468
C 34.40768 25.55826 -0.05239
C 1.29883 26.37239 -0.00598
C 1.2698 27.7565 -0.00439
C 0.02156 28.4599 -0.01037
C 31.90948 19.82604 -0.01429
C 33.11181 19.17465 -0.0136
C 33.10351 17.70653 0.00594
C 31.96675 16.96587 -0.02474
C 31.9229 15.5889 0.00369
C 33.08291 14.82187 0.00455
C 33.07608 13.38117 -0.00644
C 31.82712 12.73292 -0.01839
C 31.89366 11.25047 0.00137
C 33.16101 10.54076 0.00199
C 33.15812 9.11935 0.04381
C 33.05223 22.06596 0.01574
C 32.00311 8.32969 0.02806
C 33.22153 6.24867 -0.00069
C 33.19702 4.91775 0.04926
C 31.91887 4.16491 -0.03838
C 32.06311 2.81888 0.00349
C 33.27097 2.14605 -0.00323
C 33.2841 0.74031 -0.00841
C 32.03553 0.04712 0.0001
C 0.0166 32.60109 -0.02927
C 1.31788 32.02421 -0.01404
C 1.28322 30.55067 0.01027
C 34.37903 29.82211 0.01831
C 31.92048 6.95346 0.01504
C 20.7878 27.7521 0.00028
C 27.02185 12.6156 0.02316
C 28.25575 14.88685 0.00152
C 21.93797 29.81523 -0.04076
C 22.00402 28.43955 -0.00652
C 23.3035 27.67855 0.0058
C 23.34041 26.33766 -0.00865
C 22.02931 25.61585 0.00675
C 22.11612 24.13277 -0.00311
C 23.32624 23.45266 0.00742
C 23.24147 22.03527 -0.01594
C 22.05912 21.34568 0.0106
C 22.08662 19.92684 -0.01154
C 23.31988 19.08827 -0.01721
C 23.31893 17.70333 -0.02422
C 22.10634 17.05204 0.01277
C 22.16167 15.65214 0.00096
C 23.32733 14.88758 -0.01527
C 23.33703 13.48145 0.01087
C 21.99649 12.70167 0.00199
C 22.03593 11.26361 0.01511
C 23.30078 10.69773 -0.00478
C 23.30523 9.25942 -0.01662
C 22.1664 8.54098 -0.01185
C 22.15018 7.12456 0.01126
C 23.34106 6.40273 0.01852
C 23.20662 30.45473 -0.00703
C 23.28345 31.95973 0.00654
C 22.1052 32.60568 -0.04422
C 19.59913 0.03377 -0.02957
C 19.60389 25.6092 0.03698
C 19.54989 24.25975 -0.00109
C 20.8708 23.49528 -0.00491
C 20.76572 22.09152 0.03338
C 19.54373 21.40266 -0.0258
C 19.59414 19.93001 -0.0331
C 20.84066 19.26173 -0.00316
C 20.83735 17.73319 0.02188
C 19.64115 17.06849 -0.01979
C 19.64068 15.64831 0.02691
C 20.82703 14.84348 -0.01581
C 23.34823 4.96685 -0.00381
C 20.87791 13.50329 0.01452
C 19.59904 11.41386 -0.00111
C 20.79722 10.56913 -0.03557
C 20.87507 9.22328 0.03754
C 19.59502 8.5996 0.01739
C 19.57801 7.14515 0.00755
C 20.83222 6.43908 -0.0054
C 20.79564 5.08347 0.00667
C 19.67164 4.29253 0.00143
C 19.59067 2.78876 -0.017
C 20.81348 2.14516 0.00364
C 20.80211 0.75868 -0.00831
C 19.59924 12.80098 0.04892
C 28.26631 13.37486 0.01257
C 22.03291 4.3334 0.03046
C 23.26495 2.14157 0.03374
C 25.79407 4.96051 -0.01199
C 24.5409 4.19187 -0.00229
C 24.5195 2.83622 -0.00938
C 25.73292 2.12315 -0.0264
C 25.81343 0.79908 -0.01154
C 24.56152 0.00802 0.00684
C 26.96209 32.67809 -0.01052
C 28.27387 31.95897 -0.01679
C 28.20828 30.56016 0.00367
C 26.99982 29.80443 0.04306
C 27.0168 28.3603 0.00996
C 28.28444 27.75201 0.00195
C 28.2301 26.28247 -0.00802
C 26.96019 25.63003 -0.00218
C 26.9667 24.24728 -0.01654
C 28.2369 23.50607 -0.00037
C 28.17002 22.06213 -0.0032
C 26.96679 21.4449 0.00622
C 27.06218 19.89823 -0.02815
C 28.25438 19.18808 -0.00942
C 28.2964 17.7197 0.00487
C 26.98392 17.08252 0.00826
C 27.08095 15.67117 -0.00294
C 25.80491 6.3439 -0.009
C 24.57448 7.03883 -0.00285
C 24.50621 8.46274 0.01423
C 25.75875 9.25597 0.02555
C 23.30135 0.70714 -0.02845
C 21.99496 34.02194 -0.03213
C 24.5503 32.69894 0.02239
C 25.80198 31.92169 0.01153
C 25.73677 30.51498 0.02734
C 24.46679 29.81662 -0.0055
C 24.48656 28.39505 0.01515
C 25.77746 27.73233 -0.00225
C 25.69071 26.36968 0.00071
C 24.47317 25.52369 -0.01107
C 24.5086 24.14044 -0.01586
C 22.05217 2.83063 0.0296
C 25.74985 23.49606 -0.01971
C 24.51431 21.31714 0.00733
C 24.58629 19.93067 -0.00178
C 25.82153 19.26483 0.00768
C 25.79503 17.79794 -0.0276
C 24.56224 16.98242 0.03005
C 24.51944 15.53279 -0.04078
C 25.78842 14.87691 0.02117
C 25.86466 13.40329 0.02737
C 24.64013 12.84826 -0.00498
C 24.4846 11.4204 0.00135
C 25.77771 10.59449 0.03102
C 25.73951 22.00645 -0.02118
C 2.48103 32.66812 -0.0213
