364
Graphene
C 34.39944 0.02109 0.01295
C 13.54953 4.87411 0.00052
C 12.27808 4.27502 -0.03682
C 12.28748 2.9006 0.01965
C 13.57692 2.23233 0.02058
C 13.58343 0.75068 -0.01957
C 12.37471 0.02021 -0.0108
C 14.76248 32.65644 -0.00368
C 15.94373 31.91671 -0.02696
C 13.45816 6.30033 0.00374
C 16.05589 30.47351 -0.00114
C 16.0742 14.73362 0.00798
C 16.08477 13.58148 0.00422
C 14.72519 11.20915 0.0351
C 15.99906 10.71117 -0.03113
C 15.92644 9.23511 0.02098
C 14.73325 8.46259 0.01848
C 14.67033 6.97117 -0.00619
C 15.95861 6.31364 -0.02162
C 16.16375 17.58375 0.00228
C 12.2651 7.06392 -0.02813
C 12.26832 8.53814 -0.01952
C 13.49562 9.17128 0.05265
C 9.76332 29.90571 0.02894
C 9.64189 28.59369 -0.01789
C 9.84412 21.17004 0.00444
C 9.68314 19.98481 -0.00925
C 11.09116 9.26582 0.01877
C 9.86848 8.57671 0.01363
C 9.7734 7.13584 -0.02162
C 11.03006 6.41309 0.00415
C 11.03502 5.02425 -0.0014
C 9.80218 4.32393 0.02162
C 9.79769 2.95674 0.0076
C 11.0621 2.17192 0.01241
C 11.10845 0.75085 -0.01454
C 9.90665 34.03954 0.01945
C 12.3678 32.61249 0.01416
C 13.56653 31.83252 0.03542
C 13.4249 30.43377 0.02299
C 12.28056 29.99859 0.00244
C 13.76149 10.52745 -0.01717
C 15.93311 4.92974 0.00889
C 14.78361 4.18111 -0.00481
C 14.81372 2.84332 0.00979
C 15.99973 2.13459 0.01443
C 18.46629 0.7742 -0.03557
C 17.17731 0.06589 0.03754
C 19.65808 32.64776 0.01739
C 20.83526 31.87282 0.00755
C 20.92915 30.43487 -0.0054
C 19.66186 29.78974 0.00667
C 19.6663 28.46491 0.00143
C 20.76988 27.65941 -0.017
C 21.10545 26.25334 0.00364
C 21.044 23.44477 -0.00831
C 20.83912 22.14736 -0.02957
C 19.96129 21.30627 -0.04422
C 19.64667 19.92814 0.00654
C 20.99695 19.21239 -0.00703
C 20.8635 17.74176 -0.04076
C 19.64518 16.97964 -0.00652
C 19.66042 15.57751 0.0058
C 20.90314 14.8583 -0.00865
C 20.87718 13.39699 0.00675
C 18.38195 2.1249 -0.00111
C 11.03685 30.50942 -0.02971
C 17.19598 2.89622 0.04892
C 18.30981 4.97839 -0.01581
C 15.95082 0.77789 0.03505
C 14.76692 0.00069 -0.02815
C 17.1609 32.65032 -0.04147
C 18.43864 31.9409 -0.05302
C 18.45837 30.53159 0.00213
C 17.16593 29.99858 -0.00066
C 18.53341 19.14565 -0.00289
C 18.44496 17.81349 0.00028
C 17.27746 16.99527 -0.02213
C 17.17959 15.55416 0.03698
C 18.42742 14.90063 -0.00109
C 18.44839 13.46325 -0.00491
C 17.16999 12.77115 0.03338
C 17.18401 11.38346 -0.0258
C 18.40089 10.66029 -0.0331
C 18.39552 9.19452 -0.00316
C 17.1379 8.53571 0.02188
C 17.15497 7.11038 -0.01979
C 18.44465 6.40357 0.02691
C 17.09788 4.28816 0.01452
C 19.7008 12.68285 -0.00311
C 11.06443 31.94958 0.00165
C 7.36702 0.01392 -0.00891
C 3.65737 6.37987 -0.01303
C 3.73274 4.95693 -0.01378
C 2.47779 4.32549 0.02635
C 2.50941 2.86837 0.0127
C 3.70709 2.18143 0.01396
C 3.64586 0.70662 0.01849
C 2.40788 34.04407 -0.01142
C 4.9259 32.76177 -0.00562
C 2.41207 7.08336 0.00848
C 6.11761 32.08095 -0.00494
C 4.84357 29.86428 0.03007
C 4.86645 28.44424 -0.00095
C 6.17038 27.74726 0.01572
C 6.18099 26.32474 -0.04848
C 4.97191 25.58466 -0.00892
C 4.93439 24.13561 -0.01362
C 6.14047 23.38977 -0.0008
C 6.12385 22.04397 0.0288
C 6.02405 30.6165 0.00054
C 2.4437 8.517 -0.00049
C 3.62161 9.25044 0.00873
C 3.66509 10.69526 0.01227
C 3.61971 30.51944 0.0086
C 2.45227 29.82495 -0.00643
C 2.50792 28.34901 0.017
C 3.71 27.63672 -0.03113
C 3.71875 26.209 -0.02566
C 2.47867 25.56746 -0.00094
C 2.41502 24.232 0.02322
C 3.63243 23.52767 -0.00725
C 3.72975 22.03414 -0.05697
C 2.48786 21.3434 0.01087
C 2.49709 19.91657 -0.01343
C 3.73397 19.15514 0.00988
C 3.74868 17.72122 0.0276
C 2.45279 16.97499 0.01305
C 2.42772 15.60112 -0.00077
C 3.6709 14.98006 0.03368
C 3.63574 13.62932 -0.02929
C 2.44095 12.83497 -0.00966
C 2.47185 11.43007 -0.03337
C 4.92112 21.29518 0.00393
C 4.95202 19.83898 0.00895
C 6.22758 19.19774 0.00685
C 6.12948 17.90196 0.02888
C 8.44558 26.2403 -0.01062
C 7.36502 25.56177 -0.00033
C 7.42214 24.09927 0.03589
C 8.61003 23.46171 -0.02759
C 8.73364 22.08853 0.0402
C 7.42088 21.41503 0.00572
C 7.4368 19.95342 0.03592
C 8.64456 19.29263 0.00406
C 7.54142 11.25814 0.00943
C 8.5968 10.67089 0.02841
C 8.69501 9.28856 -0.01111
C 7.35031 8.49806 -0.01275
C 7.32037 7.0676 0.00985
C 8.55182 6.36463 -0.02245
C 8.5695 4.96465 -0.00428
C 7.28964 4.25816 0.03101
C 7.37306 2.86213 -0.01536
C 8.59401 2.14756 -0.02689
C 8.6195 0.67166 -0.01046
C 8.66244 27.66902 0.01364
C 9.77595 32.65125 0.02819
C 7.29253 28.49895 -0.00719
C 8.49658 30.58716 0.02339
C 5.00198 17.10358 -0.00482
C 5.02532 15.72068 -0.01384
C 6.06893 14.86763 0.03693
C 6.02758 13.63663 0.01745
C 4.95878 12.82544 0.00488
C 4.9295 11.39865 -0.01004
C 6.21107 10.76528 -0.02896
C 6.17631 9.30526 -0.00131
C 4.92394 8.6593 -0.01118
C 4.90001 7.19629 -0.014
C 6.07301 6.41925 0.02147
C 6.12082 5.01559 0.00373
C 4.91772 4.22767 -0.00191
C 4.90839 2.85193 0.00438
C 6.18297 2.12966 0.01291
C 6.14033 0.72011 0.00093
C 4.88846 0.08302 0.00057
C 7.3467 32.65963 -0.01634
C 8.55244 31.95778 -0.00334
C 7.28122 29.89448 0.01641
C 19.65617 11.27812 0.00742
C 20.89179 10.69331 -0.01594
C 20.845 9.26395 0.0106
C 29.42613 0.0395 0.00346
C 32.03713 32.6849 0.01713
C 33.20467 31.94995 -0.01694
C 33.15345 30.49014 0.01428
C 31.94483 29.83245 -0.02142
C 31.89304 28.41666 0.0544
C 33.18988 27.68741 0.00026
C 33.10537 26.2758 0.00682
C 30.6738 0.72269 0.00307
C 31.91936 25.52338 -0.01779
C 33.13402 23.42924 0.01927
C 33.19882 22.07437 0.01574
C 31.96886 21.27342 -0.02383
C 31.9748 19.88153 -0.01429
C 33.23438 19.18333 -0.0136
C 33.27119 17.74813 0.00594
C 32.00747 17.07963 -0.02474
C 32.01783 15.68429 0.00369
C 31.92561 24.0774 0.03794
C 30.68382 2.12953 0.00716
C 29.4743 2.86512 0.02108
C 29.50477 4.26486 0.0103
C 29.62954 25.49869 -0.02049
C 30.79526 23.40626 -0.01854
C 30.72687 22.0186 -0.01415
C 29.5647 21.30039 -0.03039
C 29.39365 20.01348 0.01836
C 30.75842 19.15785 0.03531
C 30.72934 17.75329 -0.00669
C 29.52539 17.05858 0.0101
C 29.54685 15.63658 0.01705
C 30.75803 14.93555 -0.0405
C 30.77169 13.48273 -0.01303
C 29.55692 12.75845 -0.01461
C 29.50747 11.35598 -0.02155
C 30.72493 10.63495 -0.00944
C 30.7588 9.15222 -0.03735
C 29.58 8.48009 -0.00971
C 29.48801 7.09954 0.01518
C 30.69437 6.33285 0.01908
C 30.66825 4.93593 0.07705
C 33.19368 14.91461 0.00455
C 33.13524 13.47275 -0.00644
C 31.98864 12.706 -0.01839
C 31.95375 11.35066 0.00137
C 0.02161 19.92545 0.01951
C 1.25043 19.15681 -0.01678
C 1.27376 17.74344 0.01223
C 0.02552 17.03666 0.00648
C 0.00967 15.5393 0.02114
C 1.17299 14.84003 -0.02957
C 1.19021 13.43715 0.00343
C 34.37207 12.80441 -0.02656
C 34.38966 11.32994 -0.02442
C 1.23482 10.71041 -0.00027
C 1.25242 9.30747 -0.00583
C 0.04404 8.59883 -0.02302
C 34.38713 7.1609 -0.02849
C 1.19852 6.4142 0.02931
C 1.24213 5.00697 0.00628
C 0.01748 4.30231 -0.0345
C 0.06207 2.86053 -0.00931
C 1.26175 2.1222 -0.00939
C 1.21426 0.71427 -0.00468
C 0.03954 21.36716 -0.02213
C 30.69138 26.25234 0.03265
C 1.26887 22.07408 0.02712
C 34.38765 24.18786 0.03076
C 33.1951 10.6171 0.00199
C 33.23587 9.20751 0.04381
C 31.94606 8.48409 0.02806
C 31.92916 7.04246 0.01504
C 33.14478 6.37849 -0.00069
C 33.14888 4.94654 0.04926
C 31.88815 4.23573 -0.03838
C 31.92631 2.79652 0.00349
C 33.25243 2.21329 -0.00323
C 33.21717 0.82595 -0.00841
C 31.96617 0.06629 0.0001
C 34.41743 32.66925 -0.02927
C 1.20204 31.93427 -0.01404
C 1.19597 30.51348 0.01027
C 34.41629 29.80579 0.01831
C 0.0091 28.35664 -0.01037
C 1.28763 27.74719 -0.00439
C 1.19786 26.28014 -0.00598
C 34.34703 25.56252 -0.05239
C 1.15836 23.45948 0.00723
C 30.76429 27.69956 0.00261
C 29.4816 28.45409 0.02326
C 29.49463 29.88135 0.00924
C 22.12847 12.7395 -0.0055
C 22.15485 11.32637 0.01515
C 23.38178 10.64461 -0.00225
C 23.36275 9.2036 0.00071
C 22.06981 8.59313 -0.01107
C 22.11668 7.13456 -0.01586
C 23.33937 6.35587 -0.01971
C 23.22451 4.94338 -0.02118
C 21.99632 4.24436 0.00733
C 22.08079 2.86922 -0.00178
C 23.33696 2.09249 0.00768
C 23.27474 0.63882 -0.0276
C 22.05138 34.00873 0.03005
C 24.51782 32.6118 -0.04078
C 25.78845 31.96285 0.02117
C 25.78127 30.50521 0.02737
C 24.57631 29.75785 -0.00498
C 24.65438 28.25094 0.00135
C 25.87069 27.78257 0.03102
C 23.35019 13.50063 0.02734
C 25.84368 17.67336 0.02555
C 23.28802 14.88958 0.01153
C 22.14123 17.02567 -0.03213
C 19.63128 8.51778 -0.01154
C 19.70722 7.13515 -0.01721
C 20.93631 6.40956 -0.02422
C 20.7265 4.98543 0.01277
C 19.54274 4.25282 0.00096
C 19.6327 2.79621 -0.01527
C 20.8825 2.12254 0.01087
C 20.87969 0.72776 0.00199
C 19.7191 0.00848 0.01511
C 21.99223 32.59875 -0.00478
C 23.25492 31.90682 -0.01662
C 23.38442 30.45691 -0.01185
C 22.15692 29.72601 0.01126
C 22.28919 28.31331 0.01852
C 23.39835 27.62028 -0.00381
C 22.01744 25.4939 0.03046
C 22.24393 19.72083 0.0296
C 23.18357 19.04442 0.03374
C 23.42028 17.67435 -0.02845
C 22.10787 15.52264 0.02239
C 3.6881 31.98834 -0.00518
C 24.63862 16.91703 0.01423
C 25.84555 14.81356 -0.009
C 27.04108 15.62819 0.00152
C 28.27324 14.88688 0.01257
C 28.37003 13.4987 0.02316
C 27.08435 12.75533 0.04185
C 27.06419 11.3591 0.00194
C 28.29775 10.67023 -0.00621
C 28.35762 9.28547 0.02611
C 27.19795 8.5571 0.02198
C 27.10785 7.13992 0.01094
C 28.30614 6.37756 0.00235
C 28.2068 4.99699 0.01495
C 26.95514 4.26486 0.01259
C 26.98478 2.89087 0.01799
C 28.26384 2.18159 0.01699
C 28.22937 0.77818 -0.00416
C 27.05363 0.00254 0.01177
C 29.43081 32.68527 0.04266
C 30.76619 32.00634 0.01324
C 30.72989 30.57182 0.0014
C 27.10127 17.07148 -0.00294
C 24.58606 15.51933 -0.00285
C 28.29621 17.80578 0.00826
C 28.34388 27.68839 -0.00942
C 25.81653 13.4281 -0.01199
C 24.59032 12.74419 -0.00229
C 24.52786 11.31158 -0.00938
C 25.86386 10.66429 -0.0264
C 25.90895 9.23871 -0.01154
C 24.64638 8.54541 0.00684
C 24.6123 7.14113 -0.01052
C 25.81517 6.43338 -0.01679
C 25.73486 4.96039 0.00367
C 24.45078 4.22822 0.04306
C 24.5611 2.84112 0.00996
C 25.78111 2.1221 0.00195
C 25.73257 0.6864 -0.00802
C 24.48058 34.00071 -0.00218
C 27.00273 32.66025 -0.01654
C 28.21897 31.97671 -0.00037
C 28.22037 30.51441 -0.0032
C 27.02877 29.8302 0.00622
C 27.10058 28.31907 -0.02815
C 28.33198 19.18216 0.00487
C 2.46493 32.63559 -0.00074
