326
Graphene
C 34.35327 0.07578 0.01295
C 13.4711 13.5622 0.00213
C 12.17508 12.84428 -0.00066
C 12.23272 11.43752 -0.00289
C 13.54612 10.70942 0.00028
C 13.5077 9.29374 -0.02213
C 12.28957 8.58538 0.03698
C 12.23819 7.18761 -0.00109
C 13.59069 27.69393 -0.05302
C 13.49992 6.43948 -0.00491
C 12.22773 4.25773 -0.0258
C 12.30865 2.84723 -0.0331
C 13.476 2.0498 -0.00316
C 13.44998 0.66086 0.02188
C 12.30429 34.04005 -0.01979
C 14.82454 32.64966 0.02691
C 16.07874 31.85776 -0.01581
C 13.48653 4.98839 0.03338
C 16.10428 30.4576 0.01452
C 12.29226 28.33339 -0.04147
C 13.54679 30.41102 0.03505
C 11.11518 13.5731 -0.00368
C 9.70555 13.12566 -0.02696
C 9.76027 11.59344 -0.00114
C 10.9607 10.78326 0.00228
C 11.05939 9.337 0.00798
C 9.8221 8.60615 0.00422
C 9.81486 7.18739 0.0351
C 12.33117 29.7445 -0.02815
C 11.0425 6.46354 -0.03113
C 9.86521 4.26052 0.01848
C 9.85968 2.81221 -0.00619
C 11.0759 2.12873 -0.02162
C 11.05557 0.6612 0.00889
C 9.85806 34.02206 -0.00481
C 12.31822 32.5674 0.00979
C 13.58363 31.84262 0.01443
C 11.08756 5.04531 0.02098
C 14.92453 29.7811 0.04892
C 14.73291 28.297 -0.00111
C 16.02414 13.49489 -0.03557
C 18.3767 10.67692 0.0106
C 18.40415 9.34952 -0.01154
C 17.18271 8.55213 -0.01721
C 17.24754 7.13671 -0.02422
C 18.41072 6.34297 0.01277
C 18.38203 4.86283 0.00096
C 17.13674 4.22775 -0.01527
C 17.12973 11.34993 -0.01594
C 17.13938 2.73284 0.01087
C 18.47295 0.63686 0.01511
C 17.14689 34.05204 -0.00478
C 19.74514 32.6326 -0.01662
C 20.9188 31.91762 -0.01185
C 20.9018 30.54692 0.01126
C 19.71481 29.84585 0.01852
C 19.35867 28.25894 -0.00381
C 18.37886 2.03407 0.00199
C 17.19846 12.83147 0.00742
C 18.48852 13.09077 -0.00311
C 17.92725 28.39098 0.00675
C 14.67763 13.07175 0.03754
C 14.66047 11.54575 0.01739
C 15.91081 10.73129 0.00755
C 15.89368 9.25879 -0.0054
C 14.67808 8.54747 0.00667
C 14.74132 7.12349 0.00143
C 15.95993 6.49053 -0.017
C 16.04658 5.051 0.00364
C 14.80448 4.28569 -0.00831
C 14.66119 2.80258 -0.02957
C 15.92168 2.09805 -0.04422
C 15.92142 0.6903 0.00654
C 14.65693 34.04476 -0.00703
C 17.19688 32.60439 -0.04076
C 18.4632 32.00924 -0.00652
C 18.49565 30.6555 0.0058
C 17.42231 29.80392 -0.00865
C 9.01734 24.37138 -0.0108
C 9.89783 25.41075 -0.01957
C 10.95373 26.15978 0.02058
C 11.06094 27.57817 0.01965
C 3.56753 6.51068 0.01291
C 3.60235 5.08178 0.00093
C 2.39604 4.35329 0.00057
C 2.33888 2.87072 -0.01634
C 3.65951 2.21668 -0.00334
C 3.66509 0.80273 0.02339
C 2.3862 0.04094 0.01641
C 2.29288 7.0621 0.00438
C 4.89376 32.71401 -0.00719
C 6.21068 30.54509 -0.01062
C 4.97345 29.80651 -0.00033
C 4.93824 28.43041 0.03589
C 6.1877 27.63486 -0.02759
C 6.13459 26.24865 0.0402
C 4.89101 25.58933 0.00572
C 4.95852 24.28041 0.03592
C 6.14803 31.9766 0.01364
C 2.36125 8.52024 -0.00191
C 3.54297 9.1941 0.00373
C 3.63933 10.67606 0.02147
C 3.75783 30.61498 -0.01362
C 2.4218 29.87757 -0.0008
C 2.43128 28.43294 0.0288
C 3.70875 27.77807 0.00393
C 3.70449 26.29131 0.00895
C 2.49902 25.61378 0.00685
C 2.48618 24.18871 0.02888
C 3.71909 23.41993 -0.00482
C 3.82777 22.04708 -0.01384
C 2.61738 21.3017 0.03693
C 2.44204 19.96622 0.01745
C 2.38889 17.09075 0.00488
C 2.58468 15.76427 -0.01004
C 3.5482 14.85495 -0.02896
C 3.58105 13.53132 -0.00131
C 2.3155 12.8182 -0.01118
C 2.50265 11.39368 -0.014
C 5.98307 13.43215 0.00406
C 20.51048 28.01639 0.03046
C 4.78299 12.87439 0.00943
C 6.15652 10.71718 -0.01111
C 8.55496 10.80765 0.02162
C 8.54076 9.35444 0.0076
C 7.36889 8.53291 0.01241
C 7.31652 7.11182 -0.01454
C 8.61862 6.39908 0.01945
C 8.56043 4.9339 0.01416
C 7.38287 4.31166 0.03542
C 7.30079 11.52778 -0.0014
C 7.3977 2.80117 0.02299
C 8.66627 0.70809 -0.01717
C 7.3907 33.95992 0.05265
C 9.83216 32.52819 -0.01952
C 11.08381 31.79978 -0.02813
C 11.09403 30.42584 0.00374
C 9.86456 29.7335 0.00052
C 9.84518 28.28864 -0.03682
C 8.60785 2.08357 0.00244
C 7.26299 13.05758 0.00415
C 8.48931 13.63995 -0.02162
C 7.45695 25.53581 0.01363
C 6.1229 9.32719 -0.01275
C 4.78693 8.53125 0.00985
C 4.8688 7.13138 -0.02245
C 6.13921 6.41015 -0.00428
C 6.14808 4.986 0.03101
C 4.84329 4.22351 -0.01536
C 4.90092 2.85712 -0.02689
C 6.14528 2.2197 -0.01046
C 6.09549 0.73569 -0.00891
C 4.88862 0.11324 0.02819
C 7.37103 32.62131 0.00165
C 8.59736 31.87137 -0.02971
C 8.63604 30.41856 0.02894
C 7.38251 29.82471 -0.01789
C 7.37689 28.38152 0.00444
C 8.70346 27.70096 -0.00925
C 8.562 26.2959 0.01877
C 4.87445 11.36623 0.02841
C 21.06834 13.58135 0.0296
C 19.78332 13.31472 0.03374
C 19.28315 11.89698 -0.02845
C 33.12637 26.21308 0.00682
C 31.87824 25.51014 -0.01779
C 31.90962 24.14505 0.03794
C 33.15028 23.40813 0.01927
C 33.10545 22.01984 0.01574
C 31.80801 21.31195 -0.02383
C 31.81308 19.82171 -0.01429
C 33.10453 27.63769 0.00026
C 33.0807 19.17815 -0.0136
C 31.82916 17.06906 -0.02474
C 31.8479 15.56874 0.00369
C 33.11864 14.95704 0.00455
C 33.17005 13.45212 -0.00644
C 31.88737 12.70292 -0.01839
C 31.99512 11.16668 0.00137
C 33.27961 10.72128 0.00199
C 33.05349 17.78714 0.00594
C 31.96581 28.39907 0.0544
C 31.94544 29.82573 -0.02142
C 33.1607 30.54325 0.01428
C 30.60227 19.13539 -0.0405
C 30.63872 17.72197 -0.01303
C 29.44107 16.99499 -0.01461
C 29.40692 15.55268 -0.02155
C 30.65612 14.74339 -0.00944
C 30.63984 13.43974 -0.03735
C 29.40731 12.90438 -0.00971
C 31.19307 9.92741 0.01518
C 30.4706 6.47774 0.01908
C 30.4227 5.08664 0.07705
C 29.41742 4.18711 0.0103
C 29.46078 2.80536 0.02108
C 30.67929 2.05411 0.00716
C 30.61861 0.6251 0.00307
C 29.45223 33.96557 0.00346
C 31.93604 32.60661 0.01713
C 33.16864 31.95782 -0.01694
C 33.24576 9.31789 0.04381
C 29.42349 19.88242 0.01705
C 31.90831 8.61974 0.02806
C 33.00732 6.52678 -0.00069
C 34.27292 17.11039 0.00648
C 34.32962 15.71337 0.02114
C 1.16959 15.01771 -0.02957
C 1.18008 13.60508 0.00343
C 34.41062 12.83159 -0.02656
C 0.0526 11.42446 -0.02442
C 1.18642 10.70589 -0.00027
C 1.16798 17.74819 0.01223
C 1.08572 9.31212 -0.00583
C 34.26986 7.22421 -0.02849
C 1.0379 6.44049 0.02931
C 1.07495 5.03731 0.00628
C 34.2453 4.40921 -0.0345
C 34.31708 2.95796 -0.00931
C 1.12884 2.12542 -0.00939
C 1.13333 0.7498 -0.00468
C 34.35462 8.54328 -0.02302
C 1.26863 19.172 -0.01678
C 34.37943 19.88688 0.01951
C 34.42642 21.26295 -0.02213
C 33.00974 5.12124 0.04926
C 31.81696 4.35829 -0.03838
C 31.83662 2.86345 0.00349
C 33.10817 2.23003 -0.00323
C 33.10082 0.76994 -0.00841
C 31.87417 34.01583 0.0001
C 34.35227 32.698 -0.02927
C 1.17185 32.04204 -0.01404
C 1.17503 30.62854 0.01027
C 34.37497 29.82192 0.01831
C 34.34288 28.40935 -0.01037
C 1.15964 27.73662 -0.00439
C 1.16723 26.30147 -0.00598
C 34.36158 25.53744 -0.05239
C 34.3726 24.06457 0.03076
C 1.26992 23.40764 0.00723
C 1.26409 22.01635 0.02712
C 31.68366 7.30411 0.01504
C 3.69904 32.01386 -0.00892
C 29.44997 21.30733 0.0101
C 30.72629 23.43267 0.03531
C 23.43323 2.24452 0.00135
C 23.27497 0.76313 0.03102
C 22.13158 34.03542 0.02555
C 24.56339 32.73482 0.01423
C 25.71762 31.9334 -0.00285
C 25.76133 30.52879 -0.009
C 24.50073 29.75927 -0.01199
C 22.26829 2.9333 -0.00498
C 24.34081 28.25419 -0.00229
C 25.6462 26.25398 -0.0264
C 24.3119 25.38975 -0.01154
C 24.58156 24.08601 0.00684
C 25.76055 23.30862 -0.01052
C 25.77853 21.89963 -0.01679
C 24.53967 21.22466 0.00367
C 24.53483 19.8247 0.04306
C 25.7048 27.64251 -0.00938
C 22.11181 4.35386 0.02737
C 22.41454 13.21994 0.02117
C 23.66386 12.85973 -0.04078
C 19.51632 8.5486 -0.03213
C 19.512 7.27672 0.02239
C 20.91939 4.88314 0.01153
C 19.63003 4.22516 0.02734
C 19.6757 2.8635 -0.0055
C 20.99676 2.1994 0.01515
C 20.93598 0.77419 -0.00225
C 19.75953 0.04723 0.00071
C 22.1549 32.60651 -0.01107
C 23.34754 31.95668 -0.01586
C 23.31119 30.49671 -0.01971
C 22.10763 29.86426 -0.02118
C 21.86558 28.42215 0.00733
C 23.06168 27.5718 -0.00178
C 23.19027 26.11179 0.00768
C 21.6391 15.29485 -0.0276
C 22.96639 14.72022 0.03005
C 25.73397 19.12164 0.00996
C 30.66631 22.04507 -0.00669
C 25.72897 17.74217 0.00195
C 24.13723 15.39987 -0.00218
C 26.89704 15.66121 0.01799
C 28.11227 14.87074 0.01699
C 28.23679 13.56188 -0.00416
C 27.12353 2.78356 0.01177
C 28.232 2.10834 0.04266
C 28.26877 0.64107 0.01324
C 26.95503 34.03055 0.0014
C 27.03673 17.03467 0.01259
C 29.42212 32.53366 0.00924
C 30.67629 30.4566 0.00261
C 29.40994 29.81703 0.03265
C 29.40883 28.37235 -0.02049
C 30.68758 27.69272 -0.01854
C 30.63896 26.30981 -0.01415
C 29.41765 25.59514 -0.03039
C 29.45799 24.12236 0.01836
C 30.6005 31.86373 0.02326
C 28.25471 17.77117 0.01495
C 28.2517 19.17875 0.00235
C 26.93663 19.93265 0.01094
C 25.44383 15.58278 -0.01654
C 24.65501 2.91771 -0.00037
C 25.87176 2.27217 -0.0032
C 25.86586 0.77827 0.00622
C 24.57144 0.04014 -0.02815
C 27.01759 32.56056 -0.00942
C 28.23098 31.90242 0.00487
C 28.17998 30.49286 0.00826
C 26.96141 29.81149 -0.00294
C 26.88776 28.48716 0.00152
C 28.12149 27.64124 0.01257
C 28.22166 26.30766 0.02316
C 26.87909 25.46918 0.04185
C 26.95819 24.06661 0.00194
C 28.22219 23.47822 -0.00621
C 28.19738 22.04273 0.02611
C 27.06291 21.32854 0.02198
C 24.86479 16.68759 -0.00802
C 2.45089 32.7659 -0.04848
