290
Graphene
C 0.01583 0.02166 0.01295
C 9.88328 11.32753 0.00143
C 11.04231 10.68881 -0.017
C 11.07894 9.28833 0.00364
C 9.87388 8.51477 -0.00831
C 9.87082 7.14444 -0.02957
C 11.07544 6.4161 -0.04422
C 9.79587 12.7614 0.00667
C 11.03998 4.98786 0.00654
C 9.83722 2.75777 -0.04076
C 11.09686 2.12544 -0.00652
C 11.1131 0.72092 0.0058
C 9.85716 34.04345 -0.00865
C 12.3408 17.03032 0.00675
C 12.31867 15.60503 -0.00311
C 9.80556 4.28263 -0.00703
C 13.54468 14.88756 0.00742
C 11.08288 13.43519 -0.0054
C 9.81053 15.58989 0.01739
C 7.40677 11.28922 -0.00491
C 8.55578 10.62468 0.03338
C 8.60484 9.25329 -0.0258
C 7.37667 8.47772 -0.0331
C 7.32921 7.14977 -0.00316
C 8.55272 6.4323 0.02188
C 11.06805 14.9202 0.00755
C 8.64791 4.97724 -0.01979
C 7.39747 2.85926 -0.01581
C 8.62417 2.13595 0.01452
C 8.60365 0.7007 0.04892
C 7.40846 0.00096 -0.00111
C 9.82259 32.6439 -0.03557
C 9.87333 17.09585 0.03754
C 7.37176 4.29608 0.02691
C 7.36316 12.77806 -0.00109
C 13.56936 13.4046 -0.01594
C 12.30222 11.36649 -0.01154
C 14.77616 4.2721 -0.03213
C 14.81933 2.87468 0.02239
C 15.98894 2.08732 0.01153
C 15.93593 0.70588 0.02734
C 14.75999 34.04489 -0.0055
C 17.19059 32.65138 0.01515
C 16.01736 4.93731 -0.02845
C 18.4699 31.97656 -0.00225
C 17.23521 17.02498 -0.01107
C 17.22869 15.63217 -0.01586
C 17.16543 4.34822 -0.01971
C 17.20067 2.85473 -0.02118
C 18.40943 2.08854 0.00733
C 18.44501 0.65748 -0.00178
C 18.41279 17.82002 0.00071
C 12.31447 12.73955 0.0106
C 14.71704 7.11008 0.03374
C 14.74218 11.38479 0.03046
C 13.52917 10.63473 -0.01721
C 13.54034 9.27179 -0.02422
C 12.30178 8.47894 0.01277
C 12.28239 7.07897 0.00096
C 13.52432 6.38765 -0.01527
C 13.55953 4.9101 0.01087
C 14.73058 8.50158 0.0296
C 12.29143 4.23505 0.00199
C 13.54549 2.1046 -0.00478
C 13.52599 0.67764 -0.01662
C 12.27207 0.02351 -0.01185
C 14.76752 15.5725 0.01126
C 15.94182 14.90196 0.01852
C 14.72336 12.76815 -0.00381
C 12.27794 2.85261 0.01511
C 8.58857 13.50692 0.03698
C 8.64962 14.88159 -0.02213
C 7.42975 15.61673 0.00028
C 2.45681 11.39499 -0.01789
C 3.68173 10.66913 0.00444
C 3.70876 9.24416 -0.00925
C 2.45971 8.5253 0.01877
C 2.47825 7.06722 0.01363
C 3.67394 6.35236 -0.02162
C 2.45007 12.77611 0.02894
C 3.69427 4.99323 0.00415
C 2.45209 2.84958 0.02162
C 3.66804 2.11631 0.0076
C 3.65823 0.72032 0.01241
C 2.46771 34.04829 -0.01454
C 4.87244 32.67422 0.01945
C 6.13006 31.99632 0.01416
C 2.49813 4.25493 -0.0014
C 6.13106 30.52286 0.03542
C 3.6875 13.46787 -0.02971
C 2.44952 15.6006 0.02819
C 3.67434 30.53489 0.03592
C 2.41756 29.81539 0.00406
C 2.46649 28.37436 0.00943
C 3.71567 27.71898 0.02841
C 3.6596 26.30368 -0.01111
C 2.47898 25.56916 -0.01275
C 3.67642 14.92916 0.00165
C 2.45177 24.15499 0.00985
C 3.67884 22.06051 -0.00428
C 2.46471 21.26369 0.03101
C 2.4332 19.87865 -0.01536
C 3.66161 19.18624 -0.02689
C 3.69087 17.7738 -0.01046
C 2.49422 17.0391 -0.00891
C 3.68126 23.47783 -0.02245
C 4.96776 29.78336 0.02299
C 4.94384 28.41268 0.00244
C 6.16833 27.68407 -0.01717
C 6.15637 6.3805 0.01848
C 6.11615 5.02313 -0.00619
C 4.92406 4.2982 -0.02162
C 4.90414 2.83663 0.00889
C 6.11047 2.13802 -0.00481
C 6.10813 0.72819 0.00979
C 4.93995 7.04942 0.02098
C 4.96446 0.03589 0.01443
C 8.59794 31.94338 -0.02815
C 7.44841 29.83166 -0.04147
C 7.39556 19.88937 -0.05302
C 8.52814 19.15429 0.00213
C 8.59263 17.80532 -0.00066
C 7.37592 17.0447 -0.00289
C 7.39144 32.62565 0.03505
C 4.89489 8.50958 -0.03113
C 6.18883 9.20185 0.0351
C 6.09532 10.64419 0.00422
C 6.19686 26.25974 0.05265
C 4.8459 25.50659 -0.01952
C 4.89802 24.1786 -0.02813
C 6.12443 23.42624 0.00374
C 6.11501 22.02802 0.00052
C 4.96806 21.34086 -0.03682
C 4.92354 19.82864 0.01965
C 6.1832 19.15793 0.02058
C 6.15713 17.77802 -0.01957
C 4.91782 17.07074 -0.0108
C 4.9232 15.62191 -0.00368
C 6.13053 14.84751 -0.02696
C 6.14145 13.46496 -0.00114
C 4.94229 12.79976 0.00228
C 4.91603 11.33225 0.00798
C 17.18108 0.01189 0.00768
C 19.68214 32.72931 -0.0276
C 20.87128 31.96119 0.03005
C 20.91447 30.50716 -0.04078
C 32.01806 19.88356 -0.01429
C 33.22487 19.20596 -0.0136
C 33.15835 17.68724 0.00594
C 31.96599 17.03395 -0.02474
C 31.96616 15.60397 0.00369
C 33.17816 14.8469 0.00455
C 32.00533 21.30113 -0.02383
C 33.22202 13.48906 -0.00644
C 31.95492 11.35084 0.00137
C 33.20205 10.60361 0.00199
C 33.16307 9.2561 0.04381
C 31.98504 8.52443 0.02806
C 31.96491 7.1392 0.01504
C 33.19189 6.38602 -0.00069
C 31.95521 12.78274 -0.01839
C 33.22558 4.99299 0.04926
C 33.21078 21.99739 0.01574
C 31.95627 24.17742 0.03794
C 30.77122 4.97511 0.07705
C 29.50225 4.27763 0.0103
C 29.51302 2.87942 0.02108
C 30.77156 2.14236 0.00716
C 30.72136 0.74884 0.00307
C 29.50114 0.00434 0.00346
C 33.23257 23.42745 0.01927
C 31.90315 32.64956 0.01713
C 33.2167 30.55121 0.01428
C 31.99557 29.79605 -0.02142
C 32.0101 28.3841 0.0544
C 33.19364 27.7294 0.00026
C 33.17002 26.30439 0.00682
C 31.98101 25.556 -0.01779
C 33.16591 31.9456 -0.01694
C 31.95317 4.28848 -0.03838
C 31.97831 2.84875 0.00349
C 33.21345 2.10551 -0.00323
C 1.19414 14.94085 -0.02957
C 1.2124 13.51387 0.00343
C 0.03665 12.79084 -0.02656
C 34.4254 11.33852 -0.02442
C 1.21467 10.69291 -0.00027
C 1.19872 9.21907 -0.00583
C 34.42807 15.6088 0.02114
C 34.40672 8.54687 -0.02302
C 1.15811 6.36441 0.02931
C 1.1876 4.95286 0.00628
C 34.41628 4.19098 -0.0345
C 0.0148 2.85955 -0.00931
C 1.22177 2.14128 -0.00939
C 1.26323 0.73502 -0.00468
C 34.42548 7.08074 -0.02849
C 34.42993 17.01013 0.00648
C 1.22141 17.75584 0.01223
C 1.26681 19.18146 -0.01678
C 33.21417 0.72025 -0.00841
C 31.96404 34.07178 0.0001
C 34.41846 32.66032 -0.02927
C 1.2192 31.96584 -0.01404
C 1.19288 30.56295 0.01027
C 0.01846 29.81325 0.01831
C 0.01462 28.39175 -0.01037
C 1.26833 27.64135 -0.00439
C 1.23519 26.28642 -0.00598
C 34.42512 25.60443 -0.05239
C 0.00025 24.15424 0.03076
C 1.21703 23.44362 0.00723
C 1.20518 22.01355 0.02712
C 34.41151 21.31695 -0.02213
C 0.02851 19.91775 0.01951
C 30.76165 6.35354 0.01908
C 3.69873 31.923 0.00572
C 30.77175 13.50031 0.01518
C 29.51719 15.68788 -0.03735
C 24.61772 32.63723 0.04306
C 25.77865 31.95981 0.00996
C 25.86128 30.5001 0.00195
C 24.57466 29.80479 -0.00802
C 24.58328 28.44174 -0.00218
C 25.79743 27.68065 -0.01654
C 22.10618 0.04321 0.00367
C 25.81436 26.26387 -0.00037
C 24.5933 24.10115 0.00622
C 25.85224 23.3987 -0.02815
C 25.82695 22.02232 -0.00942
C 24.62985 21.27946 0.00487
C 24.57179 19.81455 0.00826
C 25.82211 19.19891 -0.00294
C 24.64119 25.55741 -0.0032
C 25.80374 2.10291 0.00152
C 23.41009 0.67294 -0.01679
C 22.11396 19.89056 0.00684
C 20.88097 19.1936 0.02117
C 20.93665 2.18962 0.02737
C 20.92614 0.75195 -0.00498
C 19.7051 0.05727 0.00135
C 22.11169 32.66443 0.03102
C 23.35139 31.93199 0.02555
C 23.34875 19.12704 -0.01052
C 23.39909 30.56852 0.01423
C 22.16571 28.39896 -0.009
C 23.35808 27.63556 -0.01199
C 23.34033 26.30883 -0.00229
C 23.40377 23.46097 -0.00938
C 23.36477 22.06698 -0.0264
C 22.14544 21.25899 -0.01154
C 22.11389 29.7822 -0.00285
C 25.83318 0.72129 0.01257
C 24.62279 34.06649 0.02316
C 27.02201 32.62322 0.04185
C 30.71104 30.48633 -0.02049
C 29.50761 29.80455 -0.01854
C 29.48888 28.4194 -0.01415
C 30.77084 27.66838 -0.03039
C 30.74823 26.2931 0.01836
C 29.51226 25.57736 0.03531
C 30.73495 31.92321 0.03265
C 29.52756 24.11175 -0.00669
C 30.72098 21.98135 0.01705
C 29.50598 21.32022 -0.0405
C 29.52178 19.89537 -0.01303
C 30.76077 19.14997 -0.01461
C 30.76692 17.7476 -0.02155
C 29.49331 17.04356 -0.00944
C 30.73859 23.44412 0.0101
C 29.48587 32.69203 0.00261
C 27.06015 34.06174 0.02326
C 28.26745 0.69448 0.00924
C 28.28772 31.97416 0.00194
C 28.29897 30.54509 -0.00621
C 27.08056 29.8351 0.02611
C 27.03683 28.37637 0.02198
C 28.2912 27.67648 0.01094
C 28.28228 26.27825 0.00235
C 27.03252 25.6022 0.01495
C 27.06331 24.11576 0.01259
C 28.28975 23.39822 0.01799
C 28.24027 21.99352 0.01699
C 27.05514 21.3048 -0.00416
C 27.04929 19.87621 0.01177
C 28.26179 19.10754 0.04266
C 28.25699 17.75297 0.01324
C 28.29758 2.11686 0.0014
C 30.71168 14.86829 -0.00971
C 2.44254 32.68213 0.0402
