341
Graphene
C 0.02547 0.08514 0.01295
C 10.97583 0.68484 -0.00619
C 9.82002 34.06887 -0.02162
C 12.30576 32.60878 0.00889
C 13.55003 32.00285 -0.00481
C 13.50134 30.574 0.00979
C 12.25764 29.83481 0.01443
C 12.30753 28.44951 0.03505
C 13.45807 27.61586 -0.02815
C 13.54547 26.17644 -0.04147
C 12.30371 25.49061 -0.05302
C 12.36608 24.0607 0.00213
C 13.62322 23.36698 -0.00066
C 13.5343 21.92874 -0.00289
C 12.39337 21.31103 0.00028
C 12.26957 7.25495 -0.02213
C 13.46802 4.86972 0.03698
C 12.30351 4.17906 -0.00109
C 11.01268 2.07321 0.01848
C 12.23797 2.74037 -0.00491
C 9.76826 2.76992 0.02098
C 11.05445 4.88404 0.0351
C 11.05782 31.99988 -0.01717
C 11.01279 30.53503 0.05265
C 9.79728 29.91342 -0.01952
C 9.85782 28.52057 -0.02813
C 11.02043 27.7332 0.00374
C 11.10495 26.28355 0.00052
C 9.80553 25.56201 -0.03682
C 9.8193 24.126 0.01965
C 11.13167 23.48048 0.02058
C 11.23311 22.00215 -0.01957
C 9.93753 21.39016 -0.0108
C 9.82232 19.98623 -0.00368
C 11.00199 19.36826 -0.02696
C 9.77377 16.92174 -0.00114
C 9.82808 8.46251 0.00228
C 9.93931 7.1407 0.00798
C 11.25181 6.35025 0.00422
C 9.80644 4.26283 -0.03113
C 13.60648 2.05014 0.03338
C 13.50578 0.66787 -0.0258
C 12.32328 34.05964 -0.0331
C 18.53935 26.24337 -0.04076
C 17.21745 25.57566 -0.00652
C 17.20787 24.07043 0.0058
C 18.40477 23.51307 -0.00865
C 17.16119 4.33066 0.00675
C 17.24703 2.88574 -0.00311
C 18.40128 2.12797 0.00742
C 18.45694 0.70148 -0.01594
C 17.20526 0.01488 0.0106
C 19.61735 32.59576 -0.01154
C 20.86357 31.91374 -0.01721
C 20.88551 30.52676 -0.02422
C 19.67324 29.84473 0.01277
C 19.74225 28.37698 0.00096
C 20.93262 27.66298 -0.01527
C 20.8803 26.24808 0.01087
C 19.72901 25.50084 0.00199
C 18.50313 27.73885 -0.00703
C 17.20018 28.34784 0.00654
C 17.17169 29.79848 -0.04422
C 18.40203 30.47293 -0.02957
C 14.78541 32.64867 -0.00316
C 16.03246 31.96737 0.02188
C 15.94105 30.58359 -0.01979
C 14.7082 29.84746 0.02691
C 14.61746 28.40739 -0.01581
C 15.86492 27.737 0.01452
C 16.03726 26.32169 0.04892
C 14.78027 25.54728 -0.00111
C 9.85298 32.73696 0.00244
C 14.80052 24.11138 -0.03557
C 16.00712 4.9911 0.01739
C 14.75161 4.43628 0.00755
C 14.78056 2.87601 -0.0054
C 15.98955 2.14846 0.00667
C 15.96784 0.70308 0.00143
C 14.73701 34.01851 -0.017
C 17.20696 32.66651 0.00364
C 18.41404 31.88161 -0.00831
C 15.97321 23.48078 0.03754
C 7.26769 34.07376 0.02299
C 8.50993 0.70634 0.03542
C 8.55138 2.05934 0.01416
C 2.50609 2.87319 -0.00482
C 3.66149 2.15086 -0.01384
C 3.60916 0.71365 0.03693
C 2.46692 34.02959 0.01745
C 4.90083 32.75079 0.00488
C 6.11361 31.9446 -0.01004
C 5.9386 30.55713 -0.02896
C 4.96044 24.09359 -0.00131
C 6.13775 23.49911 -0.01118
C 6.21813 22.01307 -0.014
C 4.9265 21.35929 0.02147
C 4.87449 19.88062 0.00373
C 6.10221 19.23168 -0.00191
C 6.17074 17.78289 0.00438
C 5.01327 17.07524 0.01291
C 4.93999 15.5916 0.00093
C 6.18397 14.8754 0.00057
C 2.44735 4.33083 0.02888
C 3.68544 4.97838 0.00685
C 3.6774 6.35818 0.00895
C 2.39733 7.10614 0.00393
C 3.71558 30.55575 -0.01303
C 2.61591 29.8698 -0.01378
C 2.29389 24.22392 0.02635
C 3.69218 23.66794 0.0127
C 3.68248 22.083 0.01396
C 2.43871 21.3075 0.01849
C 2.37277 19.85507 -0.01142
C 3.66219 19.19381 -0.00562
C 6.20813 13.4945 -0.01634
C 3.7686 17.78214 -0.00494
C 2.56145 15.60311 0.03007
C 3.6937 14.86655 -0.00095
C 3.75099 13.42606 0.01572
C 2.44767 12.87352 -0.04848
C 2.40023 11.36265 -0.00892
C 3.67954 10.71472 -0.01362
C 3.63678 9.2366 -0.0008
C 2.41123 8.4868 0.0288
C 2.5558 17.02683 0.00054
C 19.73535 23.95432 0.01511
C 4.94137 12.75721 -0.00334
C 6.08295 10.60165 0.01641
C 7.33478 19.95721 0.02819
C 8.57006 19.23253 0.00165
C 8.70694 17.73373 -0.02971
C 7.38051 17.04806 0.02894
C 7.4272 15.61762 -0.01789
C 8.66348 14.95293 0.00444
C 8.62492 13.64504 -0.00925
C 7.51706 12.78332 0.01877
C 7.32731 11.33997 0.01363
C 8.3841 10.57183 -0.02162
C 8.75937 9.24384 0.00415
C 7.31626 8.4888 -0.0014
C 7.37765 7.11424 0.02162
C 8.65298 6.44724 0.0076
C 8.5779 4.99883 0.01241
C 7.35321 4.35498 -0.01454
C 7.29932 2.89393 0.01945
C 7.36627 21.42038 -0.00891
C 8.65672 21.98938 -0.01046
C 8.62134 23.51494 -0.02689
C 7.43316 24.2361 -0.01536
C 6.06845 9.15993 -0.00719
C 4.88953 8.49023 0.01364
C 4.88855 7.07065 -0.01062
C 6.14116 6.39466 -0.00033
C 6.11522 5.00989 0.03589
C 4.87215 4.30576 -0.02759
C 4.9168 2.80886 0.0402
C 6.15465 2.15701 0.00572
C 4.87904 11.34574 0.02339
C 6.09191 0.75938 0.03592
C 7.36337 32.69212 0.00943
C 8.61472 32.00248 0.02841
C 8.49277 30.63702 -0.01111
C 7.13658 29.75476 -0.01275
C 7.45299 28.49041 0.00985
C 8.65845 27.76745 -0.02245
C 8.64708 26.33971 -0.00428
C 7.44121 25.58275 0.03101
C 4.86338 0.00611 0.00406
C 3.7247 31.93984 0.00848
C 20.95316 23.46887 -0.00478
C 19.6554 4.28374 -0.01185
C 31.9869 29.81843 -0.02142
C 32.01943 28.41597 0.0544
C 33.25366 27.70689 0.00026
C 33.20979 26.26202 0.00682
C 31.96133 25.6067 -0.01779
C 31.87907 24.2007 0.03794
C 33.10734 23.44709 0.01927
C 33.14123 21.98609 0.01574
C 31.91232 21.28134 -0.02383
C 31.90089 19.87644 -0.01429
C 33.2279 19.18608 -0.0136
C 33.28997 17.7773 0.00594
C 31.97028 17.02573 -0.02474
C 31.98095 15.66279 0.00369
C 33.21675 14.85397 0.00455
C 33.16344 13.46172 -0.00644
C 31.92109 12.76397 -0.01839
C 33.20068 30.57796 0.01428
C 31.96971 11.40859 0.00137
C 33.24791 32.02993 -0.01694
C 29.4985 34.02492 0.00346
C 30.70594 17.76199 -0.00669
C 29.51446 17.08602 0.0101
C 29.46994 15.63963 0.01705
C 30.71201 14.92028 -0.0405
C 30.7107 13.48444 -0.01303
C 29.47047 12.80987 -0.01461
C 29.49479 11.4265 -0.02155
C 30.67146 10.66704 -0.00944
C 30.68703 9.21481 -0.03735
C 29.48068 8.50417 -0.00971
C 29.39127 7.11183 0.01518
C 30.69282 6.40871 0.01908
C 30.70027 5.03784 0.07705
C 29.54758 4.26085 0.0103
C 29.52425 2.81389 0.02108
C 30.81274 2.12096 0.00716
C 30.69797 0.68936 0.00307
C 31.96022 32.69061 0.01713
C 33.1244 10.65734 0.00199
C 33.13648 9.25235 0.04381
C 31.90777 8.52524 0.02806
C 1.29833 17.63472 0.01223
C 0.04019 17.04667 0.00648
C 0.02434 15.5813 0.02114
C 1.27487 14.89993 -0.02957
C 1.15948 13.49079 0.00343
C 34.36252 12.80256 -0.02656
C 34.4183 11.26973 -0.02442
C 1.18527 10.59089 -0.00027
C 1.1822 9.20728 -0.00583
C 34.35122 8.4939 -0.02302
C 34.37172 7.13509 -0.02849
C 1.18578 6.40644 0.02931
C 1.1804 5.00083 0.00628
C 34.43103 4.27365 -0.0345
C 0.04586 2.82608 -0.00931
C 1.31116 2.08624 -0.00939
C 1.25946 0.72237 -0.00468
C 1.19604 19.13052 -0.01678
C 0.00046 19.8505 0.01951
C 34.41402 21.31113 -0.02213
C 1.26293 22.00711 0.02712
C 31.92004 7.12123 0.01504
C 33.1672 6.37544 -0.00069
C 33.25198 4.98023 0.04926
C 31.97583 4.3146 -0.03838
C 32.0109 2.90271 0.00349
C 33.20335 2.1844 -0.00323
C 33.20673 0.80577 -0.00841
C 31.93999 0.03254 0.0001
C 30.70368 19.20645 0.03531
C 0.04341 32.71728 -0.02927
C 1.28083 30.48486 0.01027
C 0.01355 29.87805 0.01831
C 0.04884 28.38085 -0.01037
C 1.25927 27.70174 -0.00439
C 1.22239 26.34646 -0.00598
C 34.39799 25.53347 -0.05239
C 34.34782 24.09282 0.03076
C 1.19342 23.43918 0.00723
C 1.22312 31.88536 -0.01404
C 29.4439 19.91579 0.01836
C 29.42912 21.26789 -0.03039
C 30.69372 21.96846 -0.01415
C 25.80213 31.90865 -0.0276
C 25.86397 30.55051 0.03005
C 24.60719 29.8507 -0.04078
C 24.57586 28.41591 0.02117
C 25.77447 27.68382 0.02737
C 25.78987 26.22461 -0.00498
C 24.5754 25.53749 0.00135
C 24.58486 24.11857 0.03102
C 25.84942 23.47453 0.02555
C 25.81017 21.98413 0.01423
C 24.63672 21.32638 -0.00285
C 25.75012 19.33721 -0.009
C 24.52319 7.13918 -0.01199
C 25.77881 6.42268 -0.00229
C 25.75302 4.97055 -0.00938
C 24.55041 4.29114 -0.0264
C 24.50595 2.8231 -0.01154
C 24.57933 32.69113 0.00768
C 22.10378 34.05405 -0.00178
C 23.3724 0.69883 0.00733
C 23.3562 2.11573 -0.02118
C 19.52206 2.8842 0.01126
C 20.83498 2.13915 0.01852
C 20.88767 0.71539 -0.00381
C 19.69225 34.0138 0.03046
C 22.0756 32.64125 0.0296
C 23.31964 31.97987 0.03374
C 23.28231 30.57938 -0.02845
C 22.10399 29.84896 -0.03213
C 25.78811 2.12923 0.00684
C 22.0947 28.29598 0.02239
C 23.34888 26.28256 0.02734
C 22.13759 25.52874 -0.0055
C 22.12628 24.09842 0.01515
C 23.36145 23.35937 -0.00225
C 23.56461 22.00118 0.00071
C 23.35336 4.99558 -0.01107
C 22.10691 4.35712 -0.01586
C 22.11188 2.80097 -0.01971
C 23.35714 27.67395 0.01153
C 20.78678 4.75395 -0.01662
C 25.73853 0.78893 -0.01052
C 26.99178 32.63125 0.00367
C 28.25366 6.30026 0.01094
C 28.24988 4.88575 0.00235
C 26.95272 4.22838 0.01495
C 27.04315 2.73675 0.01259
C 28.29865 2.09443 0.01799
C 28.27093 0.67273 0.01699
C 27.07108 0.01668 -0.00416
C 29.52864 32.57877 0.01177
C 30.70998 31.91576 0.04266
C 30.76615 30.49273 0.01324
C 29.56562 29.75772 0.0014
C 29.57777 28.36384 0.00924
C 30.7952 27.66404 0.02326
C 30.73106 26.2279 0.00261
C 29.52923 25.5111 0.03265
C 29.51347 24.10397 -0.02049
C 30.7332 23.38455 -0.01854
C 27.01039 7.08977 0.02198
C 27.20767 8.36656 0.02611
C 28.26353 9.24381 -0.00621
C 28.28336 10.68793 0.00194
C 28.17892 31.87391 0.04306
C 28.34691 30.48333 0.00996
C 27.06321 29.79805 0.00195
C 27.07969 28.39614 -0.00802
C 28.33433 27.64753 -0.00218
C 28.37795 26.26946 -0.01654
C 27.11374 25.61055 -0.00037
C 27.06948 24.13108 -0.0032
C 24.55321 0.01221 -0.01679
C 28.25588 23.45293 0.00622
C 27.04873 21.33106 -0.00942
C 26.93925 19.92196 0.00487
C 28.20276 19.17138 0.00826
C 28.19968 17.75761 -0.00294
C 27.03187 17.05637 0.00152
C 28.23648 14.85185 0.01257
C 28.22069 13.59935 0.02316
C 27.21842 11.51411 0.04185
C 28.23736 21.96918 -0.02815
C 2.47848 32.61428 -0.00049
