351
Graphene
C 0.07637 34.00581 0.01295
C 15.86697 30.30224 0.00228
C 14.80617 29.61497 0.00798
C 16.1173 14.9601 0.00422
C 15.98439 13.63525 0.0351
C 14.74715 12.85009 -0.03113
C 14.71602 11.33454 0.02098
C 16.06854 10.69588 0.01848
C 16.0559 9.2412 -0.00619
C 15.91958 31.92305 -0.00114
C 14.80855 8.57635 -0.02162
C 15.85672 6.30121 -0.00481
C 15.91163 4.95398 0.00979
C 14.75509 4.24186 0.01443
C 14.71749 2.79549 0.03505
C 15.99292 1.9786 -0.02815
C 15.92208 0.61398 -0.04147
C 14.6809 34.04606 -0.05302
C 17.18158 32.56103 0.00213
C 14.73987 7.21899 0.00889
C 18.48552 31.81915 -0.00066
C 14.73254 32.55623 -0.02696
C 13.51202 0.65116 -0.0108
C 11.12129 0.64736 0.0076
C 9.90092 0.03275 0.01241
C 12.26283 32.5819 -0.01454
C 13.46587 31.91908 0.01945
C 13.57123 30.36926 0.01416
C 12.22996 29.99396 0.03542
C 13.62908 13.63986 0.02299
C 12.33381 12.91758 0.00244
C 12.29355 34.03341 -0.00368
C 12.34353 11.50691 -0.01717
C 13.58867 9.30704 -0.01952
C 12.3483 8.57999 -0.02813
C 12.30263 7.19548 0.00374
C 13.57127 6.45797 0.00052
C 13.59009 4.94359 -0.03682
C 12.22126 4.35395 0.01965
C 12.28639 2.86355 0.02058
C 13.50794 2.05102 -0.01957
C 13.45146 10.75711 0.05265
C 11.08518 2.18049 0.02162
C 18.52451 30.35546 -0.00289
C 17.95928 28.36949 -0.02213
C 20.7896 19.32022 0.00364
C 20.93396 17.82342 -0.00831
C 19.64779 17.13697 -0.02957
C 19.63989 15.72695 -0.04422
C 20.9459 15.08395 0.00654
C 20.85316 13.59339 -0.00703
C 19.62417 12.82685 -0.04076
C 19.65554 11.43099 -0.00652
C 19.21839 19.28505 -0.017
C 20.94856 10.63154 0.0058
C 19.70249 8.58542 0.00675
C 19.65156 7.02397 -0.00311
C 20.93231 6.36147 0.00742
C 20.93471 4.8743 -0.01594
C 19.62989 4.1792 0.0106
C 19.60157 2.77984 -0.01154
C 20.84986 2.05463 -0.01721
C 20.81476 0.69346 -0.02422
C 20.93988 9.26508 -0.00865
C 17.26142 29.50958 0.00028
C 19.75167 29.8507 0.00143
C 20.99826 31.89195 -0.0054
C 18.75502 18.2502 0.03698
C 17.21744 15.59225 -0.00109
C 18.43883 14.97231 -0.00491
C 18.41485 13.51269 0.03338
C 17.1909 12.85165 -0.0258
C 17.23396 11.41643 -0.0331
C 18.44856 10.6928 -0.00316
C 18.45119 9.26698 0.02188
C 20.86921 30.53347 0.00667
C 17.20983 8.48607 -0.01979
C 18.4366 6.33642 -0.01581
C 18.40231 4.88123 0.01452
C 17.13105 4.19849 0.04892
C 17.17986 2.75234 -0.00111
C 18.41782 2.05577 -0.03557
C 18.47139 0.63624 0.03754
C 17.176 33.97275 0.01739
C 19.68042 32.57733 0.00755
C 17.19363 7.04925 0.02691
C 19.63798 33.98875 0.01277
C 9.85365 2.91464 -0.0014
C 11.02503 5.02688 -0.02162
C 2.45548 7.15354 0.01572
C 3.69255 6.43437 -0.04848
C 3.72357 4.9923 -0.00892
C 2.48201 4.27114 -0.01362
C 2.4138 2.84148 -0.0008
C 3.59078 2.07262 0.0288
C 3.71251 0.66786 0.00393
C 2.4657 0.02304 0.00895
C 2.45786 8.51657 -0.00095
C 4.85713 32.69362 0.00685
C 6.1025 30.60967 -0.00482
C 4.86854 30.00899 -0.01384
C 4.88625 28.43605 0.03693
C 6.19859 27.89686 0.01745
C 4.72638 17.02072 0.00488
C 5.05479 15.66523 -0.01004
C 6.1293 14.80956 -0.02896
C 6.11731 13.55533 -0.00131
C 6.07289 32.0133 0.02888
C 4.89846 12.76665 -0.01118
C 3.74285 9.20389 0.03007
C 2.45856 11.37686 -0.00494
C 3.62386 30.60388 0.01305
C 2.46326 29.84833 -0.00077
C 2.41311 28.43612 0.03368
C 3.63577 27.70725 -0.02929
C 3.71139 26.40756 -0.00966
C 2.42916 25.63709 -0.03337
C 2.42211 24.17271 0.01227
C 3.52813 23.38831 0.00873
C 3.61465 10.65396 0.00054
C 3.49115 22.07844 -0.00049
C 2.36448 19.90043 -0.01303
C 3.54646 19.23493 -0.01378
C 3.66372 17.84347 0.02635
C 2.38506 17.16367 0.0127
C 2.36586 15.7762 0.01396
C 3.59004 15.00218 0.01849
C 3.59767 13.54709 -0.01142
C 2.47092 12.86397 -0.00562
C 2.37173 21.25503 0.00848
C 9.80217 4.30895 0.00415
C 4.90294 11.34198 -0.014
C 6.17509 9.25883 0.00373
C 8.61457 5.09094 -0.01275
C 7.37844 4.28355 0.00985
C 7.39611 2.8655 -0.02245
C 8.65791 2.17093 -0.00428
C 8.67902 0.77371 0.03101
C 7.43068 0.09472 -0.01536
C 9.83298 32.77069 -0.02689
C 10.97936 31.95748 -0.01046
C 8.68282 6.45221 -0.01111
C 10.92394 30.4952 -0.00891
C 11.0672 13.57764 0.00165
C 9.79807 13.02363 -0.02971
C 9.80056 11.49529 0.02894
C 11.12152 10.86594 -0.01789
C 11.10209 9.41029 0.00444
C 9.9243 8.70323 -0.00925
C 9.91318 7.18127 0.01877
C 11.08705 6.41275 0.01363
C 9.63807 29.86967 0.02819
C 6.10046 10.64424 0.02147
C 7.46006 7.1711 0.02841
C 8.63591 9.27079 0.00406
C 4.98689 8.60824 -0.00191
C 4.94721 7.13039 0.00438
C 6.14466 6.39761 0.01291
C 6.16853 4.95754 0.00093
C 4.94631 4.26619 0.00057
C 4.81233 2.85898 -0.01634
C 6.12304 2.1239 -0.00334
C 6.1717 0.73768 0.02339
C 7.42725 8.57954 0.00943
C 4.89391 34.07277 0.01641
C 8.52754 32.03101 0.01364
C 8.4667 30.62791 -0.01062
C 7.26147 29.84238 -0.00033
C 7.30294 28.44764 0.03589
C 8.44505 13.58381 -0.02759
C 7.30758 12.75468 0.0402
C 7.36528 11.37104 0.00572
C 8.58656 10.70269 0.03592
C 7.31736 32.76088 -0.00719
C 3.6347 32.02137 0.0276
C 22.1152 32.65103 0.00096
C 23.24716 30.57733 0.01087
C 33.18393 31.93238 -0.01694
C 33.19201 30.52498 0.01428
C 31.97242 29.82397 -0.02142
C 31.93115 28.44838 0.0544
C 33.15987 27.75698 0.00026
C 33.14177 26.29508 0.00682
C 31.90607 25.6555 -0.01779
C 31.91219 24.1977 0.03794
C 31.94425 32.66571 0.01713
C 33.20879 23.53032 0.01927
C 31.90808 21.38123 -0.02383
C 31.87358 19.99183 -0.01429
C 33.10578 19.2635 -0.0136
C 33.21699 17.81884 0.00594
C 31.95249 17.10779 -0.02474
C 31.94974 15.71998 0.00369
C 33.1755 14.9368 0.00455
C 33.15567 13.53008 -0.00644
C 33.08262 22.10968 0.01574
C 31.92741 12.798 -0.01839
C 29.51771 0.01128 0.00346
C 30.72384 2.09869 0.00716
C 29.4592 21.35814 -0.03039
C 29.45354 19.8765 0.01836
C 30.68649 19.26515 0.03531
C 30.69318 17.80334 -0.00669
C 29.5015 17.1286 0.0101
C 29.46101 15.64755 0.01705
C 30.63809 14.96927 -0.0405
C 30.6989 13.49157 -0.01303
C 30.67411 0.75559 0.00307
C 29.47293 12.74237 -0.01461
C 30.70716 10.56714 -0.00944
C 30.74389 9.18008 -0.03735
C 29.54777 8.46027 -0.00971
C 29.47853 7.10585 0.01518
C 30.70138 6.3116 0.01908
C 30.76399 4.86226 0.07705
C 29.51678 4.22787 0.0103
C 29.47427 2.82678 0.02108
C 29.50992 11.31931 -0.02155
C 30.68615 22.0588 -0.01415
C 31.91108 11.3626 0.00137
C 33.20345 9.21359 0.04381
C 1.01923 19.20758 -0.01678
C 1.12837 17.78558 0.01223
C 34.39342 17.01483 0.00648
C 0.01837 15.64341 0.02114
C 1.25348 14.92771 -0.02957
C 1.18611 13.49169 0.00343
C 34.33317 12.81683 -0.02656
C 34.36897 11.33512 -0.02442
C 34.29717 19.97852 0.01951
C 1.16794 10.69981 -0.00027
C 0.01239 8.55061 -0.02302
C 0.00835 7.04607 -0.02849
C 1.22536 6.35328 0.02931
C 1.26523 4.96497 0.00628
C 0.06695 4.26548 -0.0345
C 0.0878 2.84622 -0.00931
C 1.28107 2.09879 -0.00939
C 1.25357 0.64136 -0.00468
C 1.17917 9.29352 -0.00583
C 33.15662 10.59928 0.00199
C 34.34312 21.38435 -0.02213
C 1.15335 23.40391 0.00723
C 31.98509 8.43887 0.02806
C 31.92048 6.99014 0.01504
C 33.24027 6.28829 -0.00069
C 33.28499 4.93007 0.04926
C 32.06518 4.14017 -0.03838
C 32.01794 2.78057 0.00349
C 33.26831 2.05258 -0.00323
C 33.2959 0.71408 -0.00841
C 1.16171 22.03848 0.02712
C 31.97934 34.06757 0.0001
C 1.18131 31.91927 -0.01404
C 1.27413 30.54684 0.01027
C 0.00101 29.82066 0.01831
C 34.4328 28.43753 -0.01037
C 1.21075 27.69402 -0.00439
C 1.11297 26.36298 -0.00598
C 34.33139 25.59055 -0.05239
C 34.42441 24.17624 0.03076
C 34.4312 32.58563 -0.02927
C 23.289 31.94845 -0.01527
C 30.69826 23.53969 -0.01854
C 29.42331 25.58547 0.03265
C 25.67214 30.54097 -0.01971
C 24.47222 29.97321 -0.02118
C 25.39583 21.58202 0.00733
C 24.74566 20.2269 -0.00178
C 25.79835 19.24107 0.00768
C 25.72999 17.76864 -0.0276
C 24.45899 17.18597 0.03005
C 24.50076 15.72923 -0.04078
C 25.82519 31.95365 -0.01586
C 25.72109 14.92513 0.02117
C 24.5778 12.76669 -0.00498
C 24.57721 11.33382 0.00135
C 25.83113 10.61452 0.03102
C 25.8053 9.15593 0.02555
C 24.58564 8.41471 0.01423
C 24.64027 6.99465 -0.00285
C 25.93061 6.28524 -0.009
C 25.87022 4.83855 -0.01199
C 25.78552 13.50541 0.02737
C 24.54127 4.17275 -0.00229
C 24.60627 32.69152 -0.01107
C 23.28222 0.68471 -0.00225
C 21.99985 19.91001 0.00199
C 23.45095 19.54683 0.01511
C 23.32593 18.06484 -0.00478
C 22.15353 17.27959 -0.01662
C 22.12236 15.80372 -0.01185
C 23.2635 14.99602 0.01126
C 23.30237 13.55521 0.01852
C 22.10624 12.88374 -0.00381
C 22.07602 0.08936 0.00071
C 22.15387 11.38285 0.03046
C 23.28996 9.19991 0.03374
C 22.11725 8.48911 -0.02845
C 22.13738 7.02155 -0.03213
C 23.36872 6.33683 0.02239
C 23.44512 4.89807 0.01153
C 22.14085 4.23018 0.02734
C 22.08276 2.74354 -0.0055
C 23.21544 2.07769 0.01515
C 23.35407 10.65226 0.0296
C 29.4536 24.21608 -0.02049
C 24.60592 2.81795 -0.00938
C 25.77265 0.64745 -0.01154
C 28.26788 10.5727 0.00194
C 28.29742 9.15568 -0.00621
C 27.0022 8.49833 0.02611
C 27.05153 7.02153 0.02198
C 28.26795 6.33354 0.01094
C 28.25621 4.95305 0.00235
C 27.0572 4.20314 0.01495
C 27.08339 2.7905 0.01259
C 27.01072 11.33197 0.04185
C 28.17488 2.08652 0.01799
C 27.06212 0.01425 -0.00416
C 29.45432 32.67462 0.01177
C 30.70967 31.99177 0.04266
C 30.72075 30.62393 0.01324
C 29.45399 29.92162 0.0014
C 29.34972 28.50065 0.00924
C 30.60236 27.75281 0.02326
C 30.5712 26.35605 0.00261
C 28.22056 0.64259 0.01699
C 25.80382 2.02242 -0.0264
C 27.01521 12.70801 0.02316
C 28.19216 14.9833 0.00152
C 24.52269 34.05266 0.00684
C 26.99632 32.63356 -0.01052
C 28.26984 31.94285 -0.01679
C 28.23529 30.59557 0.00367
C 26.93325 29.84061 0.04306
C 26.86627 28.42889 0.00996
C 28.02138 27.72131 0.00195
C 28.05066 26.21301 -0.00802
C 28.29512 13.42702 0.01257
C 26.93255 25.49158 -0.00218
C 28.14236 23.41049 -0.00037
C 28.15281 22.08885 -0.0032
C 26.84916 21.34843 0.00622
C 27.0984 19.91545 -0.02815
C 28.2858 19.14265 -0.00942
C 28.25167 17.77048 0.00487
C 26.88978 16.97568 0.00826
C 26.99303 15.57189 -0.00294
C 27.02954 24.20346 -0.01654
C 2.41971 32.67608 0.00988
