385
Graphene
C 0.00072 0.08624 0.01295
C 9.875 4.26826 0.02162
C 9.78437 2.89501 0.0076
C 11.06579 2.17238 0.01241
C 11.12243 0.76859 -0.01454
C 9.90313 0.07031 0.01945
C 12.3252 32.64601 0.01416
C 13.48812 31.90445 0.03542
C 13.45156 30.47199 0.02299
C 12.27912 29.78399 0.00244
C 11.06902 4.9939 -0.0014
C 12.32809 28.3519 -0.01717
C 13.57752 26.24868 -0.01952
C 12.35142 25.54659 -0.02813
C 12.30262 24.16861 0.00374
C 13.55392 23.43759 0.00052
C 13.52207 21.92834 -0.03682
C 12.29822 21.23739 0.01965
C 12.29348 19.84374 0.02058
C 13.55949 19.07509 -0.01957
C 13.51451 17.68577 -0.0108
C 13.534 27.68704 0.05265
C 12.26725 17.02703 -0.00368
C 11.03452 6.45051 0.00415
C 9.77561 8.62563 0.01363
C 9.88877 29.8892 0.00943
C 9.8797 28.41668 0.02841
C 11.11714 27.74026 -0.01111
C 11.0945 26.25423 -0.01275
C 9.82376 25.60614 0.00985
C 9.84313 24.17682 -0.02245
C 11.10953 23.46998 -0.00428
C 11.07126 22.05581 0.03101
C 9.83352 21.35399 -0.01536
C 9.78105 7.2498 -0.02162
C 9.86649 19.85691 -0.02689
C 11.07666 17.76421 -0.00891
C 9.88475 17.04479 0.02819
C 9.87962 15.59263 0.00165
C 11.06994 14.86964 -0.02971
C 11.04305 13.47942 0.02894
C 9.85357 12.73182 -0.01789
C 9.82905 11.37619 0.00444
C 11.11355 10.65632 -0.00925
C 11.20326 9.23936 0.01877
C 11.04921 19.10415 -0.01046
C 11.12491 30.55707 0.00406
C 12.22575 15.6468 -0.02696
C 13.48229 13.60295 0.00228
C 16.02629 19.11262 0.03338
C 15.97605 17.69157 -0.0258
C 14.75263 17.07835 -0.0331
C 14.75355 15.59847 -0.00316
C 15.94738 14.9775 0.02188
C 16.09471 4.91779 -0.01979
C 14.81047 4.28366 0.02691
C 14.83316 2.88041 -0.01581
C 16.00986 2.10695 0.01452
C 14.78925 19.8075 -0.00491
C 15.98909 0.69352 0.04892
C 17.1774 32.61015 -0.03557
C 18.37789 31.87759 0.03754
C 18.4329 30.4896 0.01739
C 17.24653 29.75944 0.00755
C 17.16785 28.33117 -0.0054
C 18.46165 27.68582 0.00667
C 18.37783 26.29775 0.00143
C 17.14159 25.61798 -0.017
C 17.12681 24.15385 0.00364
C 14.69135 0.03531 -0.00111
C 13.46852 14.96607 -0.00114
C 14.78592 21.28713 -0.00109
C 15.93133 23.42837 -0.02213
C 12.38662 12.80776 0.00798
C 12.21501 11.42021 0.00422
C 12.35541 8.5458 0.0351
C 12.39686 7.14779 -0.03113
C 13.47992 6.26629 0.02098
C 13.52477 4.95743 0.01848
C 12.26749 4.27165 -0.00619
C 12.30637 2.86519 -0.02162
C 13.53405 2.18026 0.00889
C 15.97891 21.99603 0.03698
C 13.51102 0.76459 -0.00481
C 14.66895 32.65239 0.01443
C 15.93904 31.95517 0.03505
C 16.01363 30.52651 -0.02815
C 14.77133 29.78056 -0.04147
C 14.76197 28.34767 -0.05302
C 15.95481 27.62594 0.00213
C 15.9319 26.2374 -0.00066
C 14.74337 25.48028 -0.00289
C 14.70339 24.109 0.00028
C 12.34043 0.01675 0.00979
C 11.12571 31.98181 0.03592
C 9.86685 32.7741 0.00572
C 7.41629 34.06764 0.0402
C 3.60602 4.9819 -0.03113
C 2.40336 4.29667 -0.02566
C 2.49501 2.87714 -0.00094
C 3.68106 2.12502 0.02322
C 3.60792 0.72068 -0.00725
C 2.41093 34.06336 -0.05697
C 4.84665 32.67778 0.01087
C 6.09867 32.0332 -0.01343
C 6.14306 30.5976 0.00988
C 3.68172 6.35001 0.017
C 4.9094 29.88741 0.0276
C 6.1046 27.72051 -0.00077
C 6.09461 26.3407 0.03368
C 4.88743 25.64242 -0.02929
C 4.87922 24.16442 -0.00966
C 6.15078 23.45459 -0.03337
C 6.13977 21.99178 0.01227
C 4.84941 21.29593 0.00873
C 5.00781 19.87132 -0.00049
C 6.30463 19.17884 0.00848
C 4.87828 28.4543 0.01305
C 6.20602 17.7836 -0.01303
C 2.44456 7.06479 -0.00643
C 3.66761 9.21666 -0.00518
C 3.6423 30.63522 0.03189
C 2.44151 29.82934 0.00031
C 2.47735 28.3752 -0.003
C 3.71244 27.69973 0.01402
C 3.65753 26.29856 0.02379
C 2.43857 25.50043 0.00907
C 2.41111 24.13094 0.00643
C 3.65821 23.44695 -0.01509
C 3.62753 22.0541 0.03267
C 2.41007 8.50703 0.0086
C 2.41203 21.3083 0.02374
C 3.76832 19.14784 0.0073
C 3.73745 17.7328 0.0174
C 2.50048 17.06866 0.03828
C 2.44205 15.69318 0.01226
C 3.74996 14.9415 -0.00279
C 3.6474 13.51077 0.01996
C 2.42763 12.75417 -0.03996
C 2.4334 11.31799 0.01465
C 3.69015 10.62926 -0.00074
C 2.50525 19.91189 0.00402
C 4.98311 17.08178 -0.01378
C 4.89564 15.73106 0.02635
C 6.08357 14.95554 0.0127
C 7.41395 21.28551 -0.00131
C 7.47341 19.93721 -0.01118
C 8.67968 19.10878 -0.014
C 8.6348 17.64769 0.02147
C 7.3869 16.96517 0.00373
C 7.31964 15.55952 -0.00191
C 8.53209 14.90012 0.00438
C 8.62251 13.44756 0.01291
C 7.32775 12.78534 0.00093
C 8.60232 22.05224 -0.02896
C 7.36147 11.36436 0.00057
C 8.55394 9.32385 -0.00334
C 7.39789 8.55489 0.02339
C 7.39393 7.13454 0.01641
C 8.58115 6.41207 -0.00719
C 8.68905 4.98662 0.01364
C 7.37589 4.29273 -0.01062
C 7.33144 2.89176 -0.00033
C 8.55497 2.17693 0.03589
C 8.65404 0.75928 -0.02759
C 8.59054 10.66946 -0.01634
C 8.62475 23.5241 -0.01004
C 7.36871 24.23094 0.00488
C 7.33916 25.68964 0.01745
C 6.13649 13.55986 0.01396
C 4.89243 12.80214 0.01849
C 4.88149 11.39086 -0.01142
C 6.15153 10.67311 -0.00562
C 6.14859 9.26877 -0.00494
C 4.89386 8.52181 0.00054
C 4.8872 7.13341 0.03007
C 6.12562 6.4833 -0.00095
C 6.1538 5.0054 0.01572
C 4.86977 4.27414 -0.04848
C 4.8259 2.84236 -0.00892
C 6.13996 2.13809 -0.01362
C 6.17525 0.67027 -0.0008
C 4.87029 0.03583 0.0288
C 7.3588 32.65625 0.00393
C 8.61591 32.00986 0.00895
C 8.63139 30.51928 0.00685
C 7.34991 29.87747 0.02888
C 7.34215 28.42867 -0.00482
C 8.62231 27.76144 -0.01384
C 8.56909 26.33115 0.03693
C 18.31656 23.42419 -0.00831
C 3.61301 32.03841 -0.04307
C 18.41517 21.96474 -0.02957
C 17.22226 19.82412 0.00654
C 29.48335 4.30816 0.0103
C 29.51743 2.83688 0.02108
C 30.7264 2.12333 0.00716
C 30.70274 0.69804 0.00307
C 29.48652 34.07474 0.00346
C 32.00315 32.66685 0.01713
C 33.22038 32.0126 -0.01694
C 33.16788 30.56666 0.01428
C 31.95627 29.84781 -0.02142
C 30.70637 4.93936 0.07705
C 31.90574 28.43872 0.0544
C 33.22802 26.3221 0.00682
C 32.00535 25.56507 -0.01779
C 32.0327 24.12473 0.03794
C 33.23691 23.45489 0.01927
C 33.21234 22.06111 0.01574
C 31.97046 21.31742 -0.02383
C 31.99124 19.90416 -0.01429
C 33.19396 19.16145 -0.0136
C 33.1986 17.73689 0.00594
C 33.21634 27.74414 0.00026
C 31.98812 16.99345 -0.02474
C 30.73934 6.36935 0.01908
C 30.77653 9.31066 -0.00971
C 27.01446 0.06867 0.0014
C 29.51859 32.63884 0.00924
C 30.71632 31.90418 0.02326
C 30.74127 30.47341 0.00261
C 29.48352 29.75608 0.03265
C 29.43769 28.38774 -0.02049
C 30.68846 27.70252 -0.01854
C 30.73448 26.25685 -0.01415
C 29.44727 25.55903 -0.03039
C 29.37514 6.83647 0.01518
C 29.55976 24.18083 0.01836
C 30.75954 22.078 -0.00669
C 29.56294 21.25724 0.0101
C 29.5148 19.80806 0.01705
C 30.74036 19.11174 -0.0405
C 30.79576 17.71352 -0.01303
C 29.4437 16.96252 -0.01461
C 29.56629 15.62982 -0.02155
C 30.71364 14.92675 -0.00944
C 30.79045 13.47518 -0.03735
C 30.82063 23.49015 0.03531
C 28.29577 0.71372 0.01324
C 32.02368 15.62373 0.00369
C 33.13783 13.44156 -0.00644
C 34.41272 21.28873 -0.02213
C 0.02673 19.86784 0.01951
C 1.27145 19.17432 -0.01678
C 1.26609 17.771 0.01223
C 34.38967 17.06525 0.00648
C 34.41541 15.59853 0.02114
C 1.24435 14.97612 -0.02957
C 1.23182 13.50582 0.00343
C 34.38379 12.77982 -0.02656
C 1.20025 22.00611 0.02712
C 34.4111 11.30163 -0.02442
C 1.2187 9.25393 -0.00583
C 34.36919 8.52208 -0.02302
C 34.34719 7.08165 -0.02849
C 1.17631 6.3799 0.02931
C 1.17197 4.93473 0.00628
C 34.38029 4.28098 -0.0345
C 34.39722 2.8283 -0.00931
C 1.22627 2.19789 -0.00939
C 1.21249 0.79251 -0.00468
C 1.22949 10.59514 -0.00027
C 33.17135 14.8823 0.00455
C 1.17628 23.43386 0.00723
C 34.39763 25.54468 -0.05239
C 31.90783 12.67326 -0.01839
C 31.93124 11.3027 0.00137
C 33.15358 10.69995 0.00199
C 33.22267 9.27565 0.04381
C 31.8984 8.65912 0.02806
C 31.94911 7.12773 0.01504
C 33.11844 6.41365 -0.00069
C 33.18639 4.9821 0.04926
C 31.96744 4.27498 -0.03838
C 34.4248 24.18649 0.03076
C 31.94155 2.77624 0.00349
C 33.17502 0.73677 -0.00841
C 31.94568 34.05634 0.0001
C 0.01752 32.75189 -0.02927
C 1.18469 31.88386 -0.01404
C 1.17871 30.48153 0.01027
C 34.38396 29.8374 0.01831
C 0.03861 28.3997 -0.01037
C 1.26299 27.70664 -0.00439
C 1.19727 26.23478 -0.00598
C 33.16941 2.12856 -0.00323
C 28.29597 2.15907 0.04266
C 27.13082 2.81066 0.01177
C 26.94832 4.2842 -0.00416
C 20.95939 17.67634 -0.00381
C 19.76663 16.99463 0.03046
C 19.63204 15.62695 0.0296
C 20.78055 4.79727 0.03374
C 19.80344 4.15747 -0.02845
C 19.6187 2.80983 -0.03213
C 20.88306 2.07139 0.02239
C 20.93204 0.7257 0.01153
C 19.77769 34.06008 0.02734
C 20.95404 19.17369 0.01852
C 22.10651 32.70615 -0.0055
C 23.30239 30.50602 -0.00225
C 22.11583 29.73332 0.00071
C 22.10664 28.37363 -0.01107
C 23.36845 27.67963 -0.01586
C 23.38483 26.22116 -0.01971
C 22.12333 25.5001 -0.02118
C 22.10161 24.08317 0.00733
C 23.33591 23.44329 -0.00178
C 23.40337 21.98416 0.00768
C 23.33117 31.90345 0.01515
C 22.13207 21.27644 -0.0276
C 19.66744 19.85812 0.01126
C 20.91465 22.03721 -0.01662
C 18.49157 19.14222 -0.00703
C 18.42824 17.67272 -0.04076
C 17.18548 16.97021 -0.00652
C 17.26773 15.40362 0.0058
C 18.6917 14.93159 -0.00865
C 17.03231 4.22087 0.00675
C 17.25854 2.8181 -0.00311
C 18.42603 2.0614 0.00742
C 18.42822 0.6878 -0.01594
C 19.71085 21.29361 -0.01185
C 17.19595 34.01198 0.0106
C 20.86554 31.95599 -0.01721
C 20.97582 30.53382 -0.02422
C 19.72521 29.85873 0.01277
C 19.73062 28.46255 0.00096
C 20.89709 27.66785 -0.01527
C 20.83249 26.26858 0.01087
C 19.61576 25.56659 0.00199
C 19.61154 24.17165 0.01511
C 20.82097 23.44538 -0.00478
C 19.62831 32.60867 -0.01154
C 22.10932 19.87876 0.03005
C 23.35612 19.18767 -0.04078
C 23.23969 17.73847 0.02117
C 25.90723 2.13343 0.00622
C 25.78129 0.75833 -0.02815
C 24.61727 34.06172 -0.00942
C 27.07397 32.70743 0.00487
C 28.31719 31.9278 0.00826
C 28.27882 30.47046 -0.00294
C 27.01418 29.81114 0.00152
C 27.04007 28.38659 0.01257
C 28.26533 27.68006 0.02316
C 24.69433 2.85615 -0.0032
C 28.22798 26.26125 0.04185
C 27.05133 24.12652 -0.00621
C 28.2858 23.40338 0.02611
C 28.21961 21.99798 0.02198
C 26.93718 21.30259 0.01094
C 26.96952 19.89826 0.00235
C 28.24268 19.12506 0.01495
C 28.24628 17.75942 0.01259
C 28.29567 6.4133 0.01799
C 28.1873 4.97693 0.01699
C 27.03088 25.5587 0.00194
C 24.56628 4.35638 -0.00037
C 25.78527 4.9782 -0.01654
C 25.83487 17.76416 -0.00218
C 22.25175 17.06997 0.02737
C 23.29264 4.92229 -0.00498
C 22.1786 4.2638 0.00135
C 22.15551 2.80724 0.03102
C 23.46337 2.15348 0.02555
C 23.44449 0.70105 0.01423
C 22.16871 0.06516 -0.00285
C 24.59942 32.6045 -0.009
C 25.79809 31.94101 -0.01199
C 25.80164 30.4688 -0.00229
C 24.48063 29.83687 -0.00938
C 24.59271 28.44327 -0.0264
C 25.79607 27.72017 -0.01154
C 25.85857 26.32025 0.00684
C 24.64888 25.60737 -0.01052
C 24.5338 24.14917 -0.01679
C 25.8284 23.40984 0.00367
C 25.74326 22.00656 0.04306
C 24.59479 21.2893 0.00996
C 24.50398 19.88429 0.00195
C 25.75327 19.09827 -0.00802
C 17.186 21.28122 -0.04422
C 2.37677 32.68263 0.03284
