312
Graphene
C 34.37575 34.05572 0.01295
C 16.02618 23.32173 -0.0331
C 15.95369 21.99077 -0.00316
C 14.79878 21.18722 0.02188
C 15.05014 19.77947 -0.01979
C 16.2399 5.0723 0.02691
C 14.8242 4.42596 -0.01581
C 14.79465 3.0512 0.01452
C 15.94572 2.28047 0.04892
C 15.97173 0.77601 -0.00111
C 14.78207 0.14031 -0.03557
C 17.13014 32.69295 0.03754
C 18.43722 32.02383 0.01739
C 18.45028 30.59415 0.00755
C 17.28388 29.79907 -0.0054
C 17.21997 28.42986 0.00667
C 14.7637 24.10944 -0.0258
C 14.81084 25.51632 0.03338
C 16.05143 26.24054 -0.00491
C 16.04254 27.67392 -0.00109
C 12.35409 24.10467 -0.00619
C 13.54221 23.37064 -0.02162
C 13.50827 21.83765 0.00889
C 12.18256 21.32445 -0.00481
C 11.66104 20.03336 0.00979
C 13.49974 4.99428 0.01443
C 12.47958 4.17891 0.03505
C 18.46055 27.67904 0.00143
C 12.33602 2.85409 -0.02815
C 13.47688 0.81388 -0.05302
C 12.2275 34.06433 0.00213
C 14.76625 32.73756 -0.00066
C 15.94948 31.93839 -0.00289
C 16.0233 30.47548 0.00028
C 14.82944 29.84404 -0.02213
C 14.80845 28.37361 0.03698
C 13.59721 2.28187 -0.04147
C 12.32593 25.57758 0.01848
C 18.53995 26.24622 -0.017
C 17.19381 24.01042 -0.00831
C 20.80861 21.87837 0.00199
C 19.60663 21.06009 0.01511
C 19.57459 19.57842 -0.00478
C 20.99869 18.87436 -0.01662
C 21.73144 17.54382 -0.01185
C 19.54588 3.04301 0.01126
C 20.8886 2.50643 0.01852
C 20.91826 0.89576 -0.00381
C 19.75246 0.13394 0.03046
C 22.15557 32.76121 0.0296
C 23.36026 32.0072 0.03374
C 23.30238 30.63755 -0.02845
C 22.12346 29.8829 -0.03213
C 22.17277 28.39157 0.02239
C 23.41909 27.71299 0.01153
C 20.87402 23.36367 0.01087
C 19.65392 24.12138 -0.01527
C 19.68507 25.47103 0.00096
C 20.93 26.1883 0.01277
C 18.43708 23.35729 -0.02957
C 18.50479 21.9025 -0.04422
C 17.16944 21.30434 0.00654
C 17.04592 19.75556 -0.00703
C 18.20262 19.20002 -0.04076
C 17.11114 4.14557 -0.00652
C 17.22079 2.84924 0.0058
C 17.27019 25.49081 0.00364
C 18.50493 2.12123 -0.00865
C 17.16928 0.06617 -0.00311
C 19.68165 32.79032 0.00742
C 20.93468 32.09147 -0.01594
C 20.9023 30.54055 0.0106
C 19.63579 29.87022 -0.01154
C 19.68083 28.39211 -0.01721
C 20.99563 27.67085 -0.02422
C 18.48782 0.71087 0.00675
C 23.4079 26.26217 0.02734
C 13.55802 26.23987 0.02098
C 12.31484 28.40308 0.0351
C 4.84057 32.56964 0.0402
C 6.14161 31.9065 0.00572
C 6.14 30.47378 0.03592
C 4.87655 29.77304 0.00406
C 4.85749 28.38117 0.00943
C 6.10231 27.64448 0.02841
C 6.12333 26.26646 -0.01111
C 4.92733 25.53827 -0.01275
C 4.91324 24.1281 0.00985
C 6.06094 23.46004 -0.02245
C 6.15708 22.0573 -0.00428
C 4.98455 21.22916 0.03101
C 4.71867 19.76139 -0.01536
C 4.80457 4.33241 -0.02689
C 4.92595 2.78917 -0.01046
C 2.41101 34.06146 -0.02759
C 3.59304 0.68195 0.03589
C 3.66501 2.09079 -0.00033
C 2.36571 2.84591 -0.01062
C 3.62199 30.5184 -0.00131
C 2.36853 29.88893 -0.01118
C 2.43483 28.33829 -0.014
C 3.64931 27.67436 0.02147
C 3.70594 26.30882 0.00373
C 2.44031 25.58092 -0.00191
C 2.43302 24.12973 0.00438
C 6.10326 2.05137 -0.00891
C 3.74625 23.3273 0.01291
C 2.50167 21.34028 0.00057
C 2.36356 19.92503 -0.01634
C 3.58956 19.15031 -0.00334
C 2.50483 17.25182 0.02339
C 2.35607 7.35667 0.01641
C 3.64031 4.91193 -0.00719
C 2.35633 4.3382 0.01364
C 3.72326 21.94286 0.00093
C 13.58102 27.69473 -0.03113
C 6.13596 0.58118 0.02819
C 7.31184 32.61968 -0.02971
C 11.13899 27.73834 -0.01952
C 11.09894 26.2953 -0.02813
C 9.74976 25.57195 0.00374
C 9.77769 24.20693 0.00052
C 11.04463 23.53251 -0.03682
C 11.02867 22.14562 0.01965
C 9.95961 21.25856 0.02058
C 9.85953 2.86346 -0.01957
C 11.02805 2.12917 -0.0108
C 11.046 0.7123 -0.00368
C 9.74613 34.07917 -0.02696
C 12.26405 32.5904 -0.00114
C 13.53159 31.90532 0.00228
C 13.56057 30.48343 0.00798
C 12.35496 29.79758 0.00422
C 9.8044 28.41257 0.05265
C 9.84976 29.8185 -0.01717
C 11.08977 30.5044 0.00244
C 11.03171 31.85067 0.02299
C 8.54246 31.94032 0.02894
C 8.60286 30.48141 -0.01789
C 7.37371 29.82337 0.00444
C 7.35563 28.43121 -0.00925
C 8.58334 27.71905 0.01877
C 8.57709 26.30108 0.01363
C 7.36279 25.56362 -0.02162
C 4.82279 33.98155 0.00165
C 7.38141 24.08075 0.00415
C 8.70001 21.94566 0.02162
C 7.37074 21.36464 0.0076
C 7.3292 2.68132 0.01241
C 8.55881 2.167 -0.01454
C 8.57963 0.7755 0.01945
C 7.36192 34.00406 0.01416
C 9.84521 32.59257 0.03542
C 8.55407 23.41046 -0.0014
C 22.13653 25.52661 -0.0055
C 22.14092 24.06462 0.01515
C 23.34635 23.46669 -0.00225
C 31.89926 25.54504 0.01927
C 31.96152 24.13674 0.01574
C 33.13458 23.43812 -0.02383
C 33.17113 22.06714 -0.01429
C 32.01106 21.31356 -0.0136
C 31.98509 19.89547 0.00594
C 33.17652 19.23992 -0.02474
C 33.21696 17.79578 0.00369
C 31.93876 17.11613 0.00455
C 31.89536 15.67219 -0.00644
C 33.22094 14.93803 -0.01839
C 33.19537 13.5744 0.00137
C 31.97957 12.87515 0.00199
C 31.92401 11.44214 0.04381
C 33.08454 10.80816 0.02806
C 33.13299 26.24828 0.03794
C 33.14467 27.67736 -0.01779
C 31.91126 28.4142 0.00682
C 31.9204 29.91587 0.00026
C 29.49784 12.92994 -0.00944
C 29.48772 11.37271 -0.03735
C 30.6271 10.67791 -0.00971
C 30.54779 9.28148 0.01518
C 29.32914 8.44592 0.01908
C 29.28853 7.03924 0.07705
C 30.61177 6.43422 0.0103
C 33.04314 9.37103 0.01504
C 30.71961 4.98581 0.02108
C 29.4863 2.81872 0.00307
C 30.71753 2.1438 0.00346
C 30.74405 0.71481 0.01713
C 29.45986 0.04932 -0.01694
C 31.96954 32.67795 0.01428
C 33.16952 31.90918 -0.02142
C 33.13599 30.53584 0.0544
C 29.46408 4.24321 0.00716
C 30.76582 13.64345 -0.02155
C 31.82962 8.60677 -0.00069
C 33.16883 6.54582 -0.03838
C 1.31921 17.78466 0.02114
C 0.00306 17.12041 -0.02957
C 0.01514 15.6865 0.00343
C 1.21269 14.83964 -0.02656
C 0.02173 12.84502 -0.02442
C 34.32613 11.48753 -0.00027
C 1.0045 9.34827 -0.00583
C 34.30843 8.61023 -0.02302
C 34.34351 7.23746 -0.02849
C 1.24479 6.54932 0.02931
C 1.14045 5.03894 0.00628
C 34.40068 4.33745 -0.0345
C 0.02206 2.87544 -0.00931
C 1.19435 2.07462 -0.00939
C 1.16263 0.64697 -0.00468
C 1.15017 19.24564 0.00648
C 34.39826 19.98505 0.01223
C 34.36014 21.39601 -0.01678
C 1.26402 22.01449 0.01951
C 33.14631 4.99935 0.00349
C 31.9802 4.2756 -0.00323
C 31.97416 2.84569 -0.00841
C 33.21347 2.17269 0.0001
C 33.20755 0.7 -0.02927
C 31.981 34.07047 -0.01404
C 34.39989 32.65133 0.01027
C 31.8652 7.11357 0.04926
C 1.13723 32.07783 0.01831
C 34.37217 29.83028 -0.00439
C 34.33022 28.43065 -0.00598
C 1.15984 27.72517 -0.05239
C 1.20734 26.28043 0.03076
C 34.41645 25.57386 0.00723
C 34.40075 24.16642 0.02712
C 1.27553 23.40827 -0.02213
C 1.1392 30.55545 -0.01037
C 30.65279 14.96583 -0.01461
C 29.40665 15.63395 -0.01303
C 29.47853 17.04603 -0.0405
C 24.57207 21.22596 -0.01199
C 24.5562 19.79107 -0.00229
C 25.66829 19.04614 -0.00938
C 25.72998 17.70297 -0.0264
C 24.20162 17.12109 -0.01154
C 26.05298 5.23644 0.00684
C 24.7766 4.46981 -0.01052
C 24.6412 2.95939 -0.01679
C 25.8038 2.18956 0.00367
C 25.70163 0.8394 0.04306
C 24.49888 0.06338 0.00996
C 26.99641 32.6909 0.00195
C 28.21941 31.98296 -0.00802
C 28.21117 30.51097 -0.00218
C 26.99349 29.83159 -0.01654
C 25.74811 21.96641 -0.009
C 25.77473 23.46259 -0.00285
C 24.59095 24.11867 0.01423
C 24.6392 25.48921 0.02555
C 23.3323 21.93947 0.00071
C 22.07872 21.25564 -0.01107
C 22.01704 19.82855 -0.01586
C 23.24559 19.2252 -0.01971
C 23.0259 17.69819 -0.02118
C 22.2031 3.03144 0.00733
C 23.37866 2.30474 -0.00178
C 27.04777 28.36529 -0.00037
C 23.31519 0.85335 0.00768
C 24.56528 32.67224 0.03005
C 25.79858 32.0167 -0.04078
C 25.75417 30.56552 0.02117
C 24.53023 29.86237 0.02737
C 24.63934 28.43 -0.00498
C 25.82598 27.68177 0.00135
C 25.77999 26.2533 0.03102
C 22.09883 0.21014 -0.0276
C 28.20872 27.65474 -0.0032
C 28.26071 26.26698 0.00622
C 27.04836 25.58151 -0.02815
C 26.93751 0.09419 0.04266
C 29.45514 32.73191 0.01324
C 30.64866 31.96271 0.0014
C 30.66483 30.55296 0.00924
C 29.42312 29.82387 0.02326
C 29.44721 28.45939 0.00261
C 30.65917 27.66983 0.03265
C 28.25735 0.75896 0.01177
C 30.71015 26.29004 -0.02049
C 29.44695 24.20595 -0.01415
C 30.68618 23.44706 -0.03039
C 30.73116 21.9886 0.01836
C 29.50599 21.29302 0.03531
C 29.46001 19.91056 -0.00669
C 30.67994 19.17823 0.0101
C 30.69864 17.83899 0.01705
C 29.49643 25.57409 -0.01854
C 3.57425 31.92618 -0.02896
C 28.26266 2.16456 -0.00416
C 27.12671 4.19113 0.01799
C 27.04498 24.08992 -0.00942
C 28.20472 23.4005 0.00487
C 28.22012 21.97769 0.00826
C 26.97582 21.25319 -0.00294
C 26.96603 19.80424 0.00152
C 28.18831 19.15647 0.01257
C 28.26253 17.7294 0.02316
C 26.99609 2.83299 0.01699
C 26.99021 17.01526 0.04185
C 28.07725 14.93016 -0.00621
C 28.26476 13.4585 0.02611
C 28.32736 10.57213 0.02198
C 28.057 9.37594 0.01094
C 26.53742 6.36725 0.00235
C 28.07718 6.30927 0.01495
C 28.33601 4.91503 0.01259
C 26.94697 15.65281 0.00194
C 2.40792 32.67613 -0.01004
