411
Graphene
C 34.40567 0.04829 0.01295
C 13.55607 0.68993 -0.00428
C 12.31998 0.10761 0.03101
C 14.79218 32.66942 -0.01536
C 16.02311 32.00775 -0.02689
C 15.98491 30.52896 -0.01046
C 14.6649 30.04551 -0.00891
C 14.68684 19.74068 0.02819
C 15.89539 19.09772 0.00165
C 15.94282 17.64539 -0.02971
C 14.72228 16.9938 0.02894
C 14.81766 15.53297 -0.01789
C 16.06026 14.86955 0.00444
C 16.04682 13.43945 -0.00925
C 14.78546 12.83255 0.01877
C 14.73222 11.36963 0.01363
C 15.94413 10.60317 -0.02162
C 15.98984 9.11351 0.00415
C 14.75396 8.40973 -0.0014
C 14.71255 7.06806 0.02162
C 15.97355 6.35785 0.0076
C 15.95262 4.92699 0.01241
C 13.49673 2.09652 -0.02245
C 12.25098 2.92128 0.00985
C 12.28876 4.31769 -0.01275
C 13.52638 5.07201 -0.01111
C 11.03199 5.07925 0.00373
C 9.84844 4.28004 -0.00191
C 9.80741 2.89814 0.00438
C 11.0893 2.17447 0.01291
C 11.02422 0.79526 0.00093
C 9.8245 0.07928 0.00057
C 12.2993 32.79495 -0.01634
C 13.45856 32.02647 -0.00334
C 13.6798 30.60484 0.02339
C 13.64165 19.04806 0.01641
C 14.70691 4.26196 -0.01454
C 13.45895 17.75251 -0.00719
C 12.31912 15.62407 -0.01062
C 13.59226 14.89086 -0.00033
C 13.55275 13.44293 0.03589
C 12.30625 12.75759 -0.02759
C 12.24424 11.30826 0.0402
C 13.53206 10.68418 0.00572
C 13.577 9.22975 0.03592
C 12.28576 8.61758 0.00406
C 12.29247 7.24285 0.00943
C 13.55037 6.43452 0.02841
C 12.28898 17.1247 0.01364
C 14.71875 2.76651 0.01945
C 15.96255 2.10477 0.01416
C 16.02642 0.71102 0.03542
C 17.19571 4.25638 -0.00481
C 17.20016 2.85397 0.00979
C 18.44558 2.15339 0.01443
C 18.49833 0.77516 0.03505
C 17.24577 0.05516 -0.02815
C 19.7144 32.61064 -0.04147
C 20.97437 31.90263 -0.05302
C 20.93829 30.51679 0.00213
C 19.68263 29.78215 -0.00066
C 19.65886 28.32196 -0.00289
C 18.43166 4.96532 0.00889
C 20.85391 27.69042 0.00028
C 19.63186 25.59967 0.03698
C 19.63144 24.20228 -0.00109
C 20.84885 23.43606 -0.00491
C 20.81755 22.02813 0.03338
C 19.59656 21.32089 -0.0258
C 19.5919 19.92388 -0.0331
C 20.90029 19.16586 -0.00316
C 20.96956 17.73217 0.02188
C 19.70274 17.07092 -0.01979
C 19.72797 15.62348 0.02691
C 20.85434 26.26798 -0.02213
C 11.0854 6.48051 0.02147
C 18.44122 6.36462 -0.02162
C 17.21514 8.47989 0.01848
C 14.76085 34.07585 0.02299
C 17.25925 32.72472 0.00244
C 18.461 31.92644 -0.01717
C 18.45134 30.52492 0.05265
C 17.22995 29.82559 -0.01952
C 17.15021 28.4546 -0.02813
C 18.25761 27.62135 0.00374
C 18.43288 26.20162 0.00052
C 18.46767 23.43868 -0.03682
C 18.27505 22.07838 0.01965
C 17.17963 7.02639 -0.00619
C 17.28049 21.14854 0.02058
C 18.44075 19.0798 -0.0108
C 18.42752 17.68961 -0.00368
C 17.20706 16.98283 -0.02696
C 17.27278 15.5808 -0.00114
C 18.51436 14.92847 0.00228
C 18.44401 13.51283 0.00798
C 17.26219 12.73218 0.00422
C 17.17269 11.33554 0.0351
C 18.4191 10.65395 -0.03113
C 18.43341 9.23123 0.02098
C 17.16962 19.78066 -0.01957
C 20.92595 14.86702 -0.01581
C 9.86281 7.10295 -0.014
C 10.98531 9.26167 -0.00131
C 2.47535 2.86893 0.03189
C 3.67934 2.1379 0.00031
C 3.67319 0.69926 -0.003
C 2.44068 0.07205 0.01402
C 4.89655 32.65695 0.02379
C 6.12021 32.01092 0.00907
C 6.07918 30.62149 0.00643
C 4.87705 29.89038 -0.01509
C 4.9094 28.47203 0.03267
C 6.20826 27.63117 0.02374
C 6.03743 26.3216 0.00402
C 5.00989 25.5312 0.0073
C 5.04726 24.10689 0.0174
C 6.08277 23.20007 0.03828
C 6.24035 22.03398 0.01226
C 4.99474 21.25442 -0.00279
C 4.78413 19.87012 0.01996
C 6.11342 19.32942 -0.03996
C 6.18244 17.85976 0.01465
C 4.98146 17.03626 -0.00074
C 4.88785 15.59785 -0.00518
C 2.44572 4.2446 -0.04307
C 3.69148 4.97227 0.03284
C 3.71198 6.37498 0.04505
C 2.43457 7.05315 -0.04999
C 3.62287 30.65745 0.00088
C 2.41752 29.89254 0.00828
C 2.48036 28.4295 -0.02375
C 3.67312 27.69928 0.00558
C 3.7828 26.22097 -0.0059
C 2.46802 25.56652 -0.01386
C 2.48756 24.16253 -0.02805
C 3.71762 23.45811 0.00081
C 3.65793 22.04121 0.00245
C 2.41122 21.28853 0.02728
C 6.09237 14.91086 0.0086
C 2.4484 19.8199 -0.00039
C 3.69787 17.68399 0.00211
C 2.40539 17.0702 -0.00449
C 2.42933 15.67256 -0.01979
C 3.69303 14.94427 0.02784
C 3.7466 13.54285 -0.01977
C 2.55052 12.81193 -0.00561
C 2.48554 11.37053 0.00208
C 3.6544 10.59907 0.01707
C 3.58452 9.09884 0.02769
C 2.32103 8.50329 -0.03291
C 3.65761 19.08302 0.0064
C 6.12249 13.52401 -0.00643
C 4.93736 12.76385 0.017
C 4.86163 11.36681 -0.03113
C 8.55348 9.26707 -0.00562
C 7.30966 8.58887 -0.00494
C 7.37423 7.12193 0.00054
C 8.6003 6.41313 0.03007
C 8.60663 4.99935 -0.00095
C 7.3859 4.27905 0.01572
C 7.4034 2.88963 -0.04848
C 8.59094 2.21584 -0.00892
C 8.62162 0.76705 -0.01362
C 7.33502 0.0237 -0.0008
C 8.52882 10.67429 -0.01142
C 9.8655 32.72832 0.0288
C 10.98995 30.60254 0.00895
C 9.91412 30.16907 0.00685
C 11.05177 17.80462 0.02888
C 9.88199 17.05755 -0.00482
C 9.84208 15.64893 -0.01384
C 11.0853 14.95014 0.03693
C 11.11411 13.52906 0.01745
C 9.84836 12.82983 0.00488
C 9.81012 11.42093 -0.01004
C 10.96348 10.65856 -0.02896
C 11.13892 32.01701 0.00393
C 9.79445 8.5266 -0.01118
C 7.34118 11.36429 0.01849
C 8.56136 13.46313 0.0127
C 6.10318 10.70492 -0.02566
C 6.09711 9.27674 -0.00094
C 4.90551 8.57224 0.02322
C 4.95203 7.14751 -0.00725
C 6.19544 6.38123 -0.05697
C 6.10022 4.92916 0.01087
C 4.87578 4.2724 -0.01343
C 4.88674 2.88075 0.00988
C 6.14722 2.14588 0.0276
C 6.06394 0.7397 0.01305
C 7.3387 12.82071 0.01396
C 4.87619 34.05551 -0.00077
C 8.59329 32.05039 -0.02929
C 8.55665 30.57163 -0.00966
C 7.30431 29.83917 -0.03337
C 7.36878 28.4716 0.01227
C 7.39427 19.80621 0.00873
C 8.47653 19.26274 -0.00049
C 8.70388 17.85906 0.00848
C 7.39702 17.12953 -0.01303
C 7.34791 15.61511 -0.01378
C 8.53296 14.89345 0.02635
C 7.38687 32.70197 0.03368
C 3.64209 32.06355 0.04421
C 20.90442 13.42274 0.01452
C 19.60703 11.29937 -0.00111
C 30.783 9.17055 -0.03735
C 29.52316 8.55601 -0.00971
C 29.479 7.14111 0.01518
C 30.70073 6.3857 0.01908
C 30.67961 4.9705 0.07705
C 29.51391 4.27761 0.0103
C 29.54183 2.81111 0.02108
C 30.77428 2.15196 0.00716
C 30.69598 0.70436 0.00307
C 29.48784 34.04885 0.00346
C 31.9678 32.67827 0.01713
C 33.14935 31.92743 -0.01694
C 33.18178 30.48934 0.01428
C 31.95021 29.81497 -0.02142
C 31.92836 28.37943 0.0544
C 33.21741 27.65648 0.00026
C 33.12252 26.2532 0.00682
C 31.8934 25.59021 -0.01779
C 31.96031 24.11819 0.03794
C 33.14699 23.44313 0.01927
C 33.19303 22.02309 0.01574
C 30.7475 10.65245 -0.00944
C 29.53382 11.34553 -0.02155
C 29.53259 12.76076 -0.01461
C 30.80182 13.43094 -0.01303
C 27.0549 2.75274 0.01259
C 28.30208 2.09824 0.01799
C 28.31408 0.66495 0.01699
C 27.08676 34.03696 -0.00416
C 29.52908 32.62193 0.01177
C 30.72335 32.01626 0.04266
C 30.73479 30.57263 0.01324
C 29.52456 29.88227 0.0014
C 29.52491 28.44459 0.00924
C 30.73011 27.70003 0.02326
C 31.93512 21.28375 -0.02383
C 30.67403 26.25915 0.00261
C 29.61742 24.19022 -0.02049
C 30.77982 23.39401 -0.01854
C 30.77507 21.99423 -0.01415
C 29.45183 21.30087 -0.03039
C 29.50589 19.91902 0.01836
C 30.71902 19.16631 0.03531
C 30.68727 17.69214 -0.00669
C 29.44453 16.99312 0.0101
C 29.5517 15.58232 0.01705
C 30.69702 14.80758 -0.0405
C 29.50114 25.56685 0.03265
C 31.96223 19.89027 -0.01429
C 33.15838 19.1798 -0.0136
C 33.15845 17.74753 0.00594
C 1.21224 23.49981 0.00723
C 1.234 22.0159 0.02712
C 0.03119 21.317 -0.02213
C 34.43269 19.87215 0.01951
C 1.18127 19.11671 -0.01678
C 1.15944 17.73778 0.01223
C 34.35373 17.05298 0.00648
C 34.43304 15.59112 0.02114
C 1.25768 14.90553 -0.02957
C 1.28929 13.43301 0.00343
C 34.37428 24.15364 0.03076
C 0.01618 12.79349 -0.02656
C 1.25892 10.6796 -0.00027
C 1.18305 9.30558 -0.00583
C 0.0026 8.53296 -0.02302
C 34.40388 7.09622 -0.02849
C 1.17728 6.36096 0.02931
C 1.20755 4.92241 0.00628
C 34.35153 4.2784 -0.0345
C 34.40917 2.83899 -0.00931
C 1.18611 2.18656 -0.00939
C 1.18492 0.79302 -0.00468
C 34.42946 11.33478 -0.02442
C 27.06435 4.23208 0.01495
C 34.36833 25.56745 -0.05239
C 1.26244 27.68923 -0.00439
C 31.91382 16.95258 -0.02474
C 31.9808 15.60386 0.00369
C 33.19183 14.88253 0.00455
C 33.18518 13.46441 -0.00644
C 32.01956 12.71838 -0.01839
C 32.00164 11.32591 0.00137
C 33.21411 10.62011 0.00199
C 33.23394 9.21185 0.04381
C 31.99985 8.51191 0.02806
C 31.98755 7.0894 0.01504
C 1.21186 26.22772 -0.00598
C 33.16365 6.38881 -0.00069
C 31.8786 4.25679 -0.03838
C 32.01338 2.79918 0.00349
C 33.21936 2.12388 -0.00323
C 33.17416 0.72267 -0.00841
C 31.94877 34.0534 0.0001
C 34.40859 32.68511 -0.02927
C 1.15596 31.95777 -0.01404
C 1.17888 30.54165 0.01027
C 34.43178 29.77575 0.01831
C 0.01372 28.32838 -0.01037
C 33.10687 4.96154 0.04926
C 19.62097 12.75647 0.04892
C 28.25727 4.94618 0.00235
C 27.01983 7.06049 0.02198
C 22.17575 16.97386 0.01277
C 22.22284 15.56146 0.00096
C 23.44387 14.84804 -0.01527
C 23.35847 13.46391 0.01087
C 22.13755 12.73178 0.00199
C 22.13771 11.30718 0.01511
C 23.35923 10.61603 -0.00478
C 23.45537 9.18774 -0.01662
C 22.21865 8.46313 -0.01185
C 22.11489 7.08453 0.01126
C 23.35328 6.36045 0.01852
C 23.32929 4.96735 -0.00381
C 22.14107 4.26297 0.03046
C 22.16927 2.82355 0.0296
C 23.40694 2.14645 0.03374
C 23.38399 0.73315 -0.02845
C 22.14076 0.00932 -0.03213
C 24.7404 32.70708 0.02239
C 25.87696 31.97745 0.01153
C 25.86616 30.57501 0.02734
C 24.60375 29.84869 -0.0055
C 23.38322 17.75229 -0.02422
C 23.33273 19.19749 -0.01721
C 22.08147 19.8823 -0.01154
C 21.98688 21.34466 0.0106
C 20.88378 10.62156 -0.03557
C 20.91558 9.20125 0.03754
C 19.66808 8.57039 0.01739
C 19.68303 7.13614 0.00755
C 20.88073 6.39455 -0.0054
C 20.93802 4.98196 0.00667
C 19.66756 4.30099 0.00143
C 19.73752 2.87975 -0.017
C 20.95469 2.05715 0.00364
C 20.87447 0.66139 -0.00831
C 24.5437 28.35449 0.01515
C 19.65384 34.01565 -0.02957
C 23.51032 31.97727 0.00654
C 23.43479 30.61059 -0.00703
C 22.12718 29.84788 -0.04076
C 22.0684 28.40288 -0.00652
C 23.32051 27.6891 0.0058
C 23.24147 26.29626 -0.00865
C 22.0367 25.51506 0.00675
C 22.10593 24.07575 -0.00311
C 23.34233 23.38002 0.00742
C 23.27026 21.99851 -0.01594
C 22.24921 32.64915 -0.04422
C 25.81002 27.6818 -0.00225
C 25.77241 26.24359 0.00071
C 24.47655 25.63723 -0.01107
C 28.27948 30.48337 0.00367
C 27.00929 29.80224 0.04306
C 27.0557 28.36583 0.00996
C 28.30801 27.67332 0.00195
C 28.23625 26.20112 -0.00802
C 26.98813 25.54672 -0.00218
C 27.13303 24.16713 -0.01654
C 28.36684 23.49715 -0.00037
C 28.24151 22.04784 -0.0032
C 27.01617 21.33713 0.00622
C 28.26135 31.9224 -0.01679
C 27.05066 19.89369 -0.02815
C 28.23821 17.76644 0.00487
C 27.0367 17.06322 0.00826
C 27.11416 15.62709 -0.00294
C 28.30564 14.91276 0.00152
C 28.2684 13.4566 0.01257
C 27.04316 12.81531 0.02316
C 27.02702 11.31404 0.04185
C 28.28196 10.67363 0.00194
C 28.23508 9.22616 -0.00621
C 27.0004 8.44988 0.02611
C 28.27851 19.1873 -0.00942
C 28.25123 6.38538 0.01094
C 27.12622 32.66609 -0.01052
C 25.83804 0.64427 -0.01154
C 24.57933 24.18943 -0.01586
C 25.84 23.45371 -0.01971
C 25.7834 22.03151 -0.02118
C 24.54443 21.27535 0.00733
C 24.58981 19.90065 -0.00178
C 25.85309 19.17634 0.00768
C 25.78779 17.72354 -0.0276
C 24.58134 17.03922 0.03005
C 24.63138 15.65458 -0.04078
C 25.92433 14.95767 0.02117
C 24.64896 0.04847 0.00684
C 25.79808 13.53618 0.02737
C 24.60093 11.31363 0.00135
C 25.81047 10.58758 0.03102
C 25.84135 9.17699 0.02555
C 24.59359 8.41458 0.01423
C 24.54091 7.06529 -0.00285
C 25.7899 6.35216 -0.009
C 25.7691 4.98349 -0.01199
C 24.6147 4.21472 -0.00229
C 24.55125 2.79127 -0.00938
C 25.84406 2.06954 -0.0264
C 24.58195 12.76098 -0.00498
C 2.37024 32.76615 -0.00177
