408
Graphene
C 34.37499 0.04354 0.01295
C 13.32789 30.61763 -0.01536
C 12.13426 29.90174 -0.02689
C 12.19035 28.41887 -0.01046
C 13.44274 27.67475 -0.00891
C 13.41727 26.19962 0.02819
C 12.20115 25.52244 0.00165
C 12.28826 24.10137 -0.02971
C 13.53498 23.45041 0.02894
C 13.56535 22.03388 -0.01789
C 12.3111 21.35006 0.00444
C 12.24417 19.90073 -0.00925
C 13.46742 19.16176 0.01877
C 13.47225 17.69013 0.01363
C 12.26783 17.06222 -0.02162
C 12.31386 15.59418 0.00415
C 13.58176 15.00514 -0.0014
C 13.51499 13.57273 0.02162
C 12.32964 12.86692 0.0076
C 12.30494 11.38297 0.01241
C 13.55442 10.65297 -0.01454
C 13.62892 9.2043 0.01945
C 13.40299 31.98417 0.03101
C 12.18362 32.70443 -0.00428
C 9.76352 0.08918 -0.02245
C 10.9796 0.8456 0.00985
C 9.82201 24.20294 0.00438
C 11.06541 23.39288 0.01291
C 11.09482 22.05215 0.00093
C 9.89559 21.32684 0.00057
C 9.77556 19.8751 -0.01634
C 10.97431 19.18956 -0.00334
C 11.06584 17.71703 0.02339
C 9.82267 17.04632 0.01641
C 9.77278 15.62453 -0.00719
C 11.04839 14.97796 0.01364
C 12.39162 8.54353 0.01416
C 11.03879 13.5246 -0.01062
C 9.83748 11.33906 0.03589
C 11.11842 10.70299 -0.02759
C 11.09149 9.25767 0.0402
C 9.85897 8.61532 0.00572
C 9.91198 7.15816 0.03592
C 11.08548 6.47101 0.00406
C 11.08725 5.03055 0.00943
C 9.81299 4.31666 0.02841
C 9.8234 2.92456 -0.01111
C 11.0919 2.2125 -0.01275
C 9.84267 12.8158 -0.00033
C 9.80154 25.57358 -0.00191
C 12.39876 7.13099 0.03542
C 13.60448 4.97012 0.00244
C 16.11037 10.61923 0.01443
C 16.06317 9.2482 0.03505
C 14.83336 8.55151 -0.02815
C 14.81181 7.10029 -0.04147
C 16.01742 6.28941 -0.05302
C 16.07713 4.92588 0.00213
C 14.82571 4.23558 -0.00066
C 14.74595 2.80713 -0.00289
C 15.95503 2.13599 0.00028
C 15.9019 0.70989 -0.02213
C 14.67212 0.07669 0.03698
C 17.15055 32.67823 -0.00109
C 18.38167 31.97411 -0.00491
C 18.42574 30.56297 0.03338
C 17.20118 29.75397 -0.0258
C 17.14701 28.32988 -0.0331
C 18.38901 27.60019 -0.00316
C 18.40697 26.16142 0.02188
C 17.11533 25.50507 -0.01979
C 17.19558 24.06157 0.02691
C 18.36581 23.42319 -0.01581
C 14.82441 11.35699 0.00979
C 14.78997 12.76482 -0.00481
C 16.01286 13.47141 0.00889
C 15.9973 14.88182 -0.02162
C 12.35233 4.31179 -0.01717
C 12.25974 2.91484 0.05265
C 13.51154 2.15394 -0.01952
C 13.46829 0.72963 -0.02813
C 12.19518 0.12155 0.00374
C 14.61285 32.71494 0.00052
C 15.8431 31.94855 -0.03682
C 15.86852 30.50913 0.01965
C 14.59834 29.85829 0.02058
C 14.67677 28.37576 -0.01957
C 13.57216 6.39033 0.02299
C 15.91879 27.66886 -0.0108
C 14.6759 25.64563 -0.02696
C 14.79536 24.21176 -0.00114
C 16.02184 23.3652 0.00228
C 16.01409 21.98656 0.00798
C 14.74752 21.27643 0.00422
C 14.74498 19.91213 0.0351
C 16.07323 19.13572 -0.03113
C 15.88317 17.76204 0.02098
C 14.72045 17.04866 0.01848
C 14.76503 15.67062 -0.00619
C 15.87588 26.23379 -0.00368
C 18.4032 22.0567 0.01452
C 11.01173 26.26698 0.00373
C 9.77973 28.46082 -0.014
C 2.46757 2.83589 0.01402
C 3.64473 2.16766 0.02379
C 3.61464 0.70614 0.00907
C 2.36712 0.06773 0.00643
C 4.85943 32.70699 -0.01509
C 6.07856 32.00565 0.03267
C 6.05753 30.56932 0.02374
C 4.793 29.83592 0.00402
C 4.76959 28.39434 0.0073
C 6.07321 27.72213 0.0174
C 6.12409 26.34149 0.03828
C 4.87849 25.6437 0.01226
C 4.84344 24.17975 -0.00279
C 6.02612 23.49698 0.01996
C 6.12734 22.0893 -0.03996
C 4.90725 21.33876 0.01465
C 4.91915 19.9014 -0.00074
C 6.13618 19.2057 -0.00518
C 6.08115 17.81295 0.0086
C 4.8611 17.15777 -0.00643
C 4.83421 15.65716 0.017
C 2.43094 4.21319 -0.003
C 3.58248 5.03333 0.00031
C 3.7155 6.50762 0.03189
C 2.46289 7.15286 -0.04307
C 3.60418 30.62334 0.00558
C 2.44365 29.7704 -0.0059
C 2.36374 28.37932 -0.01386
C 3.62578 27.60771 -0.02805
C 3.61826 26.20688 0.00081
C 2.41623 25.56327 0.00245
C 2.40865 24.2393 0.02728
C 3.61297 23.49784 -0.00039
C 3.61718 22.05966 0.0064
C 2.36613 21.23808 0.00211
C 6.10169 15.02515 -0.03113
C 2.39667 19.87863 -0.00449
C 3.59861 17.82015 0.02784
C 2.3648 17.05272 -0.01977
C 2.40389 15.62772 -0.00561
C 3.62856 14.90002 0.00208
C 3.67259 13.4485 0.01707
C 2.34212 12.7763 0.02769
C 2.35503 11.44279 -0.03291
C 3.64245 10.73153 -0.04999
C 3.69126 9.31846 0.04505
C 2.45442 8.60154 0.03284
C 3.65349 19.26662 -0.01979
C 10.99561 27.74838 0.02147
C 6.1416 13.60388 -0.02566
C 4.96122 11.43078 0.02322
C 7.43753 17.16304 0.03007
C 7.38516 15.70671 -0.00095
C 8.63565 14.94407 0.01572
C 8.62807 13.55198 -0.04848
C 7.34936 12.86669 -0.00892
C 7.33808 11.40992 -0.01362
C 8.57107 10.59874 -0.0008
C 8.55825 9.22424 0.0288
C 7.31475 8.55748 0.00393
C 7.41759 7.1504 0.00895
C 8.64075 6.47644 0.00685
C 8.54224 5.07178 0.02888
C 7.33337 4.35344 -0.00482
C 7.39549 2.93146 -0.01384
C 8.61823 2.16977 0.03693
C 8.5074 0.80897 0.01745
C 7.32967 0.0939 0.00488
C 9.77954 32.75743 -0.01004
C 10.97367 31.98202 -0.02896
C 10.86339 30.55721 -0.00131
C 9.64696 29.8725 -0.01118
C 8.62294 17.81065 0.00054
C 8.61438 19.2354 -0.00494
C 7.3779 19.91661 -0.00562
C 7.33992 21.31832 -0.01142
C 6.1229 10.7032 -0.00725
C 6.13508 9.29327 -0.05697
C 4.93022 8.58949 0.01087
C 4.89514 7.21575 -0.01343
C 6.1665 6.49644 0.00988
C 6.08038 4.97272 0.0276
C 4.81165 4.35696 0.01305
C 4.79532 2.91998 -0.00077
C 6.06901 2.26746 0.03368
C 6.06295 0.87718 -0.02929
C 4.96478 12.7829 -0.00094
C 4.8858 0.10185 -0.00966
C 8.45855 32.10432 0.01227
C 8.46671 30.66485 0.00873
C 7.30432 29.91718 -0.00049
C 7.2996 28.50559 0.00848
C 8.49051 27.77071 -0.01303
C 8.6095 26.28096 -0.01378
C 7.34709 25.63368 0.02635
C 7.32903 24.17308 0.0127
C 8.62487 23.53852 0.01396
C 8.62863 22.01788 0.01849
C 7.27667 32.80175 -0.03337
C 17.28564 21.23929 0.04892
C 17.35011 19.77331 -0.00111
C 18.69033 19.10198 -0.03557
C 29.57249 8.47607 -0.00971
C 29.5168 7.06724 0.01518
C 30.67386 6.33127 0.01908
C 30.73815 4.95921 0.07705
C 29.56125 4.25327 0.0103
C 29.51412 2.74903 0.02108
C 30.76132 2.08356 0.00716
C 30.77594 0.68567 0.00307
C 29.55087 34.06412 0.00346
C 31.92237 32.67211 0.01713
C 33.09687 31.96729 -0.01694
C 33.06864 30.55121 0.01428
C 31.94131 29.82446 -0.02142
C 31.95163 28.37615 0.0544
C 33.15294 27.63859 0.00026
C 33.19224 26.27021 0.00682
C 31.91507 25.64578 -0.01779
C 31.91921 24.21982 0.03794
C 33.09108 23.36496 0.01927
C 33.09848 21.95661 0.01574
C 31.87086 21.17283 -0.02383
C 30.78322 9.22628 -0.03735
C 30.75042 10.65585 -0.00944
C 29.53455 11.28181 -0.02155
C 30.68411 13.38415 -0.01461
C 28.32521 4.98603 0.01799
C 27.11083 4.312 0.01699
C 27.03591 2.84141 -0.00416
C 28.27535 2.0942 0.01177
C 28.26826 0.66526 0.04266
C 27.04996 34.02984 0.01324
C 29.4827 32.64131 0.0014
C 30.69573 31.96409 0.00924
C 30.67741 30.48739 0.02326
C 29.46872 29.80679 0.00261
C 31.75888 19.83521 -0.01429
C 29.44258 28.39307 0.03265
C 30.6787 26.23591 -0.01854
C 29.43773 25.54146 -0.01415
C 29.40143 24.12377 -0.03039
C 30.68972 23.50389 0.01836
C 30.82288 22.07711 0.03531
C 29.56178 21.39443 -0.00669
C 29.38924 20.0095 0.0101
C 30.43134 19.12865 0.01705
C 30.58016 17.67263 -0.0405
C 30.70926 14.76579 -0.01303
C 30.68546 27.7706 -0.02049
C 28.2073 6.39769 0.01259
C 33.03471 19.15959 -0.0136
C 31.8528 17.02777 -0.02474
C 1.23232 22.00611 0.02712
C 34.4227 21.2989 -0.02213
C 34.34973 19.89769 0.01951
C 1.13463 19.16793 -0.01678
C 1.06001 17.77065 0.01223
C 34.26572 17.0361 0.00648
C 34.32404 15.5671 0.02114
C 1.12424 14.98411 -0.02957
C 1.13633 13.5698 0.00343
C 34.41335 12.87812 -0.02656
C 34.40842 11.39092 -0.02442
C 1.15476 10.61827 -0.00027
C 1.16917 9.25592 -0.00583
C 0.00913 8.4803 -0.02302
C 34.41186 7.00971 -0.02849
C 1.25835 6.37552 0.02931
C 1.21417 4.94464 0.00628
C 0.02274 4.25797 -0.0345
C 34.41176 2.86755 -0.00931
C 1.15605 2.1544 -0.00939
C 1.17474 0.78717 -0.00468
C 1.30639 23.41947 0.00723
C 34.43209 24.09929 0.03076
C 34.34433 25.50543 -0.05239
C 1.14979 26.19715 -0.00598
C 31.86675 15.61537 0.00369
C 33.09064 14.90278 0.00455
C 33.1439 13.51665 -0.00644
C 31.98684 12.72997 -0.01839
C 32.00588 11.33073 0.00137
C 33.26223 10.59008 0.00199
C 33.25277 9.17894 0.04381
C 31.94443 8.59914 0.02806
C 31.92804 7.06961 0.01504
C 33.15686 6.36393 -0.00069
C 33.08457 17.76875 0.00594
C 33.25405 4.94822 0.04926
C 31.96767 2.80627 0.00349
C 33.22646 2.11381 -0.00323
C 33.18565 0.72972 -0.00841
C 31.99764 0.00462 0.0001
C 34.36351 32.63668 -0.02927
C 1.11786 31.89654 -0.01404
C 1.18906 30.47909 0.01027
C 34.33425 29.88148 0.01831
C 34.31751 28.41959 -0.01037
C 1.10357 27.73197 -0.00439
C 31.98521 4.29874 -0.03838
C 27.03769 7.16086 0.01495
C 27.02071 8.49613 0.00235
C 28.29657 9.21762 0.01094
C 19.65779 24.10522 0.00096
C 20.87342 23.37353 -0.01527
C 20.8408 22.03555 0.01087
C 19.60145 21.32586 0.00199
C 19.81414 19.95394 0.01511
C 20.14344 10.63222 -0.00478
C 20.64286 9.57251 -0.01662
C 19.66468 8.51427 -0.01185
C 19.73533 7.17262 0.01126
C 21.03597 6.49545 0.01852
C 20.98048 5.00968 -0.00381
C 19.71549 4.18756 0.03046
C 19.65578 2.77795 0.0296
C 20.9058 2.11084 0.03374
C 20.93554 0.69283 -0.02845
C 19.70524 34.05338 -0.03213
C 22.09906 32.56003 0.02239
C 23.29584 31.86381 0.01153
C 23.33898 30.45168 0.02734
C 22.10928 29.74209 -0.0055
C 22.04427 28.29634 0.01515
C 19.63003 25.48496 0.01277
C 20.87303 26.18246 -0.02422
C 20.82247 27.64018 -0.01721
C 19.5637 28.36337 -0.01154
C 18.40073 17.73485 0.03754
C 17.16029 17.03846 0.01739
C 17.1935 15.63669 0.00755
C 18.3987 14.96036 -0.0054
C 18.34081 13.61662 0.00667
C 17.27495 12.80359 0.00143
C 17.4539 11.36159 -0.017
C 18.66053 10.62477 0.00364
C 18.39484 9.16109 -0.00831
C 17.19936 8.41307 -0.02957
C 23.2611 27.65957 -0.00225
C 17.23384 7.04645 -0.04422
C 18.57709 5.0545 -0.00703
C 17.23928 4.18753 -0.04076
C 17.28099 2.78826 -0.00652
C 18.40793 2.10054 0.0058
C 18.48826 0.70301 -0.00865
C 17.10841 34.06078 0.00675
C 19.59592 32.62669 -0.00311
C 20.85089 31.89324 0.00742
C 20.83547 30.53262 -0.01594
C 19.61369 29.89591 0.0106
C 18.46679 6.37672 0.00654
C 23.34309 26.15118 0.00071
C 22.10056 25.50954 -0.01107
C 22.10463 24.0543 -0.01586
C 24.50029 8.76467 0.04306
C 24.6557 7.26679 0.00996
C 25.8052 6.51416 0.00195
C 25.83644 5.01678 -0.00802
C 24.61397 4.28303 -0.00218
C 24.66362 2.8448 -0.01654
C 25.83022 2.20417 -0.00037
C 25.83948 0.67836 -0.0032
C 24.61894 34.02099 0.00622
C 27.0116 32.67015 -0.02815
C 25.89251 9.26783 0.00367
C 28.22398 31.97712 -0.00942
C 27.023 29.78379 0.00826
C 27.04347 28.34798 -0.00294
C 28.21786 27.6835 0.00152
C 28.20196 26.24722 0.01257
C 27.03975 25.4899 0.02316
C 26.92375 24.04927 0.04185
C 28.16703 23.45027 0.00194
C 28.293 22.00555 -0.00621
C 27.16878 21.19894 0.02611
C 28.38042 10.5944 0.02198
C 28.22458 30.53746 0.00487
C 3.55534 31.9921 -0.02375
C 24.57663 21.28337 -0.01679
C 25.78797 23.23659 0.00684
C 23.35523 23.21346 -0.01971
C 23.33817 21.72227 -0.02118
C 21.96892 21.18748 0.00733
C 23.25021 9.29017 -0.00178
C 22.0334 8.75827 0.00768
C 22.18462 7.28613 -0.0276
C 23.48011 6.57359 0.03005
C 23.47489 5.13726 -0.04078
C 22.24854 4.30792 0.02117
C 22.17079 2.82988 0.02737
C 25.88257 21.83725 -0.01052
C 23.39225 2.03343 -0.00498
C 22.18029 34.04723 0.03102
C 24.58244 32.60618 0.02555
C 25.80174 31.90976 0.01423
C 25.7883 30.46669 -0.00285
C 24.50777 29.78627 -0.009
C 24.46994 28.42323 -0.01199
C 25.79904 27.63084 -0.00229
C 25.81056 26.20151 -0.00938
C 24.61699 25.41031 -0.0264
C 24.5084 23.89391 -0.01154
C 23.37764 0.61873 0.00135
C 2.31164 32.68353 0.00828
