429
Graphene
C 0.01309 0.02373 0.01295
C 12.33273 8.51152 0.03589
C 12.25982 7.13438 -0.02759
C 13.52353 6.42418 0.0402
C 13.5368 4.94765 0.00572
C 12.3107 4.31755 0.03592
C 12.30371 2.87143 0.00406
C 13.4745 2.09706 0.00943
C 13.47919 0.71321 0.02841
C 12.26494 33.99161 -0.01111
C 14.75376 32.6797 -0.01275
C 13.56827 9.25061 -0.00033
C 16.01435 31.93029 0.00985
C 14.77139 29.82328 -0.00428
C 14.78664 28.38791 0.03101
C 15.95133 27.73714 -0.01536
C 15.9918 26.24618 -0.02689
C 14.78207 25.52417 -0.01046
C 14.75077 24.1102 -0.00891
C 16.04869 23.36862 0.02819
C 15.95195 22.0002 0.00165
C 14.73793 21.34599 -0.02971
C 14.76024 19.84471 0.02894
C 15.96294 30.5744 -0.02245
C 13.50549 17.82896 -0.01062
C 13.53729 19.2136 0.01364
C 12.34341 19.91358 -0.00719
C 9.8661 17.08787 0.00685
C 11.07969 9.20556 0.02888
C 9.829 8.53541 -0.00482
C 9.83893 7.06972 -0.01384
C 11.0934 6.404 0.03693
C 11.06428 5.0176 0.01745
C 9.79854 4.28023 0.00488
C 9.79035 2.90132 -0.01004
C 11.07085 2.1169 -0.02896
C 11.08661 0.72187 -0.00131
C 9.87757 0.00878 -0.01118
C 12.34544 32.64948 -0.014
C 13.5056 31.91446 0.02147
C 13.52249 30.56663 0.00373
C 12.31491 29.81113 -0.00191
C 12.2717 28.38685 0.00438
C 13.52926 27.68815 0.01291
C 13.60928 26.2793 0.00093
C 12.30871 25.57446 0.00057
C 12.31893 24.17 -0.01634
C 13.52047 23.51383 -0.00334
C 13.52144 22.05365 0.02339
C 12.29307 21.27155 0.01641
C 15.97651 19.16005 -0.01789
C 15.98356 17.7802 0.00444
C 14.72498 17.03807 -0.00925
C 15.96367 10.65056 0.01877
C 18.43218 14.94692 0.00228
C 18.45154 13.46429 0.00798
C 17.23336 12.86322 0.00422
C 17.21282 11.31898 0.0351
C 18.45522 10.62949 -0.03113
C 18.45303 9.21128 0.02098
C 17.25124 8.47062 0.01848
C 17.18339 7.10811 -0.00619
C 18.42248 6.39013 -0.02162
C 18.45531 4.94534 0.00889
C 17.21281 4.246 -0.00481
C 17.18703 2.86284 0.00979
C 18.42129 2.14103 0.01443
C 18.40496 0.70517 0.03505
C 17.15753 0.02541 -0.02815
C 19.68059 32.71053 -0.04147
C 20.88651 31.98062 -0.05302
C 20.92341 30.49491 0.00213
C 19.68178 29.80576 -0.00066
C 19.68609 28.41233 -0.00289
C 20.94818 27.72055 0.00028
C 20.95884 26.28257 -0.02213
C 19.67506 25.57429 0.03698
C 17.22882 15.57985 -0.00114
C 11.03788 17.73337 0.00895
C 17.21097 17.00577 -0.02696
C 18.47425 19.19295 -0.0108
C 15.9791 9.23064 0.01363
C 14.73188 8.51662 -0.02162
C 14.70091 7.11926 0.00415
C 15.98981 6.38774 -0.0014
C 15.94966 4.98162 0.02162
C 14.75657 4.2555 0.0076
C 14.78454 2.81773 0.01241
C 15.97336 2.09691 -0.01454
C 15.96857 0.67159 0.01945
C 14.71228 0.01627 0.01416
C 17.22136 32.64013 0.03542
C 18.45124 31.93378 0.02299
C 18.47879 30.50921 0.00244
C 17.2643 29.83465 -0.01717
C 17.20425 28.42905 0.05265
C 18.45229 27.63802 -0.01952
C 18.41535 26.26215 -0.02813
C 17.20459 25.55346 0.00374
C 17.21194 24.16667 0.00052
C 18.47395 23.39211 -0.03682
C 18.43935 22.02297 0.01965
C 17.19466 21.29622 0.02058
C 17.1809 19.88111 -0.01957
C 18.45547 17.75604 -0.00368
C 11.08154 19.23122 0.00393
C 9.86361 19.8433 0.0288
C 9.8441 21.34482 -0.0008
C 3.70954 2.14462 0.02728
C 3.66922 0.72235 -0.00039
C 2.39379 0.03678 0.0064
C 4.94282 32.66523 0.00211
C 6.15741 31.90985 -0.00449
C 6.14354 30.49829 -0.01979
C 4.87272 29.84294 0.02784
C 4.92486 28.35729 -0.01977
C 6.18621 27.6976 -0.00561
C 6.14521 26.26886 0.00208
C 4.98666 25.55379 0.01707
C 4.9475 24.16386 0.02769
C 6.13426 23.40123 -0.03291
C 6.14227 22.07268 -0.04999
C 4.9386 21.29105 0.04505
C 4.93537 19.84173 0.03284
C 6.12135 19.17009 -0.04307
C 6.16942 17.72237 0.03189
C 4.89168 17.01086 0.00031
C 4.9506 15.6235 -0.003
C 6.06037 14.88871 0.01402
C 6.13522 13.56056 0.02379
C 4.89149 12.83531 0.00907
C 2.45301 2.84142 0.00245
C 4.9459 11.4043 0.00643
C 2.46258 4.19903 0.00081
C 3.74699 6.38463 -0.01386
C 3.7109 30.56866 0.00267
C 2.45961 29.87701 0.00787
C 2.43182 28.39581 0.02426
C 3.66789 27.65877 0.01218
C 3.67782 26.2417 -0.01471
C 2.48144 25.56146 -0.02827
C 2.47438 24.11411 0.01078
C 3.70142 23.44388 -0.00112
C 3.71605 22.03465 0.03345
C 2.43884 21.27536 0.00748
C 2.50626 19.8485 0.00662
C 3.71828 19.16025 -0.0154
C 3.70094 17.76823 -0.01299
C 2.45132 16.94952 -0.00407
C 2.47739 15.58883 0.01138
C 3.69194 14.90645 0.03278
C 3.64105 13.42755 -0.00177
C 2.45226 12.78745 0.04421
C 2.44075 11.3822 0.00088
C 3.67599 10.68532 0.00828
C 3.70689 9.21815 -0.02375
C 2.46207 8.53734 0.00558
C 2.44155 7.1253 -0.0059
C 3.70195 4.97397 -0.02805
C 19.66758 24.09483 -0.00109
C 6.13684 10.6537 -0.01509
C 4.96012 8.56515 0.02374
C 7.40633 11.35281 -0.02929
C 8.58671 10.68199 -0.00966
C 8.62903 9.2265 -0.03337
C 7.38916 8.56097 0.01227
C 7.40612 7.14716 0.00873
C 8.6402 6.41757 -0.00049
C 8.56931 5.03174 0.00848
C 7.38076 4.29727 -0.01303
C 7.39009 2.88281 -0.01378
C 8.5659 2.12623 0.02635
C 8.62515 0.74555 0.0127
C 7.39462 34.06656 0.01396
C 9.86257 32.66379 0.01849
C 11.06957 31.98725 -0.01142
C 11.03688 30.55326 -0.00562
C 9.8571 29.79791 -0.00494
C 9.80262 28.38878 0.00054
C 11.0365 27.69995 0.03007
C 11.06942 26.23322 -0.00095
C 9.8316 25.55333 0.01572
C 9.76792 24.17039 -0.04848
C 11.05217 23.44246 -0.00892
C 11.08655 22.06153 -0.01362
C 7.38795 12.767 0.03368
C 6.15396 9.23598 0.03267
C 8.54867 14.92681 -0.00077
C 7.36157 17.06312 0.0276
C 4.93714 7.13369 0.00402
C 6.0995 6.39397 0.0073
C 6.10467 4.97616 0.0174
C 4.88281 4.20822 0.03828
C 4.929 2.86857 0.01226
C 6.07774 2.15852 -0.00279
C 6.16601 0.75083 0.01996
C 4.91911 34.05795 -0.03996
C 7.38277 32.65563 0.01465
C 8.60554 31.97231 -0.00074
C 8.65843 30.53372 -0.00518
C 7.42707 29.86237 0.0086
C 7.36211 28.38853 -0.00643
C 8.59139 27.71401 0.017
C 8.60529 26.27044 -0.03113
C 7.34244 25.60526 -0.02566
C 7.40629 24.14197 -0.00094
C 8.59853 23.37504 0.02322
C 8.65968 21.96384 -0.00725
C 7.36882 21.33005 -0.05697
C 7.36831 19.91716 0.01087
C 8.62537 19.17004 -0.01343
C 8.58508 17.74768 0.00988
C 7.3712 15.61772 0.01305
C 3.66963 31.98373 0.01913
C 20.93484 23.43864 -0.00491
C 19.6867 21.24271 -0.0258
C 29.53204 12.76456 -0.01461
C 29.54198 11.37363 -0.02155
C 30.74537 10.65894 -0.00944
C 30.74502 9.21977 -0.03735
C 29.46521 8.53051 -0.00971
C 29.55858 7.06343 0.01518
C 30.71961 6.369 0.01908
C 30.7239 4.99446 0.07705
C 29.47437 4.23321 0.0103
C 29.4913 2.8725 0.02108
C 30.73632 13.50051 -0.01303
C 30.75453 2.07705 0.00716
C 29.54031 34.05025 0.00346
C 31.95412 32.67757 0.01713
C 33.25107 31.9338 -0.01694
C 33.20826 30.46939 0.01428
C 31.99182 29.81278 -0.02142
C 32.0244 28.37697 0.0544
C 33.18533 27.69299 0.00026
C 33.20134 26.25734 0.00682
C 31.96528 25.55963 -0.01779
C 31.97193 24.15935 0.03794
C 30.76754 0.74308 0.00307
C 30.76363 14.92077 -0.0405
C 29.54974 15.65125 0.01705
C 29.47105 17.05516 0.0101
C 27.05717 7.10095 0.02198
C 28.30139 6.37432 0.01094
C 28.3241 5.00249 0.00235
C 27.07388 4.24748 0.01495
C 27.0362 2.8163 0.01259
C 28.28493 2.1457 0.01799
C 28.28571 0.71119 0.01699
C 27.08275 0.03472 -0.00416
C 29.46031 32.59414 0.01177
C 30.73141 31.91404 0.04266
C 30.73325 30.52395 0.01324
C 29.56309 29.80918 0.0014
C 29.47212 28.35781 0.00924
C 30.72348 27.6762 0.02326
C 30.71053 26.22763 0.00261
C 29.48258 25.53161 0.03265
C 29.50155 24.04875 -0.02049
C 30.75122 23.48975 -0.01854
C 30.75272 22.06765 -0.01415
C 29.54994 21.31321 -0.03039
C 29.52236 19.85216 0.01836
C 30.70347 19.13449 0.03531
C 30.70795 17.74259 -0.00669
C 33.22303 23.43494 0.01927
C 33.24386 21.96286 0.01574
C 32.00379 21.30215 -0.02383
C 31.94534 19.91723 -0.01429
C 34.42815 24.17318 0.03076
C 1.21931 23.49336 0.00723
C 1.19334 22.03535 0.02712
C 34.40572 21.29367 -0.02213
C 34.43209 19.91408 0.01951
C 1.2542 19.1813 -0.01678
C 1.23917 17.7399 0.01223
C 34.41622 16.9923 0.00648
C 34.40672 15.60099 0.02114
C 1.21511 14.92112 -0.02957
C 1.21772 13.55695 0.00343
C 0.00705 12.71567 -0.02656
C 34.4133 11.3441 -0.02442
C 1.176 10.66842 -0.00027
C 1.23261 9.24405 -0.00583
C 0.02277 8.5248 -0.02302
C 34.37518 7.05598 -0.02849
C 1.1884 6.36717 0.02931
C 1.23562 4.95178 0.00628
C 34.42535 4.19469 -0.0345
C 34.41979 2.84058 -0.00931
C 1.27603 2.11026 -0.00939
C 1.25656 0.7065 -0.00468
C 0.02302 25.5984 -0.05239
C 27.04539 8.51947 0.02611
C 1.2556 26.22589 -0.00598
C 34.42646 28.39872 -0.01037
C 33.17775 19.16984 -0.0136
C 33.19338 17.75864 0.00594
C 32.01143 17.02716 -0.02474
C 31.98887 15.62831 0.00369
C 33.15749 14.88446 0.00455
C 33.17355 13.45656 -0.00644
C 31.95901 12.73369 -0.01839
C 31.93596 11.34725 0.00137
C 33.21412 10.63111 0.00199
C 33.20493 9.23051 0.04381
C 31.90737 8.52123 0.02806
C 31.90915 7.07323 0.01504
C 33.20332 6.38677 -0.00069
C 33.20662 4.95562 0.04926
C 32.00433 4.2321 -0.03838
C 32.01173 2.82623 0.00349
C 33.22546 2.10863 -0.00323
C 33.19137 0.69442 -0.00841
C 31.99318 34.0309 0.0001
C 34.39949 32.63741 -0.02927
C 1.20894 31.98129 -0.01404
C 1.26694 30.4886 0.01027
C 0.05364 29.78538 0.01831
C 1.20967 27.63401 -0.00439
C 28.27739 9.23301 -0.00621
C 28.30597 10.65731 0.00194
C 27.06217 11.3275 0.04185
C 22.18342 25.57099 0.00675
C 22.10609 24.1319 -0.00311
C 23.37524 23.43842 0.00742
C 23.41565 21.97133 -0.01594
C 22.19129 21.29804 0.0106
C 22.14794 19.9233 -0.01154
C 23.35358 19.19788 -0.01721
C 23.36593 17.69003 -0.02422
C 22.11912 17.03135 0.01277
C 22.12815 15.61089 0.00096
C 23.33031 14.9584 -0.01527
C 23.35544 13.46693 0.01087
C 22.14302 12.78173 0.00199
C 22.09506 11.36979 0.01511
C 23.36257 10.64304 -0.00478
C 23.37788 9.24723 -0.01662
C 22.11548 8.56173 -0.01185
C 22.15657 7.04763 0.01126
C 23.37933 6.40817 0.01852
C 23.39809 4.95763 -0.00381
C 22.1785 4.22631 0.03046
C 22.09728 2.81312 0.0296
C 23.3842 2.13559 0.03374
C 23.34728 26.24164 -0.00865
C 23.47281 0.73587 -0.02845
C 23.34824 27.70822 0.0058
C 22.15281 29.80769 -0.04076
C 19.67247 19.85632 -0.0331
C 20.81763 19.19777 -0.00316
C 20.85167 17.76695 0.02188
C 19.66482 17.0344 -0.01979
C 19.66115 15.64612 0.02691
C 20.92929 14.88303 -0.01581
C 20.84147 13.4577 0.01452
C 19.67706 12.76559 0.04892
C 19.6639 11.37736 -0.00111
C 20.8671 10.61388 -0.03557
C 20.89393 9.25059 0.03754
C 19.68319 8.51007 0.01739
C 19.66306 7.07982 0.00755
C 20.90937 6.38864 -0.0054
C 20.91413 4.90859 0.00667
C 19.70368 4.2457 0.00143
C 19.67268 2.81835 -0.017
C 20.91516 2.15909 0.00364
C 20.98993 0.78167 -0.00831
C 19.68698 0.02825 -0.02957
C 22.09923 32.62954 -0.04422
C 23.35608 31.95393 0.00654
C 23.34825 30.5375 -0.00703
C 22.13668 28.42957 -0.00652
C 20.89406 21.98463 0.03338
C 22.17852 0.01649 -0.03213
C 25.86333 31.95409 0.01153
C 25.8068 2.14679 -0.0264
C 25.83348 0.68339 -0.01154
C 24.59003 0.03736 0.00684
C 27.05976 32.63341 -0.01052
C 28.2805 31.92064 -0.01679
C 28.25625 30.52248 0.00367
C 27.06579 29.81427 0.04306
C 27.02434 28.39384 0.00996
C 28.29141 27.68854 0.00195
C 28.30768 26.26206 -0.00802
C 27.04973 25.63063 -0.00218
C 27.08587 24.17808 -0.01654
C 28.24835 23.41013 -0.00037
C 28.31503 21.99557 -0.0032
C 27.05029 21.3086 0.00622
C 27.062 19.90188 -0.02815
C 28.2984 19.1374 -0.00942
C 28.26175 17.70514 0.00487
C 27.09892 17.04304 0.00826
C 27.01269 15.6712 -0.00294
C 28.29514 14.91291 0.00152
C 28.29653 13.52283 0.01257
C 27.04421 12.74931 0.02316
C 24.62238 2.81174 -0.00938
C 24.56097 32.6781 0.02239
C 24.61982 4.26939 -0.00229
C 25.81626 6.36934 -0.009
C 25.75394 30.52803 0.02734
C 24.57389 29.8043 -0.0055
C 24.55573 28.41414 0.01515
C 25.82554 27.69099 -0.00225
C 25.76021 26.24139 0.00071
C 24.56746 25.54199 -0.01107
C 24.5977 24.15809 -0.01586
C 25.8393 23.4857 -0.01971
C 25.79505 21.93698 -0.02118
C 24.60613 21.2967 0.00733
C 24.58244 19.89827 -0.00178
C 25.79018 19.17426 0.00768
C 25.81709 17.81116 -0.0276
C 24.59956 17.02925 0.03005
C 24.57692 15.5842 -0.04078
C 25.81654 14.91336 0.02117
C 25.84157 13.50399 0.02737
C 24.62972 12.78563 -0.00498
C 24.62764 11.39698 0.00135
C 25.82337 10.63033 0.03102
C 25.81748 9.23503 0.02555
C 24.57147 8.51172 0.01423
C 24.57159 7.11972 -0.00285
C 25.82351 4.92344 -0.01199
C 2.39695 32.63624 -0.03672
