363
Graphene
C 34.39752 0.02039 0.01295
C 13.55 21.86468 -0.03682
C 12.27982 21.29896 0.01965
C 12.23699 20.02672 0.02058
C 12.24175 4.28741 -0.01957
C 12.39262 2.88602 -0.0108
C 13.51722 2.10689 -0.00368
C 13.47585 0.70563 -0.02696
C 12.21646 0.00356 -0.00114
C 13.50276 23.33362 0.00052
C 14.83401 32.61461 0.00228
C 16.12974 30.44885 0.00422
C 14.86978 29.76671 0.0351
C 14.83306 28.33442 -0.03113
C 16.06391 27.71679 0.02098
C 15.95634 26.28168 0.01848
C 14.74036 25.47733 -0.00619
C 14.68683 24.0236 -0.02162
C 15.92117 23.37516 0.00889
C 16.05193 31.91995 0.00798
C 12.25882 24.14236 0.00374
C 12.21941 25.57205 -0.02813
C 13.53172 26.19626 -0.01952
C 10.97276 26.31404 -0.01789
C 9.74566 25.65449 0.00444
C 9.84694 24.2213 -0.00925
C 11.02767 23.45613 0.01877
C 11.02533 22.0719 0.01363
C 9.86727 21.2938 -0.02162
C 9.70129 19.83903 0.00415
C 11.21218 4.84196 -0.0014
C 9.87076 4.34931 0.02162
C 9.8301 2.92818 0.0076
C 11.06288 2.22053 0.01241
C 11.01509 0.79018 -0.01454
C 9.86152 34.05604 0.01945
C 12.32859 32.58949 0.01416
C 13.60394 31.94561 0.03542
C 13.60442 30.49429 0.02299
C 12.35902 29.78329 0.00244
C 12.29681 28.33383 -0.01717
C 13.54159 27.61524 0.05265
C 15.88484 21.96176 -0.00481
C 14.75314 21.21496 0.00979
C 14.95738 4.23553 0.01443
C 14.78019 2.96778 0.03505
C 20.88044 30.59425 0.03754
C 19.67246 29.92518 0.01739
C 19.65735 28.42734 0.00755
C 20.83305 27.6621 -0.0054
C 20.94101 26.20174 0.00667
C 19.65129 25.55468 0.00143
C 19.62157 24.14986 -0.017
C 20.85091 23.41148 0.00364
C 20.87962 22.02443 -0.00831
C 19.65823 21.33802 -0.02957
C 19.71371 19.867 -0.04422
C 20.84099 19.08421 0.00654
C 20.95291 17.78652 -0.00703
C 19.80938 4.20253 -0.04076
C 19.70993 2.84115 -0.00652
C 20.95229 2.04209 0.0058
C 20.92309 0.65389 -0.00865
C 19.61299 34.06746 0.00675
C 22.17314 32.56335 -0.00311
C 20.90396 31.99842 -0.03557
C 11.00623 27.75161 0.02894
C 19.63199 32.66609 -0.00111
C 18.37998 0.72228 0.01452
C 16.04582 2.24056 -0.02815
C 15.95312 0.72187 -0.04147
C 14.77758 34.02124 -0.05302
C 17.2399 32.66169 0.00213
C 18.44925 32.00768 -0.00066
C 18.47298 30.62194 -0.00289
C 17.27029 29.83114 0.00028
C 17.26464 28.40999 -0.02213
C 18.44586 27.62496 0.03698
C 18.42316 26.2541 -0.00109
C 17.16814 25.56627 -0.00491
C 17.19909 24.13106 0.03338
C 18.39654 23.4187 -0.0258
C 18.36617 22.00589 -0.0331
C 17.10957 21.26615 -0.00316
C 17.29926 19.9224 0.02188
C 18.33258 19.29395 -0.01979
C 17.23635 2.84467 0.02691
C 18.4367 2.18522 -0.01581
C 17.1563 0.02726 0.04892
C 23.38621 31.87702 0.00742
C 9.7777 28.4365 -0.02971
C 11.09539 30.47522 0.02819
C 3.6901 6.33522 -0.01378
C 3.73333 4.98641 0.02635
C 2.50272 4.2981 0.0127
C 2.49683 2.90574 0.01396
C 3.69512 2.1343 0.01849
C 3.60549 0.72019 -0.01142
C 2.45133 34.06052 -0.00562
C 4.91787 32.77991 -0.00494
C 2.39033 7.06314 -0.01303
C 6.11458 32.04008 0.00054
C 4.82417 29.87977 -0.00095
C 4.89129 28.40676 0.01572
C 6.15818 27.76487 -0.04848
C 6.11739 26.32005 -0.00892
C 4.99661 25.57767 -0.01362
C 4.93843 24.1351 -0.0008
C 6.11676 23.44278 0.0288
C 6.11161 22.02453 0.00393
C 6.04667 30.63239 0.03007
C 2.45942 8.52185 0.00848
C 3.65914 9.29632 -0.00049
C 3.64999 10.66152 0.00873
C 3.64245 30.54757 -0.00643
C 2.45787 29.782 0.017
C 2.48599 28.39326 -0.03113
C 3.69254 27.63454 -0.02566
C 3.73222 26.20787 -0.00094
C 2.47854 25.58104 0.02322
C 2.37468 24.22442 -0.00725
C 3.66782 23.50531 -0.05697
C 3.72482 22.04045 0.01087
C 2.48522 21.37313 -0.01343
C 2.50373 19.90071 0.00988
C 3.74787 19.14054 0.0276
C 3.71106 17.71751 0.01305
C 2.4662 16.97021 -0.00077
C 2.41882 15.59049 0.03368
C 3.65131 15.02845 -0.02929
C 3.63401 13.59154 -0.00966
C 2.45063 12.84409 -0.03337
C 2.48206 11.42795 0.01227
C 4.92359 21.30235 0.00895
C 4.973 19.84521 0.00685
C 6.20005 19.28203 0.02888
C 6.24285 17.77692 -0.00482
C 8.4797 26.31296 -0.00033
C 7.32503 25.53236 0.03589
C 7.40079 24.1136 -0.02759
C 8.66707 23.41785 0.0402
C 8.66389 22.01587 0.00572
C 7.4109 21.35803 0.03592
C 7.39537 19.96388 0.00406
C 8.59733 19.24157 0.00943
C 7.4549 17.11828 0.02841
C 7.51402 7.02415 -0.01111
C 8.58295 6.44931 -0.01275
C 8.59475 4.92087 0.00985
C 7.30933 4.26219 -0.02245
C 7.35002 2.81575 -0.00428
C 8.53493 2.11734 0.03101
C 8.60699 0.68608 -0.01536
C 7.34512 0.03719 -0.02689
C 9.8351 32.58308 -0.01046
C 11.08627 31.88658 -0.00891
C 8.52413 27.70262 -0.01062
C 9.81711 29.83654 0.00165
C 7.34925 28.48228 0.01364
C 8.55796 30.55615 0.01641
C 4.95454 17.10326 -0.01384
C 4.97966 15.69865 0.03693
C 6.10191 14.8796 0.01745
C 6.02447 13.67123 0.00488
C 4.97481 12.83767 -0.01004
C 4.98002 11.40741 -0.02896
C 6.09066 10.58454 -0.00131
C 6.16954 9.44601 -0.01118
C 4.97357 8.61886 -0.014
C 4.89375 7.19526 0.02147
C 6.1461 6.50428 0.00373
C 6.12899 5.02782 -0.00191
C 4.89765 4.27443 0.00438
C 4.96681 2.82797 0.01291
C 6.1125 2.14449 0.00093
C 6.10798 0.75627 0.00057
C 4.87498 0.05589 -0.01634
C 7.33454 32.69503 -0.00334
C 8.58177 31.96226 0.02339
C 7.26864 29.90578 -0.00719
C 3.65788 31.97041 0.0086
C 23.31733 30.51378 -0.01594
C 22.04841 28.39688 -0.01154
C 29.46262 0.00869 0.00346
C 32.06124 32.70475 0.01713
C 33.21419 31.93633 -0.01694
C 33.147 30.50096 0.01428
C 31.89428 29.85423 -0.02142
C 31.93023 28.44633 0.0544
C 33.19475 27.69313 0.00026
C 33.09854 26.28515 0.00682
C 30.67463 0.71618 0.00307
C 31.86925 25.52289 -0.01779
C 33.14103 23.44683 0.01927
C 33.19067 22.06752 0.01574
C 31.97513 21.26584 -0.02383
C 31.98201 19.86478 -0.01429
C 33.22416 19.18033 -0.0136
C 33.26194 17.75273 0.00594
C 32.00697 17.06995 -0.02474
C 32.02165 15.689 0.00369
C 31.94453 24.08209 0.03794
C 30.69211 2.13588 0.00716
C 29.47173 2.8618 0.02108
C 29.49068 4.31284 0.0103
C 29.54267 24.15717 -0.02049
C 30.77608 23.3527 -0.01854
C 30.79599 21.96559 -0.01415
C 29.48723 21.33247 -0.03039
C 29.52967 19.96239 0.01836
C 30.76108 19.16404 0.03531
C 30.72164 17.74115 -0.00669
C 29.49531 17.03363 0.0101
C 29.51103 15.60593 0.01705
C 30.75892 14.94401 -0.0405
C 30.76412 13.46701 -0.01303
C 29.54834 12.75292 -0.01461
C 29.53838 11.36279 -0.02155
C 30.73474 10.64825 -0.00944
C 30.73431 9.14449 -0.03735
C 29.50138 8.50626 -0.00971
C 29.53944 7.11458 0.01518
C 30.70612 6.32874 0.01908
C 30.66577 4.94303 0.07705
C 33.19129 14.90538 0.00455
C 33.13077 13.47655 -0.00644
C 31.9896 12.71154 -0.01839
C 31.96063 11.3414 0.00137
C 0.0233 19.9127 0.01951
C 1.23195 19.15976 -0.01678
C 1.28633 17.73814 0.01223
C 0.01489 17.02432 0.00648
C 0.01797 15.54306 0.02114
C 1.19416 14.84575 -0.02957
C 1.17717 13.4423 0.00343
C 34.38021 12.80141 -0.02656
C 34.39689 11.33006 -0.02442
C 1.23932 10.70585 -0.00027
C 1.24105 9.31913 -0.00583
C 0.02804 8.59104 -0.02302
C 34.4043 7.16757 -0.02849
C 1.19968 6.4209 0.02931
C 1.24265 5.00233 0.00628
C 0.01415 4.29616 -0.0345
C 0.06534 2.85837 -0.00931
C 1.25763 2.1134 -0.00939
C 1.21093 0.69514 -0.00468
C 0.02678 21.36858 -0.02213
C 29.48737 25.56164 0.03265
C 1.27801 22.08337 0.02712
C 34.39651 24.16485 0.03076
C 33.1886 10.61683 0.00199
C 33.22952 9.20838 0.04381
C 31.9545 8.49239 0.02806
C 31.92752 7.04238 0.01504
C 33.13925 6.38504 -0.00069
C 33.1551 4.93903 0.04926
C 31.89565 4.24163 -0.03838
C 31.93192 2.78608 0.00349
C 33.24748 2.21535 -0.00323
C 33.21785 0.82346 -0.00841
C 31.97071 0.05312 0.0001
C 34.42714 32.66512 -0.02927
C 1.19521 31.91867 -0.01404
C 1.17739 30.52065 0.01027
C 34.41589 29.81237 0.01831
C 0.03513 28.34699 -0.01037
C 1.28344 27.74042 -0.00439
C 1.19403 26.28217 -0.00598
C 34.34339 25.56909 -0.05239
C 1.16017 23.46209 0.00723
C 22.09334 29.86814 0.0106
C 30.70557 26.28196 0.00261
C 29.47768 28.43066 0.00924
C 24.5419 28.3482 0.01515
C 25.78056 27.66078 -0.00225
C 25.82221 26.20203 0.00071
C 24.55093 25.57698 -0.01107
C 24.46936 24.1496 -0.01586
C 25.71259 23.42396 -0.01971
C 25.784 21.99333 -0.02118
C 24.56799 21.2716 0.00733
C 24.55191 29.75821 -0.0055
C 24.59679 19.893 -0.00178
C 25.80455 17.69813 -0.0276
C 24.5261 16.96956 0.03005
C 24.47356 15.51343 -0.04078
C 25.85797 14.88937 0.02117
C 25.79476 13.46006 0.02737
C 24.52195 12.686 -0.00498
C 24.70383 11.48925 0.00135
C 25.81292 10.60314 0.03102
C 25.86048 19.16825 0.00768
C 25.7578 30.513 0.02734
C 25.77801 31.90552 0.01153
C 24.62185 32.5779 0.02239
C 23.29581 27.70357 -0.01721
C 23.37138 26.28434 -0.02422
C 22.15984 25.56673 0.01277
C 22.10915 24.17637 0.00096
C 23.2586 23.38137 -0.01527
C 23.25833 21.99356 0.01087
C 22.05931 21.25779 0.00199
C 22.12876 19.79664 0.01511
C 23.35916 19.12897 -0.00478
C 23.32405 17.67699 -0.01662
C 21.9985 17.10818 -0.01185
C 23.28837 14.72344 0.01126
C 23.49095 6.32678 0.01852
C 23.28831 4.96402 -0.00381
C 22.17092 4.09468 0.03046
C 22.17512 2.75424 0.0296
C 23.39469 2.05547 0.03374
C 23.41542 0.66463 -0.02845
C 22.18614 34.00394 -0.03213
C 25.77894 9.21017 0.02555
C 24.53883 8.49239 0.01423
C 24.61323 7.0627 -0.00285
C 25.99126 6.3397 -0.009
C 28.28076 14.87739 0.00152
C 28.28302 13.4308 0.01257
C 27.07363 12.75154 0.02316
C 27.07471 11.34267 0.04185
C 28.33078 10.66222 0.00194
C 28.25464 9.24596 -0.00621
C 27.01295 8.49472 0.02611
C 27.18004 7.11123 0.02198
C 28.36186 6.43541 0.01094
C 28.26058 5.04235 0.00235
C 27.13902 4.2622 0.01495
C 27.07947 2.80945 0.01259
C 28.31665 2.12153 0.01799
C 28.28255 0.74147 0.01699
C 27.06401 0.04865 -0.00416
C 29.52589 32.66216 0.01177
C 30.72718 32.0355 0.04266
C 30.70204 30.5663 0.01324
C 29.47745 29.84099 0.0014
C 27.06937 15.57002 -0.00294
C 30.70028 27.75133 0.02326
C 27.07209 17.05214 0.00826
C 28.28261 19.23431 -0.00942
C 25.87705 4.95673 -0.01199
C 24.69139 4.1809 -0.00229
C 24.57573 2.80739 -0.00938
C 25.85786 2.14678 -0.0264
C 25.87877 0.7843 -0.01154
C 24.67064 34.07027 0.00684
C 27.0465 32.71305 -0.01052
C 28.21568 31.93617 -0.01679
C 28.24511 30.47917 0.00367
C 26.9275 29.80601 0.04306
C 26.97802 28.43301 0.00996
C 28.19866 27.71604 0.00195
C 28.23733 26.25744 -0.00802
C 27.00609 25.49875 -0.00218
C 27.00526 24.12808 -0.01654
C 28.24645 23.44653 -0.00037
C 28.21524 22.00188 -0.0032
C 27.01331 21.2975 0.00622
C 27.04384 19.91607 -0.02815
C 28.27269 17.79363 0.00487
C 2.43578 32.62099 -0.00518
