310
Graphene
C 34.41035 34.04827 0.01295
C 14.73898 12.7158 -0.00316
C 14.74125 11.23814 0.02188
C 16.08468 10.64938 -0.01979
C 16.0173 9.27838 0.02691
C 14.76814 8.62542 -0.01581
C 14.71028 7.17128 0.01452
C 15.88735 6.37462 0.04892
C 15.92656 5.00871 -0.00111
C 14.65569 4.21983 -0.03557
C 14.69377 2.82971 0.03754
C 15.98078 2.12158 0.01739
C 15.97618 0.69351 0.00755
C 14.79817 0.02263 -0.0054
C 17.21729 32.59602 0.00667
C 18.51432 31.90546 0.00143
C 16.04429 13.09886 -0.0331
C 18.46692 30.53305 -0.017
C 14.55425 29.86502 -0.0258
C 15.96824 31.86786 -0.00491
C 12.26771 17.00121 0.00889
C 12.30457 15.66258 -0.00481
C 13.415 14.73486 0.00979
C 13.76538 13.66071 0.01443
C 13.68219 9.53824 0.03505
C 12.42966 8.67344 -0.02815
C 12.3701 7.1895 -0.04147
C 13.52379 6.41835 -0.05302
C 13.48433 4.95611 0.00213
C 12.29133 4.27078 -0.00066
C 12.22271 2.8802 -0.00289
C 13.49126 2.08278 0.00028
C 13.53689 0.67142 -0.02213
C 12.26805 0.09798 0.03698
C 14.83974 32.63764 -0.00109
C 15.84855 30.39342 0.03338
C 17.23099 29.73231 0.00364
C 17.46745 28.2584 -0.00831
C 17.33169 12.74634 -0.02957
C 19.66197 7.04462 0.01511
C 20.86039 6.29911 -0.00478
C 20.86497 4.90041 -0.01662
C 19.62359 4.25104 -0.01185
C 19.68082 2.84772 0.01126
C 20.86568 2.13403 0.01852
C 20.86535 0.74089 -0.00381
C 19.65813 0.02452 0.03046
C 22.14148 32.67008 0.0296
C 23.3718 32.02509 0.03374
C 23.34867 30.61587 -0.02845
C 22.20453 29.77163 -0.03213
C 22.42334 28.31409 0.02239
C 23.27706 13.3001 0.01153
C 22.03416 12.89955 0.02734
C 19.71243 8.461 0.00199
C 20.91695 9.18941 0.01087
C 20.88632 10.60676 -0.01527
C 19.64391 11.21286 0.00096
C 17.28997 11.31827 -0.04422
C 18.44569 10.59162 0.00654
C 18.43517 9.09871 -0.00703
C 17.19658 8.45896 -0.04076
C 17.19859 7.03849 -0.00652
C 18.39744 6.35341 0.0058
C 18.38642 4.92633 -0.00865
C 13.59761 32.04654 -0.02162
C 17.1323 4.2341 0.00675
C 18.43342 2.15295 0.00742
C 18.4596 0.69284 -0.01594
C 17.22872 34.03461 0.0106
C 19.66854 32.73212 -0.01154
C 20.89217 31.99279 -0.01721
C 20.88322 30.54199 -0.02422
C 19.71675 29.8457 0.01277
C 17.17315 2.82361 -0.00311
C 12.57992 32.74446 -0.00619
C 9.95342 0.02005 0.01848
C 11.09657 0.83657 0.02098
C 4.7105 32.69063 0.03592
C 6.1048 17.73822 0.00406
C 4.89782 17.10212 0.00943
C 4.86804 15.7044 0.02841
C 6.11416 14.90772 -0.01111
C 6.06807 13.50743 -0.01275
C 4.85335 12.76372 0.00985
C 4.88749 11.34488 -0.02245
C 6.12669 10.62038 -0.00428
C 6.19776 9.2255 0.03101
C 4.94801 8.50766 -0.01536
C 4.92068 7.1024 -0.02689
C 6.12764 6.4217 -0.01046
C 6.0958 4.95143 -0.00891
C 4.83887 4.25718 0.02819
C 2.54044 33.98458 0.00572
C 3.7781 0.64158 0.0402
C 3.72282 2.05711 -0.02759
C 2.4963 2.81879 0.03589
C 2.31816 19.93267 -0.014
C 3.47579 19.21752 0.02147
C 3.65676 17.8452 0.00373
C 2.48803 17.13928 -0.00191
C 2.47152 15.67981 0.00438
C 3.62796 14.97193 0.01291
C 3.61712 13.49861 0.00093
C 4.8921 2.89822 0.00165
C 2.3855 12.79693 0.00057
C 3.70216 10.64017 -0.00334
C 3.68985 9.22263 0.02339
C 2.42404 8.56909 0.01641
C 2.45674 7.11922 -0.00719
C 3.63468 6.41141 0.01364
C 3.66622 4.99085 -0.01062
C 2.38449 4.29605 -0.00033
C 2.40755 11.38505 -0.01634
C 22.02937 11.39027 -0.0055
C 6.08812 2.11027 -0.02971
C 5.03733 34.03115 -0.01789
C 9.80614 16.97143 0.00374
C 9.74855 15.5912 0.00052
C 11.01738 14.92814 -0.03682
C 11.03905 13.46888 0.01965
C 9.772 12.77465 0.02058
C 9.7753 11.39358 -0.01957
C 10.98545 10.72977 -0.0108
C 11.12258 9.33836 -0.00368
C 9.88765 8.51983 -0.02696
C 9.8602 7.11569 -0.00114
C 11.12588 6.46232 0.00228
C 11.07163 4.95039 0.00798
C 9.81942 4.25185 0.00422
C 9.82225 2.76018 0.0351
C 11.02481 2.17438 -0.03113
C 11.10133 17.8433 -0.02813
C 10.80958 19.16798 -0.01952
C 7.43433 0.0771 0.05265
C 8.68453 0.55089 -0.01717
C 8.63621 17.6927 0.00444
C 7.3798 17.12894 -0.00925
C 7.32788 15.7288 0.01877
C 8.53117 14.97729 0.01363
C 8.54707 13.50227 -0.02162
C 7.27048 12.77182 0.00415
C 7.38309 11.33214 -0.0014
C 6.1522 0.65897 0.02894
C 8.62784 10.68348 0.02162
C 7.38808 8.53212 0.01241
C 7.36343 7.0192 -0.01454
C 8.6102 6.40005 0.01945
C 8.55675 4.93587 0.01416
C 7.26462 4.25473 0.03542
C 7.33598 2.81507 0.02299
C 8.58739 2.10228 0.00244
C 8.62215 9.23396 0.0076
C 23.28889 10.71449 0.01515
C 23.32205 9.23549 -0.00225
C 22.06611 8.51887 0.00071
C 33.19982 26.25282 0.01927
C 31.92772 25.56776 0.01574
C 31.9647 24.17211 -0.02383
C 33.20046 23.46526 -0.01429
C 33.24622 22.03651 -0.0136
C 31.92689 21.36425 0.00594
C 31.96073 19.92906 -0.02474
C 33.21858 19.25435 0.00369
C 33.20426 17.82668 0.00455
C 31.96109 17.13783 -0.00644
C 31.9598 15.72895 -0.01839
C 33.20756 14.97004 0.00137
C 33.14368 13.60874 0.00199
C 31.87165 12.92813 0.04381
C 31.9335 11.44733 0.02806
C 33.09718 27.69371 0.03794
C 31.86819 28.40907 -0.01779
C 31.87675 29.84245 0.00682
C 33.16697 30.57168 0.00026
C 30.66787 13.57087 -0.00944
C 29.42917 12.81789 -0.03735
C 29.42931 11.35388 -0.00971
C 30.69771 10.68358 0.01518
C 30.70337 9.26076 0.01908
C 29.46574 8.50024 0.07705
C 29.44982 7.06507 0.0103
C 33.14066 10.74954 0.01504
C 30.74447 6.41408 0.02108
C 29.48166 4.26019 0.00307
C 29.52625 2.84442 0.00346
C 30.72015 2.17305 0.01713
C 30.7063 0.70924 -0.01694
C 29.48052 34.07812 0.01428
C 31.95945 32.64459 -0.02142
C 33.22884 31.97089 0.0544
C 30.71594 4.92286 0.00716
C 30.7345 15.02323 -0.02155
C 33.15436 9.3142 -0.00069
C 31.94536 7.10028 -0.03838
C 34.39287 15.73992 0.02114
C 1.19967 14.95389 -0.02957
C 1.16295 13.54955 0.00343
C 34.372 12.85967 -0.02656
C 34.36754 11.47523 -0.02442
C 1.17238 10.77858 -0.00027
C 1.20427 9.319 -0.00583
C 34.39466 8.59229 -0.02302
C 34.36326 7.12802 -0.02849
C 1.14329 6.42407 0.02931
C 1.23806 5.01562 0.00628
C 0.03625 4.28314 -0.0345
C 0.03724 2.82824 -0.00931
C 1.27114 2.08569 -0.00939
C 1.31401 0.56128 -0.00468
C 0.03827 17.13914 0.00648
C 1.24762 17.84816 0.01223
C 1.15859 19.238 -0.01678
C 34.40574 19.95497 0.01951
C 33.16824 6.40084 0.00349
C 33.21562 4.96235 -0.00323
C 32.00251 4.24027 -0.00841
C 31.99805 2.83494 0.0001
C 33.19571 2.10444 -0.02927
C 33.19909 0.67714 -0.01404
C 31.94644 34.07991 0.01027
C 31.93131 8.55578 0.04926
C 34.40297 32.6712 0.01831
C 1.08769 30.57795 -0.00439
C 0.02002 29.71609 -0.00598
C 34.2971 28.43182 -0.05239
C 34.24728 25.45312 0.03076
C 0.00168 24.13504 0.00723
C 1.38025 21.96817 0.02712
C 0.08333 21.34198 -0.02213
C 1.16585 31.98444 -0.01037
C 3.77636 31.9263 -0.01118
C 29.4198 15.69474 -0.01461
C 30.72443 17.79344 -0.0405
C 25.70238 9.2232 -0.00229
C 24.57824 8.51333 -0.00938
C 24.51986 7.12079 -0.0264
C 25.77688 6.38522 -0.01154
C 25.77074 4.99466 0.00684
C 24.55505 4.27216 -0.01052
C 24.66117 2.93912 -0.01679
C 25.76343 2.16789 0.00367
C 25.82854 0.71817 0.04306
C 24.5769 34.04387 0.00996
C 27.04349 32.65965 0.00195
C 28.24842 31.95863 -0.00802
C 28.24831 30.56859 -0.00218
C 27.00782 29.84672 -0.01654
C 26.91277 28.3909 -0.00037
C 25.75744 10.59735 -0.01199
C 24.48645 11.38596 -0.009
C 24.63696 12.77966 -0.00285
C 25.75125 13.51251 0.01423
C 22.07394 7.03018 -0.01107
C 23.30337 6.36059 -0.01586
C 23.34845 4.99893 -0.01971
C 22.10846 4.2465 -0.02118
C 22.08228 2.86367 0.00733
C 23.41397 2.13338 -0.00178
C 23.35958 0.76277 0.00768
C 28.22743 27.71045 -0.0032
C 22.14338 0.02888 -0.0276
C 25.79825 31.98578 -0.04078
C 25.78773 30.59617 0.02117
C 24.58468 29.87732 0.02737
C 24.3428 28.42589 -0.00498
C 25.6414 27.77593 0.00135
C 25.82079 26.35882 0.03102
C 25.74065 14.81829 0.02555
C 24.61708 32.70019 0.03005
C 29.47672 17.0669 -0.01303
C 28.22309 26.25118 0.00622
C 27.11367 24.18526 -0.00942
C 27.01503 34.07298 0.01324
C 29.42814 32.64173 0.0014
C 30.69274 31.9718 0.00924
C 30.72382 30.57248 0.02326
C 29.47119 29.88182 0.00261
C 29.42437 28.4198 0.03265
C 30.64633 27.6613 -0.02049
C 30.69411 26.3364 -0.01854
C 29.45725 25.57993 -0.01415
C 29.48012 24.12615 -0.03039
C 30.68896 23.42023 0.01836
C 30.69454 22.02155 0.03531
C 29.55839 21.31914 -0.00669
C 29.53632 19.89794 0.0101
C 30.76416 19.20853 0.01705
C 28.26584 0.70323 0.04266
C 28.28319 2.18929 0.01177
C 27.055 2.81941 -0.00416
C 26.99688 4.27025 0.01699
C 28.10848 23.29461 0.00487
C 28.24958 21.92795 0.00826
C 28.39631 19.12576 -0.00294
C 28.10855 17.7591 0.00152
C 27.04221 16.95944 0.01257
C 26.8747 15.57423 0.02316
C 28.16651 14.96511 0.04185
C 26.94926 25.5075 -0.02815
C 28.18952 13.54136 0.00194
C 26.94994 11.35623 0.02611
C 28.2138 10.66759 0.02198
C 28.25882 9.25643 0.01094
C 27.04196 8.52485 0.00235
C 26.99545 7.08398 0.01495
C 28.24221 6.40021 0.01259
C 28.2387 4.93923 0.01799
C 26.96696 12.81635 -0.00621
C 2.47159 32.58943 -0.00131
