313
Graphene
C 34.3855 34.07622 0.01295
C 9.82125 24.08605 -0.0331
C 10.90039 23.06127 -0.00316
C 10.22288 21.92959 0.02188
C 9.76544 11.26174 -0.01979
C 10.96008 10.67234 0.02691
C 11.1198 9.27558 -0.01581
C 9.85548 8.63982 0.01452
C 9.84367 7.22388 0.04892
C 11.0026 6.42492 -0.00111
C 11.07268 5.0198 -0.03557
C 9.767 4.30008 0.03754
C 9.81276 2.91246 0.01739
C 11.14888 2.16229 0.00755
C 11.04266 0.72806 -0.0054
C 9.90211 34.01878 0.00667
C 9.84252 25.48733 -0.0258
C 11.10192 26.19053 0.03338
C 11.06016 27.67371 -0.00491
C 9.83027 28.41233 -0.00109
C 7.31351 11.41177 -0.00619
C 8.57262 10.6909 -0.02162
C 8.63381 9.22837 0.00889
C 7.40648 8.47502 -0.00481
C 7.39153 7.09267 0.00979
C 8.63063 6.40717 0.01443
C 8.59826 5.01987 0.03505
C 12.29338 32.63425 0.00143
C 7.34812 4.29206 -0.02815
C 8.60512 2.11393 -0.05302
C 8.62919 0.68022 0.00213
C 7.44105 34.0683 -0.00066
C 9.93514 32.53208 -0.00289
C 11.11325 31.84414 0.00028
C 11.08027 30.41009 -0.02213
C 9.86898 29.77506 0.03698
C 7.34019 2.9034 -0.04147
C 7.42644 12.92645 0.01848
C 13.49994 32.00466 -0.017
C 12.35322 29.74718 -0.00831
C 14.80145 25.42543 0.00199
C 14.96622 23.98199 0.01511
C 14.91472 2.74669 -0.00478
C 15.77619 1.01406 -0.01662
C 14.78619 34.079 -0.01185
C 17.1214 32.84825 0.01126
C 18.46539 32.12351 0.01852
C 18.41761 30.6979 -0.00381
C 17.20651 29.89399 0.03046
C 17.16861 28.37556 0.0296
C 18.41122 27.75178 0.03374
C 18.35798 26.33371 -0.02845
C 17.14476 25.59587 -0.03213
C 17.06063 24.1096 0.02239
C 18.15144 23.59501 0.01153
C 16.00361 26.3462 0.01087
C 15.9353 27.69459 -0.01527
C 14.72919 28.36811 0.00096
C 14.72493 29.78817 0.01277
C 12.31002 28.32542 -0.02957
C 13.51437 27.56741 -0.04422
C 13.54967 26.16208 0.00654
C 12.33484 25.39529 -0.00703
C 12.15487 23.80877 -0.04076
C 12.23774 8.43282 -0.00652
C 12.273 6.99633 0.0058
C 13.55868 30.49155 0.00364
C 13.6056 4.95468 -0.00865
C 12.42203 2.86761 -0.00311
C 13.66343 2.09293 0.00742
C 13.51761 0.63664 -0.01594
C 12.23752 34.05792 0.0106
C 14.73287 32.65521 -0.01154
C 15.95091 32.06664 -0.01721
C 16.02037 30.59067 -0.02422
C 12.39741 4.30461 0.00675
C 8.41464 13.77615 0.02098
C 7.37656 15.4552 -0.03113
C 7.22329 16.73315 0.0351
C 3.61648 9.25317 -0.02759
C 2.34462 8.507 0.0402
C 2.34742 7.10428 0.00572
C 3.66279 6.3943 0.03592
C 3.6648 4.95848 0.00406
C 2.42083 4.30549 0.00943
C 2.42614 2.84151 0.02841
C 3.64467 2.10078 -0.01111
C 3.67554 0.62245 -0.01275
C 2.4309 34.05369 0.00985
C 4.88968 32.60744 -0.02245
C 6.19736 31.94902 -0.00428
C 6.18263 30.48011 0.03101
C 4.91587 29.81025 -0.01536
C 4.91062 28.40094 -0.02689
C 3.6543 10.66304 0.03589
C 2.45261 11.45583 -0.00033
C 2.41964 12.87711 -0.01062
C 3.63293 13.57203 0.01364
C 3.65449 30.54795 -0.02896
C 2.40826 29.78576 -0.00131
C 2.38597 28.38449 -0.01118
C 3.67996 27.63315 -0.014
C 3.6711 26.27087 0.02147
C 2.43136 25.5124 0.00373
C 2.45956 24.09566 -0.00191
C 6.14294 27.63413 -0.01046
C 3.64163 23.42999 0.00438
C 2.47368 21.25531 0.00093
C 2.49505 19.85263 0.00057
C 3.75278 19.1502 -0.01634
C 3.69385 17.74969 -0.00334
C 2.47956 17.09237 0.02339
C 2.42918 15.66764 0.01641
C 3.63104 14.95549 -0.00719
C 3.72337 21.98973 0.01291
C 6.10846 26.2555 -0.00891
C 4.90147 25.59094 0.02819
C 4.9613 24.09504 0.00165
C 6.19097 2.15884 0.05265
C 6.23202 0.76156 -0.01952
C 4.98207 0.00205 -0.02813
C 7.40257 32.68199 0.00374
C 8.69537 31.94115 0.00052
C 8.59321 30.46757 -0.03682
C 7.39808 29.77016 0.01965
C 4.89958 2.80104 -0.01717
C 7.35816 28.41781 0.02058
C 8.58392 26.24394 -0.0108
C 7.33728 25.52323 -0.00368
C 7.36191 24.13633 -0.02696
C 8.59122 23.46177 -0.00114
C 8.76337 21.97933 0.00228
C 7.49364 21.21838 0.00798
C 7.51257 19.79404 0.00422
C 8.63125 27.63117 -0.01957
C 18.36581 0.99983 0.02734
C 4.91114 4.25919 0.00244
C 6.14759 6.42037 0.03542
C 6.16939 23.43212 -0.02971
C 6.23258 22.03796 0.02894
C 4.94558 21.25798 -0.01789
C 5.00732 19.88873 0.00444
C 6.25327 19.18045 -0.00925
C 6.14606 17.70958 0.01877
C 4.90316 16.99234 0.01363
C 6.10149 4.98597 0.02299
C 4.88522 15.62446 -0.02162
C 6.07339 13.52705 -0.0014
C 4.8182 12.84741 0.02162
C 4.88355 11.39442 0.0076
C 6.15636 10.7262 0.01241
C 6.13635 9.28983 -0.01454
C 4.87694 8.56372 0.01945
C 4.90656 7.13236 0.01416
C 6.10871 14.90362 0.00415
C 3.66848 31.98867 -0.01004
C 17.06687 0.37058 -0.0055
C 20.83711 32.19581 -0.00225
C 31.94631 25.4594 0.01927
C 31.95351 24.04306 0.01574
C 33.1659 23.39842 -0.02383
C 33.14201 21.98388 -0.01429
C 31.95034 21.27821 -0.0136
C 31.95741 19.86603 0.00594
C 33.20118 19.26296 -0.02474
C 33.16319 17.87615 0.00369
C 31.88578 17.0977 0.00455
C 31.90682 15.75553 -0.00644
C 33.13109 14.97994 -0.01839
C 33.22653 13.5549 0.00137
C 33.1528 10.88625 0.00199
C 32.98831 9.39753 0.04381
C 31.90457 8.57241 0.02806
C 33.17336 26.19446 0.03794
C 33.15435 27.67404 -0.01779
C 31.88716 28.34895 0.00682
C 31.88803 29.74724 0.00026
C 30.74079 21.94537 -0.00944
C 29.50488 21.29831 -0.03735
C 29.42235 19.90852 -0.00971
C 30.66526 19.23244 0.01518
C 30.65305 17.75751 0.01908
C 29.34399 17.04009 0.07705
C 30.30356 6.41641 0.0103
C 31.70375 7.23168 0.01504
C 30.63179 4.95675 0.02108
C 29.34877 2.82397 0.00307
C 30.66081 2.20823 0.00346
C 30.66185 0.76477 0.01713
C 29.40535 0.03389 -0.01694
C 31.9403 32.68161 0.01428
C 33.10736 31.9206 -0.02142
C 33.09312 30.47916 0.0544
C 29.48691 4.20605 0.00716
C 30.73455 23.31361 -0.02155
C 32.98762 6.4444 -0.00069
C 31.90247 4.35188 -0.03838
C 34.34846 15.67781 0.02114
C 1.16584 15.02203 -0.02957
C 1.2557 13.61763 0.00343
C 0.03833 12.93275 -0.02656
C 34.39426 11.42363 -0.02442
C 1.18528 10.67616 -0.00027
C 1.07745 9.31416 -0.00583
C 34.18386 8.67183 -0.02302
C 34.17692 7.18376 -0.02849
C 1.06881 6.48907 0.02931
C 1.22683 5.05118 0.00628
C 0.00074 4.28374 -0.0345
C 0.01705 2.79148 -0.00931
C 1.2295 2.08472 -0.00939
C 1.23387 0.68652 -0.00468
C 34.35374 17.10791 0.00648
C 1.22316 17.79129 0.01223
C 1.18565 19.218 -0.01678
C 34.4242 19.96162 0.01951
C 31.91655 2.91727 0.00349
C 33.16119 2.1493 -0.00323
C 33.15056 0.70607 -0.00841
C 31.88687 0.01047 0.0001
C 34.37212 32.63761 -0.02927
C 1.16007 31.90228 -0.01404
C 1.15321 30.52828 0.01027
C 33.13947 5.01825 0.04926
C 34.34811 29.80533 0.01831
C 1.15826 27.66338 -0.00439
C 1.1487 26.20464 -0.00598
C 34.39508 25.50235 -0.05239
C 34.38791 24.16787 0.03076
C 1.22807 23.49471 0.00723
C 1.26202 22.04405 0.02712
C 34.40588 21.36139 -0.02213
C 34.37488 28.37417 -0.01037
C 29.49444 24.0739 -0.01461
C 29.49528 25.50238 -0.01303
C 30.68756 26.16472 -0.0405
C 23.29479 23.42346 -0.01199
C 23.19278 21.94154 -0.00229
C 21.83068 21.36501 -0.00938
C 22.09041 19.98393 -0.0264
C 23.28588 19.15873 -0.01154
C 23.37661 17.56337 0.00684
C 23.59037 0.76662 -0.01052
C 22.25029 0.18148 -0.01679
C 24.47497 32.5899 0.00367
C 25.69058 31.88019 0.04306
C 25.76675 30.45134 0.00996
C 24.55446 29.76932 0.00195
C 24.54938 28.38543 -0.00802
C 25.75209 27.64407 -0.00218
C 25.72714 26.23973 -0.01654
C 22.12193 24.16913 -0.009
C 22.05053 25.64979 -0.00285
C 23.30965 26.25504 0.01423
C 23.32514 27.6953 0.02555
C 20.91757 30.68121 0.00071
C 19.66009 29.98001 -0.01107
C 19.61701 28.46243 -0.01586
C 20.79928 27.72707 -0.01971
C 20.78699 26.31892 -0.02118
C 19.54499 25.60534 0.00733
C 19.53255 24.21284 -0.00178
C 24.50461 25.54873 -0.00037
C 20.85084 23.47712 0.00768
C 20.97769 0.80996 0.03005
C 19.6264 0.21501 -0.04078
C 22.11364 32.76551 0.02117
C 23.21529 31.96119 0.02737
C 23.31339 30.50667 -0.00498
C 22.11126 29.86862 0.00135
C 22.04008 28.38784 0.03102
C 20.61829 22.10791 -0.0276
C 24.48141 24.11571 -0.0032
C 25.73553 23.4025 0.00622
C 25.71286 21.96854 -0.02815
C 26.93578 19.90054 0.04266
C 28.17972 19.20733 0.01324
C 28.24239 17.851 0.0014
C 28.98578 6.5664 0.00924
C 28.3614 5.16328 0.02326
C 27.25094 4.36152 0.00261
C 26.83083 2.97503 0.03265
C 27.05695 21.27948 0.01177
C 28.14068 2.1821 -0.02049
C 27.01226 34.06333 -0.01415
C 29.46326 32.6344 -0.03039
C 30.71704 31.90932 0.01836
C 30.71052 30.45614 0.03531
C 29.40511 29.76779 -0.00669
C 29.40056 28.28336 0.0101
C 30.6442 27.61905 0.01705
C 28.19316 0.74842 -0.01854
C 19.64056 32.82015 0.01515
C 28.23679 21.98032 -0.00416
C 26.97489 24.1297 0.01799
C 24.40587 21.24646 -0.00942
C 24.42602 19.84629 0.00487
C 25.74149 19.18099 0.00826
C 26.01613 17.7264 -0.00294
C 24.68704 17.39718 0.00152
C 25.68351 2.05069 0.01257
C 25.80224 0.71833 0.02316
C 28.24508 23.38967 0.01699
C 24.64846 34.00809 0.04185
C 28.22197 31.93992 -0.00621
C 28.17922 30.51158 0.02611
C 26.97775 29.70252 0.02198
C 27.04311 28.29629 0.01094
C 28.22817 27.56794 0.00235
C 28.27305 26.22208 0.01495
C 26.94094 25.51002 0.01259
C 26.9503 32.67095 0.00194
C 2.39871 32.64589 0.00488
