298
Graphene
C 34.37611 0.11004 0.01295
C 12.30464 7.16404 0.03754
C 13.48917 6.47218 0.01739
C 13.5108 4.99425 0.00755
C 12.25151 4.27398 -0.0054
C 12.20529 2.8973 0.00667
C 13.51236 2.22755 0.00143
C 12.26842 8.70987 -0.03557
C 13.57835 0.71662 -0.017
C 14.68223 32.66287 -0.00831
C 15.89238 31.90576 -0.02957
C 15.93239 30.4932 -0.04422
C 14.65646 29.84236 0.00654
C 14.67758 28.4497 -0.00703
C 15.95475 27.70123 -0.04076
C 12.30812 0.13013 0.00364
C 13.53864 9.40495 -0.00111
C 12.33797 25.54026 0.04892
C 13.5665 26.11598 0.01452
C 9.7765 8.82376 -0.00066
C 9.75415 7.22551 -0.00289
C 11.04725 6.49127 0.00028
C 11.08501 4.99527 -0.02213
C 9.84507 4.28786 0.03698
C 9.77978 2.84584 -0.00109
C 10.98742 2.09388 -0.00491
C 11.06204 0.70279 0.03338
C 9.8947 34.01362 -0.0258
C 12.34477 32.61306 -0.0331
C 13.51942 31.92639 -0.00316
C 13.50238 30.56527 0.02188
C 12.312 29.80362 -0.01979
C 12.33271 28.44341 0.02691
C 13.56331 27.63112 -0.01581
C 16.05256 26.24015 -0.00652
C 11.03474 9.15736 0.00213
C 14.8388 25.3286 0.0058
C 16.31323 23.40086 0.00675
C 17.50985 24.2459 0.03046
C 18.69208 9.25768 0.0296
C 17.33299 8.61017 0.03374
C 17.3236 7.14883 -0.02845
C 18.45106 6.33253 -0.03213
C 18.42402 4.91552 0.02239
C 17.34314 25.6396 -0.00381
C 17.14767 4.32182 0.01153
C 18.36461 2.10458 -0.0055
C 18.384 0.72161 0.01515
C 17.2001 34.04255 -0.00225
C 19.62489 32.5442 0.00071
C 20.88195 31.84385 -0.01107
C 20.89591 30.4629 -0.01586
C 17.16244 2.82997 0.02734
C 18.41341 26.32605 0.01852
C 18.38814 27.68842 0.01126
C 17.19572 28.42015 -0.01185
C 16.2313 10.64356 -0.00311
C 16.05401 9.2348 0.00742
C 14.71226 8.75158 -0.01594
C 14.77825 7.24441 0.0106
C 16.0523 6.43633 -0.01154
C 15.91117 5.01983 -0.01721
C 14.75533 4.34683 -0.02422
C 14.77798 2.90904 0.01277
C 15.97842 2.15366 0.00096
C 15.9687 0.71455 -0.01527
C 14.76929 0.00297 0.01087
C 17.16999 32.54127 0.00199
C 18.39646 31.86254 0.01511
C 18.38826 30.46976 -0.00478
C 17.11093 29.82114 -0.01662
C 15.22597 24.03658 -0.00865
C 9.77734 25.64198 -0.05302
C 11.03906 26.10135 -0.04147
C 11.07927 27.60647 -0.02815
C 2.36449 7.15308 -0.02689
C 3.57865 6.45824 -0.01046
C 3.64619 4.997 -0.00891
C 2.36307 4.34023 0.02819
C 2.32716 2.91473 0.00165
C 3.67955 2.1785 -0.02971
C 2.32646 8.52721 -0.01536
C 3.62715 0.756 0.02894
C 4.95886 32.7436 0.00444
C 6.17092 31.98605 -0.00925
C 6.16534 30.60492 0.01877
C 4.94901 29.92563 0.01363
C 4.86817 28.43155 -0.02162
C 6.06692 27.75945 0.00415
C 2.42921 0.05671 -0.01789
C 3.58404 9.26098 0.03101
C 3.57324 10.57599 -0.00428
C 2.31456 11.32224 -0.02245
C 3.66955 30.62999 -0.00719
C 2.45099 29.89799 0.01364
C 2.40848 28.45483 -0.01062
C 3.65452 27.73971 -0.00033
C 3.64642 26.29671 0.03589
C 2.36067 25.58156 -0.02759
C 2.40746 24.1526 0.0402
C 3.7611 23.44345 0.00572
C 3.55202 22.14001 0.03592
C 2.51173 21.34826 0.00406
C 2.21877 19.97056 0.00943
C 2.27338 17.10221 0.02841
C 2.33586 15.8375 -0.01111
C 4.0663 12.84526 -0.01275
C 2.58722 12.64365 0.00985
C 6.08981 26.34118 -0.0014
C 4.9121 25.54841 0.02162
C 4.99646 24.18224 0.0076
C 4.7443 11.51227 0.01241
C 8.45361 9.3342 -0.00114
C 7.28742 8.74345 0.00228
C 7.30839 7.25121 0.00798
C 8.58903 6.45751 0.00422
C 8.61815 4.99594 0.0351
C 7.28061 4.27704 -0.03113
C 7.3413 2.92459 0.02098
C 8.56436 2.18493 0.01848
C 8.64032 0.70537 -0.00619
C 7.34378 0.08453 -0.02162
C 9.86428 32.61452 0.00889
C 11.04695 31.8911 -0.00481
C 10.98069 30.50136 0.00979
C 9.84592 29.74909 0.01443
C 9.79128 28.25838 0.03505
C 7.28479 25.63858 -0.02696
C 19.54242 29.70415 -0.01971
C 8.53431 26.20912 -0.00368
C 7.31421 28.47461 -0.01957
C 5.79478 10.76951 -0.01454
C 5.98362 9.40811 0.01945
C 4.78931 8.58493 0.01416
C 4.83478 7.19288 0.03542
C 6.12594 6.44128 0.02299
C 6.09186 5.04666 0.00244
C 4.84245 4.34354 -0.01717
C 4.86385 2.85559 0.05265
C 6.09605 2.1648 -0.01952
C 6.13097 0.75879 -0.02813
C 4.89214 34.05645 0.00374
C 7.37355 32.67419 0.00052
C 8.63844 31.93884 -0.03682
C 8.61296 30.52928 0.01965
C 7.45887 29.84419 0.02058
C 8.6209 27.66742 -0.0108
C 19.66893 28.37402 -0.02118
C 20.83654 27.65801 0.00733
C 20.86656 26.15643 -0.00178
C 31.71018 21.38697 -0.02383
C 31.78336 19.98478 -0.01429
C 32.97248 19.24635 -0.0136
C 33.02052 17.87306 0.00594
C 31.87392 16.9313 -0.02474
C 31.95718 15.80149 0.00369
C 33.11885 22.07815 0.01574
C 33.12263 14.95269 0.00455
C 31.91861 12.89562 -0.01839
C 31.57594 11.4646 0.00137
C 32.89776 10.74528 0.00199
C 33.11313 9.35022 0.04381
C 31.93921 8.53238 0.02806
C 31.91885 7.15286 0.01504
C 33.14863 13.52293 -0.00644
C 33.04138 23.53434 0.01927
C 31.7692 24.27276 0.03794
C 31.93782 25.61909 -0.01779
C 29.43829 7.20093 0.01518
C 30.68758 6.47347 0.01908
C 30.65969 5.05173 0.07705
C 29.41576 4.25063 0.0103
C 29.41863 2.92069 0.02108
C 30.64443 2.19216 0.00716
C 30.65835 0.77955 0.00307
C 29.45232 0.07686 0.00346
C 31.90046 32.76432 0.01713
C 33.18043 32.03164 -0.01694
C 33.15256 30.60335 0.01428
C 31.94534 29.91263 -0.02142
C 31.91436 28.42557 0.0544
C 33.14186 27.75058 0.00026
C 33.12185 26.29242 0.00682
C 33.12609 6.45391 -0.00069
C 33.16863 5.05195 0.04926
C 31.88646 4.31255 -0.03838
C 31.91707 2.94084 0.00349
C 34.40358 15.62487 0.02114
C 1.26466 14.92755 -0.02957
C 1.37512 13.44493 0.00343
C 34.4084 12.77633 -0.02656
C 34.23691 11.40988 -0.02442
C 1.1062 10.65802 -0.00027
C 1.07427 9.2717 -0.00583
C 34.26471 8.5186 -0.02302
C 34.40159 7.15968 -0.02849
C 1.12846 6.43558 0.02931
C 1.14096 5.038 0.00628
C 34.36386 4.25773 -0.0345
C 34.35057 2.85839 -0.00931
C 1.13195 2.2526 -0.00939
C 1.2098 0.79617 -0.00468
C 34.33642 17.00367 0.00648
C 29.36727 8.53056 -0.00971
C 1.08107 17.84664 0.01223
C 34.26362 19.93273 0.01951
C 33.11106 2.16746 -0.00323
C 33.10944 0.751 -0.00841
C 31.84344 0.08297 0.0001
C 34.33263 32.79725 -0.02927
C 1.16304 32.05827 -0.01404
C 1.18743 30.60923 0.01027
C 34.42998 29.89401 0.01831
C 34.39296 28.42671 -0.01037
C 1.26607 27.67513 -0.00439
C 1.0748 26.25371 -0.00598
C 34.35095 25.53188 -0.05239
C 34.33442 24.13201 0.03076
C 1.12828 23.44946 0.00723
C 1.13907 22.07128 0.02712
C 34.33332 21.39593 -0.02213
C 1.11639 19.1888 -0.01678
C 3.68222 32.06384 0.01641
C 30.66321 9.24014 -0.03735
C 28.9223 10.66693 -0.02155
C 23.31884 6.51642 -0.01052
C 23.37688 4.96015 -0.01679
C 22.18186 4.20763 0.00367
C 22.02995 2.85974 0.04306
C 23.25516 2.15274 0.00996
C 23.34248 0.7275 0.00195
C 22.04342 7.09231 0.00684
C 22.06323 0.03414 -0.00802
C 25.67272 31.98753 -0.01654
C 25.74571 30.51779 -0.00037
C 24.61318 29.75158 -0.0032
C 24.51278 28.28278 0.00622
C 25.80395 27.61929 -0.02815
C 25.9082 26.04801 -0.00942
C 24.49081 32.75363 -0.00218
C 22.02501 25.35439 -0.01154
C 23.2892 25.96427 -0.0264
C 23.29733 27.49721 -0.00938
C 19.63473 25.6116 0.00768
C 19.58864 8.3241 -0.0276
C 19.73702 6.99014 0.03005
C 20.87637 6.33588 -0.04078
C 20.86437 4.93146 0.02117
C 19.63155 4.17148 0.02737
C 19.60529 2.8039 -0.00498
C 20.79633 2.09969 0.00135
C 20.81973 0.73004 0.03102
C 19.68113 33.98508 0.02555
C 22.10339 32.61712 0.01423
C 23.25348 31.88934 -0.00285
C 23.34807 30.48117 -0.009
C 22.11652 29.69954 -0.01199
C 22.06796 28.3862 -0.00229
C 24.62532 25.52955 0.00487
C 24.62533 7.05198 0.00826
C 25.87791 6.56378 -0.00294
C 25.75843 5.04827 0.00152
C 26.98639 2.84161 0.02326
C 28.16868 2.18807 0.00261
C 28.20367 0.74085 0.03265
C 26.95489 0.04763 -0.02049
C 29.40041 32.72655 -0.01854
C 30.66993 32.08043 -0.01415
C 30.68412 30.67345 -0.03039
C 29.46565 29.92849 0.01836
C 29.47531 28.54159 0.03531
C 30.70267 27.77159 -0.00669
C 30.74531 26.38834 0.0101
C 29.5251 25.77438 0.01705
C 29.30495 24.38963 -0.0405
C 30.39984 23.594 -0.01303
C 30.60752 22.19349 -0.01461
C 26.91996 4.2397 0.00924
C 30.38307 10.6171 -0.00944
C 28.21394 5.03081 0.0014
C 27.12677 7.37033 0.04266
C 24.58197 4.29275 0.01257
C 24.50025 2.83651 0.02316
C 25.75188 2.14255 0.04185
C 25.69985 0.74878 0.00194
C 24.45781 0.06587 -0.00621
C 26.92137 32.71973 0.02611
C 28.19644 32.02316 0.02198
C 28.18883 30.54041 0.01094
C 26.98996 29.9094 0.00235
C 27.03169 28.46747 0.01495
C 28.28703 27.86583 0.01259
C 28.28346 26.44206 0.01799
C 27.20436 25.49687 0.01699
C 28.31942 9.53689 -0.00416
C 27.26713 8.76869 0.01177
C 28.26625 6.45162 0.01324
C 2.39809 32.79895 0.02339
