401
Graphene
C 0.01316 0.00424 0.01295
C 12.19351 32.69897 0.00165
C 13.43416 32.07816 -0.02971
C 13.49768 30.57087 0.02894
C 12.25352 29.82766 -0.01789
C 12.27119 28.42934 0.00444
C 13.51666 27.69125 -0.00925
C 13.4712 26.24367 0.01877
C 12.2606 25.58443 0.01363
C 12.2457 24.07542 -0.02162
C 13.48181 23.40249 0.00415
C 13.55475 22.00375 -0.0014
C 12.28407 21.26849 0.02162
C 12.28466 19.8748 0.0076
C 13.51513 19.11035 0.01241
C 13.46228 17.75042 -0.01454
C 12.27963 17.02807 0.01945
C 12.28062 15.64301 0.01416
C 13.51312 14.96608 0.03542
C 13.60865 13.49438 0.02299
C 12.29018 12.65993 0.00244
C 12.35199 11.24567 -0.01717
C 9.7722 0.08601 0.02819
C 13.61783 10.63026 0.05265
C 11.00232 0.82251 -0.00891
C 9.88737 2.94361 -0.02689
C 9.79538 25.58429 0.02339
C 9.81743 24.15924 0.01641
C 11.07778 23.42364 -0.00719
C 11.05648 22.01732 0.01364
C 9.88828 21.24051 -0.01062
C 9.89969 19.80451 -0.00033
C 11.095 19.15389 0.03589
C 11.05964 17.68994 -0.02759
C 9.83367 17.08129 0.0402
C 9.82668 15.56351 0.00572
C 11.05019 14.91434 0.03592
C 11.03384 13.4321 0.00406
C 9.8062 12.76281 0.00943
C 9.83819 11.30361 0.02841
C 11.10284 10.57226 -0.01111
C 11.11871 9.13118 -0.01275
C 9.81316 8.54387 0.00985
C 9.84421 7.14092 -0.02245
C 11.10275 6.45735 -0.00428
C 11.06771 5.03643 0.03101
C 9.84323 4.33973 -0.01536
C 11.10611 2.28666 -0.01046
C 11.0323 26.26968 -0.00334
C 13.37925 9.23933 -0.01952
C 12.36288 6.98102 0.00374
C 14.78266 11.42659 -0.05302
C 16.07077 0.61128 0.00213
C 14.67492 0.03878 -0.00066
C 17.23183 32.71309 -0.00289
C 18.52194 32.00757 0.00028
C 18.45975 30.64118 -0.02213
C 17.16934 29.8747 0.03698
C 17.18619 28.41221 -0.00109
C 18.39927 27.7477 -0.00491
C 18.41518 26.22849 0.03338
C 17.15744 25.53998 -0.0258
C 17.21749 24.11531 -0.0331
C 18.42001 23.4456 -0.00316
C 18.37259 22.04894 0.02188
C 17.15609 21.32921 -0.01979
C 17.21457 19.8501 0.02691
C 18.46431 19.14647 -0.01581
C 18.49288 17.74633 0.01452
C 17.3146 17.05613 0.04892
C 17.29262 15.68815 -0.00111
C 18.48066 15.05366 -0.03557
C 14.7125 12.7606 -0.04147
C 12.41257 8.45381 -0.02813
C 15.93807 13.5293 -0.02815
C 14.85164 15.64519 0.01443
C 12.27313 4.39789 0.00052
C 12.36998 2.98379 -0.03682
C 13.5124 2.15005 0.01965
C 13.40096 0.76246 0.02058
C 12.20486 0.05117 -0.01957
C 14.76308 32.68492 -0.0108
C 16.01501 32.00861 -0.00368
C 15.97921 30.61789 -0.02696
C 14.79491 29.82216 -0.00114
C 14.74234 28.40911 0.00228
C 15.98706 27.65869 0.00798
C 15.95025 26.23907 0.00422
C 14.69032 25.56529 0.0351
C 14.72723 24.11998 -0.03113
C 15.95288 23.43699 0.02098
C 15.98506 22.02503 0.01848
C 14.73918 21.27063 -0.00619
C 14.7361 19.84031 -0.02162
C 16.0229 19.13363 0.00889
C 15.96043 17.71723 -0.00481
C 14.74174 16.96452 0.00979
C 16.02555 14.94705 0.03505
C 10.99032 27.68991 -0.01634
C 9.78225 28.50819 0.00057
C 9.83701 29.8716 0.00093
C 2.40645 4.32313 0.02374
C 2.424 2.90651 0.00402
C 3.58484 2.16022 0.0073
C 3.63295 0.74842 0.0174
C 2.41639 0.04026 0.03828
C 4.86473 32.63201 0.01226
C 6.09718 32.05101 -0.00279
C 6.13844 30.58217 0.01996
C 4.90135 29.80522 -0.03996
C 4.84778 28.41042 0.01465
C 6.08387 27.70822 -0.00074
C 6.05337 26.29773 -0.00518
C 4.89893 25.56283 0.0086
C 4.94193 24.211 -0.00643
C 6.17895 23.44421 0.017
C 6.20817 22.01819 -0.03113
C 4.90655 21.27036 -0.02566
C 4.86783 19.85305 -0.00094
C 6.11678 19.19753 0.02322
C 6.07886 17.68213 -0.00725
C 4.84629 17.10719 -0.05697
C 3.66051 5.009 0.03267
C 4.87531 15.63552 0.01087
C 3.66221 6.46612 -0.01509
C 2.41867 8.54075 0.00907
C 3.58755 30.56008 -0.00039
C 2.40693 29.87621 0.0064
C 2.38121 28.3783 0.00211
C 3.67412 27.71979 -0.00449
C 3.66233 26.27088 -0.01979
C 2.44171 25.56243 0.02784
C 2.49079 24.17579 -0.01977
C 3.73569 23.38615 -0.00561
C 3.73097 22.00135 0.00208
C 2.46647 21.21498 0.01707
C 2.38674 19.80908 0.02769
C 3.63116 19.16603 -0.03291
C 3.64209 17.75531 -0.04999
C 2.39103 17.12654 0.04505
C 2.3771 15.67837 0.03284
C 3.5865 14.90123 -0.04307
C 3.63198 13.48138 0.03189
C 2.42018 12.79449 0.00031
C 2.39408 11.41068 -0.003
C 3.62362 10.67366 0.01402
C 3.59262 9.28624 0.02379
C 2.46421 7.1728 0.00643
C 6.11379 14.8903 -0.01343
C 6.17582 13.51661 0.00988
C 4.90842 12.77858 0.0276
C 8.56669 17.67946 -0.0008
C 7.38846 16.9714 0.0288
C 7.4155 15.58579 0.00393
C 8.61103 14.90856 0.00895
C 8.58585 13.45435 0.00685
C 7.38168 12.77031 0.02888
C 7.3309 11.34053 -0.00482
C 8.62863 10.68543 -0.01384
C 8.60974 9.25063 0.03693
C 7.37917 8.57097 0.01745
C 7.37395 7.17757 0.00488
C 8.58336 6.46095 -0.01004
C 8.52791 5.10005 -0.02896
C 7.38967 4.3221 -0.00131
C 7.347 2.95947 -0.01118
C 8.57742 2.2537 -0.014
C 8.55618 0.87459 0.02147
C 7.34521 0.12644 0.00373
C 9.74499 32.79098 -0.00191
C 11.00146 32.00107 0.00438
C 10.98757 30.60989 0.01291
C 8.64238 19.13509 -0.01362
C 7.44928 19.90014 -0.00892
C 7.4542 21.32557 -0.04848
C 8.64701 22.07474 0.01572
C 4.84068 11.3581 0.01305
C 6.12629 10.67856 -0.00077
C 6.10243 9.2827 0.03368
C 4.87128 8.65336 -0.02929
C 4.94782 7.16908 -0.00966
C 6.1557 6.44012 -0.03337
C 6.07916 5.07558 0.01227
C 4.87023 4.33848 0.00873
C 4.82581 2.96393 -0.00049
C 6.06741 2.20803 0.00848
C 18.45518 13.64405 0.03754
C 6.11616 0.83069 -0.01303
C 7.36977 32.7113 0.02635
C 8.55664 32.03276 0.0127
C 8.53576 30.59257 0.01396
C 7.35769 29.8906 0.01849
C 7.27967 28.39954 -0.01142
C 8.53352 27.75131 -0.00562
C 8.49644 26.26879 -0.00494
C 7.31383 25.66019 0.00054
C 7.34016 24.19504 0.03007
C 8.56446 23.43737 -0.00095
C 4.90704 0.11461 -0.01378
C 3.65542 31.99513 0.02728
C 17.4417 13.02792 0.01739
C 19.76401 32.73555 -0.0054
C 29.43759 7.08131 0.01518
C 30.64827 6.35693 0.01908
C 30.62879 4.96898 0.07705
C 29.41997 4.30562 0.0103
C 29.41941 2.88121 0.02108
C 30.71678 2.16818 0.00716
C 30.7857 0.74656 0.00307
C 29.52716 0.03105 0.00346
C 32.04162 32.65643 0.01713
C 33.25222 31.9231 -0.01694
C 33.25279 30.48156 0.01428
C 32.00777 29.76274 -0.02142
C 31.94168 28.36341 0.0544
C 33.14185 27.64476 0.00026
C 33.16228 26.23135 0.00682
C 31.94891 25.50622 -0.01779
C 31.95019 24.09973 0.03794
C 33.22652 23.3352 0.01927
C 33.13196 21.99001 0.01574
C 31.966 21.28336 -0.02383
C 31.90805 19.88153 -0.01429
C 29.45703 8.55519 -0.00971
C 33.17803 19.17247 -0.0136
C 30.74181 9.2677 -0.03735
C 29.44819 11.34656 -0.02155
C 27.05293 34.07641 -0.00416
C 29.57364 32.67858 0.01177
C 30.79356 31.99182 0.04266
C 30.85798 30.52813 0.01324
C 29.51379 29.79193 0.0014
C 29.49215 28.41632 0.00924
C 30.70258 27.63996 0.02326
C 30.70587 26.26785 0.00261
C 29.53672 25.55777 0.03265
C 29.45238 24.13694 -0.02049
C 30.65199 23.37711 -0.01854
C 30.6424 22.01613 -0.01415
C 29.43714 21.2784 -0.03039
C 29.43665 19.89043 0.01836
C 30.6207 19.17751 0.03531
C 30.65677 17.73993 -0.00669
C 29.4147 17.01384 0.0101
C 29.4308 15.63639 0.01705
C 30.6899 14.90772 -0.0405
C 30.73434 13.46595 -0.01303
C 29.51229 12.84239 -0.01461
C 30.72354 10.6514 -0.00944
C 28.3025 0.76283 0.01699
C 33.07855 17.69024 0.00594
C 31.87351 15.58603 0.00369
C 1.23918 21.91719 0.02712
C 0.00071 21.26087 -0.02213
C 34.39784 19.83816 0.01951
C 1.15151 19.15612 -0.01678
C 1.14655 17.74195 0.01223
C 34.34267 17.05083 0.00648
C 34.4246 15.59132 0.02114
C 1.17408 14.88325 -0.02957
C 1.18395 13.44248 0.00343
C 34.3675 12.7806 -0.02656
C 34.42102 11.41147 -0.02442
C 1.20483 10.67743 -0.00027
C 1.13268 9.24443 -0.00583
C 34.398 8.56264 -0.02302
C 34.40568 7.1214 -0.02849
C 1.18187 6.4536 0.02931
C 1.14457 5.07885 0.00628
C 34.37915 4.31426 -0.0345
C 34.41636 2.91537 -0.00931
C 1.22861 2.18924 -0.00939
C 1.20387 0.70782 -0.00468
C 1.28693 23.38202 0.00723
C 31.88278 17.0434 -0.02474
C 0.02862 24.07148 0.03076
C 1.20813 26.19173 -0.00598
C 33.16933 14.92409 0.00455
C 33.16947 13.51143 -0.00644
C 31.95125 12.82814 -0.01839
C 31.93041 11.29383 0.00137
C 33.1671 10.68571 0.00199
C 33.17196 9.24347 0.04381
C 31.99745 8.53177 0.02806
C 31.88861 7.11538 0.01504
C 33.08827 6.42468 -0.00069
C 33.12559 5.03925 0.04926
C 31.92811 4.28121 -0.03838
C 31.91325 2.82914 0.00349
C 33.15364 2.20409 -0.00323
C 33.24705 0.71518 -0.00841
C 32.03357 0.00979 0.0001
C 0.07727 32.6403 -0.02927
C 1.24424 31.95426 -0.01404
C 1.18795 30.52242 0.01027
C 34.43104 29.76898 0.01831
C 34.37608 28.37012 -0.01037
C 1.24251 27.64884 -0.00439
C 34.42067 25.49904 -0.05239
C 28.25402 2.13819 0.01799
C 27.00351 2.8085 0.01259
C 27.00592 4.23422 0.01495
C 23.32752 26.28759 0.00199
C 22.10618 25.6051 0.01511
C 22.06827 24.13459 -0.00478
C 23.29502 23.41944 -0.01662
C 23.28261 21.99299 -0.01185
C 22.07633 21.29348 0.01126
C 22.0593 19.89476 0.01852
C 23.25632 19.12107 -0.00381
C 23.31847 17.65004 0.03046
C 22.09393 16.9555 0.0296
C 22.10898 15.48305 0.03374
C 23.31698 14.75419 -0.02845
C 23.31345 13.29507 -0.03213
C 22.00171 12.83987 0.02239
C 23.58204 0.86967 0.01153
C 22.28234 0.05125 0.02734
C 24.6647 32.60668 -0.0055
C 25.92204 32.01083 0.01515
C 25.91264 30.55763 -0.00225
C 24.70144 29.82704 0.00071
C 24.6087 28.33389 -0.01107
C 23.3866 27.73071 0.01087
C 25.83036 27.6516 -0.01586
C 22.14356 28.46279 -0.01527
C 23.51856 30.52461 0.01277
C 21.01758 31.99097 0.00667
C 21.01892 30.56579 0.00143
C 19.66291 29.86768 -0.017
C 19.71643 28.42991 0.00364
C 20.91747 27.73387 -0.00831
C 20.91011 26.2524 -0.02957
C 19.61991 25.56084 -0.04422
C 19.61568 24.12185 0.00654
C 20.83042 23.38695 -0.00703
C 20.8337 22.0171 -0.04076
C 19.59268 21.29202 -0.00652
C 19.72537 19.85547 0.0058
C 20.87908 19.13809 -0.00865
C 20.89065 17.66428 0.00675
C 19.70286 17.05955 -0.00311
C 19.67231 15.68888 0.00742
C 20.8585 14.86109 -0.01594
C 20.93383 13.49166 0.0106
C 20.04793 0.13255 -0.01154
C 22.2274 32.67476 -0.01721
C 23.5171 31.95456 -0.02422
C 22.23125 29.84718 0.00096
C 25.78901 26.225 -0.01971
C 24.5091 25.54452 -0.02118
C 24.46677 24.11004 0.00733
C 28.23852 26.23956 -0.00802
C 26.97961 25.5246 -0.00218
C 26.95681 24.10433 -0.01654
C 28.23959 23.44494 -0.00037
C 28.19007 22.05096 -0.0032
C 26.94029 21.33006 0.00622
C 26.94842 19.88582 -0.02815
C 28.19139 19.15 -0.00942
C 28.24594 17.79632 0.00487
C 27.07615 17.01857 0.00826
C 27.06353 15.60403 -0.00294
C 28.22571 14.90197 0.00152
C 28.29051 13.4764 0.01257
C 27.03253 12.75907 0.02316
C 26.94408 11.29837 0.04185
C 28.17916 10.59369 0.00194
C 28.2815 9.24684 -0.00621
C 27.05431 8.54541 0.02611
C 27.02393 7.1176 0.02198
C 28.21744 6.36169 0.01094
C 28.20433 5.00502 0.00235
C 28.27224 27.65156 0.00195
C 27.11571 28.3141 0.00996
C 27.13409 29.7864 0.04306
C 28.33318 30.49203 0.00367
C 25.77053 23.37102 -0.00178
C 25.6408 21.91767 0.00768
C 24.50001 21.24694 -0.0276
C 24.53566 19.8029 0.03005
C 25.72429 19.07956 -0.04078
C 25.77231 17.66971 0.02117
C 24.57259 16.92556 0.02737
C 24.62839 15.47962 -0.00498
C 25.91259 14.86501 0.00135
C 25.79752 13.40742 0.03102
C 17.12316 0.06008 0.00755
C 24.54863 12.70641 0.02555
C 25.68078 10.51724 -0.00285
C 25.90219 9.16367 -0.009
C 25.80213 6.41156 -0.01199
C 25.83869 5.18978 -0.00229
C 24.3738 2.52596 -0.00938
C 25.73766 2.11142 -0.0264
C 25.89641 0.72986 -0.01154
C 24.58342 34.04928 0.00684
C 27.24369 32.68497 -0.01052
C 28.41039 31.90883 -0.01679
C 24.61304 11.32033 0.01423
C 2.43169 32.67425 0.00245
