364
Graphene
C 34.43138 0.02837 0.01295
C 9.87294 11.29879 0.00052
C 11.0578 10.70284 -0.03682
C 11.05873 9.29397 0.01965
C 9.86299 8.54524 0.02058
C 9.93472 7.12807 -0.01957
C 11.12428 6.40816 -0.0108
C 10.99533 4.92929 -0.00368
C 9.78384 4.22843 -0.02696
C 9.7692 12.64608 0.00374
C 9.83622 2.78713 -0.00114
C 11.11135 0.71094 0.00798
C 9.87066 34.07453 0.00422
C 12.37134 32.62743 0.0351
C 13.52903 31.87035 -0.03113
C 12.26982 29.96811 0.02098
C 12.29291 21.21858 0.01848
C 12.32845 19.81967 -0.00619
C 13.47055 19.05714 -0.02162
C 11.13004 2.04213 0.00228
C 10.97631 13.43986 -0.02813
C 11.06271 14.91844 -0.01952
C 9.81334 15.55581 0.05265
C 8.54766 2.22142 0.02894
C 8.51893 0.79308 -0.01789
C 7.37404 0.06643 0.00444
C 9.87672 32.69093 -0.00925
C 11.09614 31.99323 0.01877
C 11.09428 30.54734 0.01363
C 9.80655 29.8457 -0.02162
C 9.89361 28.41589 0.00415
C 11.08796 27.677 -0.0014
C 11.06121 26.50184 0.02162
C 9.84097 25.62883 0.0076
C 9.85789 24.18434 0.01241
C 11.04835 23.37223 -0.01454
C 11.16618 21.9885 0.01945
C 9.87078 21.29521 0.01416
C 9.92861 19.87968 0.03542
C 11.02123 19.09249 0.02299
C 11.05202 17.74542 0.00244
C 9.87024 16.96807 -0.01717
C 13.46365 17.74811 0.00889
C 12.30747 17.00271 -0.00481
C 12.36699 15.63213 0.00979
C 13.51447 14.9323 0.01443
C 14.78282 11.43274 -0.03557
C 15.94712 10.72537 0.03754
C 15.94619 9.27148 0.01739
C 14.74373 8.45591 0.00755
C 14.75649 7.05375 -0.0054
C 16.00931 6.41149 0.00667
C 15.97713 4.95485 0.00143
C 14.73592 4.2884 -0.017
C 14.75211 2.84354 0.00364
C 15.98934 2.15244 -0.00831
C 16.00275 0.77517 -0.02957
C 14.74085 34.06755 -0.04422
C 17.20576 32.60283 0.00654
C 18.40136 31.94745 -0.00703
C 18.56028 19.07988 -0.04076
C 18.3999 17.74149 -0.00652
C 17.20732 16.99291 0.0058
C 17.24922 15.55339 -0.00865
C 18.471 14.82479 0.00675
C 14.69363 12.81822 -0.00111
C 7.31641 2.86036 -0.02971
C 15.9547 13.50948 0.04892
C 14.70261 15.70209 -0.01581
C 13.50566 13.5624 0.03505
C 12.26404 12.80873 -0.02815
C 12.32932 11.34451 -0.04147
C 13.57034 10.62962 -0.05302
C 13.54146 9.25684 0.00213
C 12.30469 8.58602 -0.00066
C 12.37253 7.12537 -0.00289
C 13.52342 6.36716 0.00028
C 13.49612 4.93096 -0.02213
C 12.25759 4.20076 0.03698
C 12.31459 2.8401 -0.00109
C 13.58387 2.17262 -0.00491
C 13.52031 0.70353 0.03338
C 12.26647 34.06199 -0.0258
C 14.69965 32.63059 -0.0331
C 15.98107 31.99144 -0.00316
C 15.8603 19.15691 0.02188
C 15.98223 17.82166 -0.01979
C 14.77727 17.02988 0.02691
C 15.94259 14.88969 0.01452
C 18.43474 13.4098 -0.00311
C 7.30824 4.26015 0.00165
C 8.64567 6.37018 -0.00891
C 3.63365 6.37253 -0.01303
C 3.73934 4.95086 -0.01378
C 2.51725 4.31685 0.02635
C 2.47072 2.89692 0.0127
C 3.73029 2.13422 0.01396
C 3.66046 0.7108 0.01849
C 2.42895 34.06995 -0.01142
C 4.94219 32.73531 -0.00562
C 2.44726 7.03185 0.00848
C 6.12021 32.03031 -0.00494
C 4.86588 29.8561 0.03007
C 4.86648 28.41523 -0.00095
C 6.16177 27.72154 0.01572
C 6.15317 26.33171 -0.04848
C 4.9499 25.53163 -0.00892
C 4.93569 24.1576 -0.01362
C 6.14296 23.43006 -0.0008
C 6.13873 22.0464 0.0288
C 6.04518 30.60276 0.00054
C 2.48295 8.54114 -0.00049
C 3.66044 9.21314 0.00873
C 3.64777 10.66805 0.01227
C 3.6354 30.53745 0.0086
C 2.49374 29.7957 -0.00643
C 2.53109 28.37907 0.017
C 3.67578 27.65675 -0.03113
C 3.76981 26.21828 -0.02566
C 2.48038 25.54582 -0.00094
C 2.40296 24.17416 0.02322
C 3.62643 23.54738 -0.00725
C 3.71593 22.02392 -0.05697
C 2.4901 21.29996 0.01087
C 2.46356 19.92294 -0.01343
C 3.75314 19.15988 0.00988
C 3.69439 17.7156 0.0276
C 2.47915 16.9976 0.01305
C 2.3788 15.57927 -0.00077
C 3.64401 14.99752 0.03368
C 3.62754 13.59384 -0.02929
C 2.43593 12.81641 -0.00966
C 2.48568 11.42708 -0.03337
C 4.92287 21.24325 0.00393
C 4.96814 19.8759 0.00895
C 6.19375 19.22741 0.00685
C 6.15552 17.82642 0.02888
C 8.5643 26.25946 -0.01062
C 7.32596 25.52343 -0.00033
C 7.37396 24.11641 0.03589
C 8.64575 23.44118 -0.02759
C 8.62826 21.98422 0.0402
C 7.38662 21.37902 0.00572
C 7.40027 19.96213 0.03592
C 8.58329 19.18907 0.00406
C 8.69459 17.75216 0.00943
C 7.45626 17.04024 0.02841
C 7.4104 15.66788 -0.01111
C 8.56469 14.76846 -0.01275
C 8.56359 13.41481 0.00985
C 7.29963 12.79006 -0.02245
C 7.32656 11.32725 -0.00428
C 8.58495 10.6203 0.03101
C 8.6027 9.25364 -0.01536
C 7.36234 8.55678 -0.02689
C 7.42118 7.0219 -0.01046
C 8.60417 27.73067 0.01364
C 8.5789 4.97363 0.02819
C 7.36395 28.47866 -0.00719
C 8.58475 30.52543 0.02339
C 4.93043 17.06063 -0.00482
C 4.96708 15.69224 -0.01384
C 6.1342 14.93486 0.03693
C 6.10926 13.55905 0.01745
C 4.93377 12.79444 0.00488
C 4.91139 11.42413 -0.01004
C 6.09917 10.69714 -0.02896
C 6.16744 9.30538 -0.00131
C 4.90052 8.64724 -0.01118
C 4.90534 7.17403 -0.014
C 6.16679 6.43267 0.02147
C 6.08709 5.00581 0.00373
C 4.92257 4.28146 -0.00191
C 4.91674 2.84748 0.00438
C 6.18116 2.11692 0.01291
C 6.09949 0.75109 0.00093
C 4.88255 0.07714 0.00057
C 7.38999 32.67463 -0.01634
C 8.53918 31.95959 -0.00334
C 7.3164 29.88752 0.01641
C 17.19893 12.71835 0.00742
C 17.21107 11.37126 -0.01594
C 18.40566 10.66863 0.0106
C 30.66541 6.42521 0.00346
C 30.79808 5.02761 0.01713
C 29.55333 4.21156 -0.01694
C 29.50645 2.83358 0.01428
C 30.69596 2.11578 -0.02142
C 30.74298 0.7135 0.0544
C 29.49887 0.02277 0.00026
C 31.88524 32.66344 0.00682
C 29.45285 7.0985 0.00307
C 33.13677 31.90431 -0.01779
C 31.97086 29.87379 0.01927
C 31.94075 28.39882 0.01574
C 33.20711 27.72034 -0.02383
C 33.21478 26.29148 -0.01429
C 33.23193 19.1643 -0.0136
C 33.16334 17.81 0.00594
C 31.9955 16.9992 -0.02474
C 31.98658 15.69718 0.00369
C 33.19775 30.49267 0.03794
C 29.49371 8.51777 0.00716
C 30.71794 9.22306 0.02108
C 30.66675 10.70881 0.0103
C 28.31477 6.39075 -0.02049
C 28.33707 4.88277 -0.01854
C 27.13909 4.23045 -0.01415
C 27.06029 2.86266 -0.03039
C 28.28147 2.16813 0.01836
C 28.30041 0.73254 0.03531
C 27.05956 34.07465 -0.00669
C 29.48819 32.65492 0.0101
C 30.67889 31.99829 0.01705
C 30.79329 30.56692 -0.0405
C 29.5357 29.71766 -0.01303
C 29.6315 28.30793 -0.01461
C 30.69661 27.76598 -0.02155
C 29.54791 17.07898 -0.00944
C 29.50662 15.60136 -0.03735
C 30.72493 14.90646 -0.00971
C 30.76319 13.45764 0.01518
C 29.46173 12.74866 0.01908
C 29.43465 11.39781 0.07705
C 33.17179 14.87687 0.00455
C 33.14918 13.49229 -0.00644
C 31.99519 12.74225 -0.01839
C 31.93573 11.3078 0.00137
C 34.41392 19.91846 0.01951
C 1.24146 19.18977 -0.01678
C 1.29481 17.73785 0.01223
C 0.00849 16.96814 0.00648
C 0.01275 15.57418 0.02114
C 1.22883 14.85975 -0.02957
C 1.19007 13.45486 0.00343
C 34.42403 12.78164 -0.02656
C 34.39803 11.34516 -0.02442
C 1.21086 10.68665 -0.00027
C 1.25592 9.32618 -0.00583
C 0.0026 8.56331 -0.02302
C 0.00291 7.17353 -0.02849
C 1.18313 6.4093 0.02931
C 1.23951 4.97296 0.00628
C 0.00302 4.26459 -0.0345
C 0.06988 2.86476 -0.00931
C 1.27718 2.12248 -0.00939
C 1.21553 0.67977 -0.00468
C 0.05072 21.37649 -0.02213
C 27.05251 7.09742 0.03265
C 1.25185 22.0928 0.02712
C 34.3585 24.04984 0.03076
C 33.15004 10.6191 0.00199
C 33.21147 9.21435 0.04381
C 31.99788 8.52463 0.02806
C 31.8998 7.05665 0.01504
C 33.12456 6.39798 -0.00069
C 33.17738 4.92676 0.04926
C 31.93415 4.2592 -0.03838
C 31.93436 2.76887 0.00349
C 33.22314 2.21158 -0.00323
C 33.22241 0.78868 -0.00841
C 31.98303 34.07193 0.0001
C 34.39885 32.6475 -0.02927
C 1.1722 31.91741 -0.01404
C 1.16581 30.53633 0.01027
C 0.01051 29.8401 0.01831
C 0.0688 28.35007 -0.01037
C 1.26956 27.72135 -0.00439
C 1.21181 26.30592 -0.00598
C 34.37411 25.54255 -0.05239
C 1.14615 23.50046 0.00723
C 27.00989 8.54012 0.00261
C 28.22304 9.22904 0.02326
C 28.2809 10.67957 0.00924
C 19.64537 7.07474 -0.0055
C 20.87429 6.35901 0.01515
C 20.89672 4.94255 -0.00225
C 19.62689 4.24272 0.00071
C 19.65121 2.88191 -0.01107
C 20.86898 2.23909 -0.01586
C 20.85736 0.67536 -0.01971
C 19.66569 34.02487 -0.02118
C 22.04009 32.63303 0.00733
C 23.31737 31.98365 -0.00178
C 23.44304 30.57124 0.00768
C 22.00457 21.19549 -0.0276
C 22.05923 19.90555 0.03005
C 23.35603 19.16232 -0.04078
C 23.37356 17.72756 0.02117
C 22.11052 17.00492 0.02737
C 22.15605 15.57724 -0.00498
C 23.3934 14.87823 0.00135
C 23.40792 13.50046 0.03102
C 19.66772 8.51016 0.02734
C 22.20615 12.71393 0.02555
C 20.87824 9.21457 0.01153
C 19.62562 11.35514 -0.03213
C 18.44437 9.22308 -0.01154
C 17.25489 8.52777 -0.01721
C 17.20504 7.14778 -0.02422
C 18.32018 6.37179 0.01277
C 18.347 4.96165 0.00096
C 17.17949 4.1495 -0.01527
C 17.19978 2.81846 0.01087
C 18.48402 2.10012 0.00199
C 18.46734 0.67799 0.01511
C 17.12782 0.0425 -0.00478
C 19.59026 32.48913 -0.01662
C 20.90817 31.95606 -0.01185
C 20.8868 19.06167 0.01126
C 20.94989 17.7186 0.01852
C 19.72395 16.95646 -0.00381
C 19.73577 15.58628 0.03046
C 20.94112 14.86821 0.0296
C 20.92869 13.39094 0.03374
C 19.624 12.71862 -0.02845
C 20.89634 10.64493 0.02239
C 3.72606 31.92466 -0.00518
C 22.23025 11.28658 0.01423
C 23.35939 9.14532 -0.009
C 24.5981 8.53957 0.00152
C 24.62379 7.10411 0.01257
C 25.8525 6.36173 0.02316
C 25.8697 4.9636 0.04185
C 24.58091 4.25601 0.00194
C 24.60456 2.83707 -0.00621
C 25.89034 2.14204 0.02611
C 25.9203 0.74715 0.02198
C 24.65282 0.0561 0.01094
C 27.04001 32.66454 0.00235
C 28.31864 31.88283 0.01495
C 28.29908 30.48827 0.01259
C 27.07704 29.83227 0.01799
C 26.93778 28.4603 0.01699
C 26.98286 15.58612 -0.00416
C 28.25106 14.97531 0.01177
C 28.21992 13.53482 0.04266
C 27.0613 12.77173 0.01324
C 27.09856 11.39108 0.0014
C 25.78747 9.31579 -0.00294
C 23.37855 10.56122 -0.00285
C 25.86282 10.74215 0.00826
C 24.62803 12.76603 -0.00942
C 22.14295 8.48434 -0.01199
C 22.10457 7.04195 -0.00229
C 23.36753 6.42696 -0.00938
C 23.44184 5.016 -0.0264
C 22.22101 4.28622 -0.01154
C 22.1351 2.89248 0.00684
C 23.36876 2.11915 -0.01052
C 23.35925 0.68357 -0.01679
C 22.04916 34.07568 0.00367
C 24.5073 32.67713 0.04306
C 25.76495 31.95877 0.00996
C 25.79878 30.52802 0.00195
C 24.54922 29.75072 -0.00802
C 24.59567 28.26918 -0.00218
C 25.78366 27.84821 -0.01654
C 24.53064 17.02937 -0.00037
C 24.54392 15.62019 -0.0032
C 25.79406 14.94386 0.00622
C 25.82978 13.50293 -0.02815
C 24.59561 11.33895 0.00487
C 2.45735 32.66654 -0.00074
