306
Graphene
C 34.34629 0.0283 0.01295
C 9.8386 24.16449 0.02691
C 11.0884 23.24307 -0.01581
C 11.06246 21.68125 0.01452
C 9.69684 21.17583 0.04892
C 9.63572 11.33453 -0.00111
C 10.95187 11.02754 -0.03557
C 10.97801 9.40594 0.03754
C 9.74306 8.57531 0.01739
C 9.75088 7.17952 0.00755
C 10.97673 6.47508 -0.0054
C 10.99044 5.00621 0.00667
C 9.75821 4.24538 0.00143
C 9.81645 2.86025 -0.017
C 11.10557 2.15406 0.00364
C 11.05273 0.62465 -0.00831
C 9.837 25.54165 -0.01979
C 9.81432 34.00199 -0.02957
C 11.11199 26.23307 0.02188
C 9.86463 28.31013 -0.0331
C 8.47695 10.66817 0.01443
C 8.51236 9.2115 0.03505
C 7.30389 8.57272 -0.02815
C 7.29063 7.11041 -0.04147
C 8.53455 6.43844 -0.05302
C 8.59218 4.96405 0.00213
C 7.33147 4.32595 -0.00066
C 7.25007 2.82826 -0.00289
C 8.5958 2.06616 0.00028
C 8.6642 0.65211 -0.02213
C 7.48186 34.01094 0.03698
C 9.94378 32.61066 -0.00109
C 11.18907 31.8893 -0.00491
C 11.16249 30.48932 0.03338
C 9.85903 29.7762 -0.0258
C 11.12997 27.71031 -0.00316
C 7.28799 11.38727 0.00979
C 12.43108 32.64669 -0.04422
C 13.64403 30.51183 -0.00703
C 13.59088 0.78009 -0.01662
C 12.34809 34.04629 -0.01185
C 14.88703 32.63517 0.01126
C 16.09211 31.95364 0.01852
C 16.17654 30.5218 -0.00381
C 14.91597 29.85726 0.03046
C 14.9086 28.4517 0.0296
C 16.2211 27.69344 0.03374
C 16.10663 26.28486 -0.02845
C 14.86961 25.50572 -0.03213
C 14.84981 24.16339 0.02239
C 15.92779 23.13793 0.01153
C 15.90243 21.95819 0.02734
C 14.68266 21.16998 -0.0055
C 14.31292 19.69857 0.01515
C 13.53106 2.16695 -0.00478
C 13.63094 31.97474 0.00654
C 12.30403 2.93077 0.01511
C 13.43707 4.99575 0.01087
C 12.45668 29.85322 -0.04076
C 12.40385 28.46303 -0.00652
C 13.61248 27.70751 0.0058
C 13.5587 26.22731 -0.00865
C 12.35503 25.53476 0.00675
C 12.25798 24.07763 -0.00311
C 13.5137 23.40931 0.00742
C 13.51983 21.93647 -0.01594
C 12.33932 21.12631 0.0106
C 12.31304 11.39859 -0.01154
C 13.53534 10.62877 -0.01721
C 13.45779 9.24299 -0.02422
C 12.16871 8.65379 0.01277
C 12.15545 7.13692 0.00096
C 13.33095 6.37581 -0.01527
C 12.22289 4.28096 0.00199
C 7.44606 12.84565 -0.00481
C 7.41591 19.93708 0.00889
C 7.3683 21.33511 -0.02162
C 3.63567 10.87711 0.02841
C 3.62467 9.29912 -0.01111
C 2.42172 8.60362 -0.01275
C 2.35919 7.16414 0.00985
C 3.61959 6.48251 -0.02245
C 3.61101 5.02409 -0.00428
C 2.34141 4.3187 0.03101
C 2.35181 2.84724 -0.01536
C 3.58702 2.12623 -0.02689
C 3.58872 0.69729 -0.01046
C 2.32656 0.025 -0.00891
C 4.91027 32.60964 0.02819
C 6.22542 31.95794 0.00165
C 6.23461 30.58 -0.02971
C 4.95517 29.86583 0.02894
C 2.35515 11.4893 0.00943
C 4.86713 28.41179 -0.01789
C 2.45551 12.93235 0.00406
C 3.71351 14.98525 0.00572
C 3.68417 30.55432 0.00438
C 2.41203 29.81164 0.01291
C 2.44346 28.37201 0.00093
C 3.61629 27.70345 0.00057
C 3.64398 26.23646 -0.01634
C 2.37565 25.52765 -0.00334
C 2.42028 24.11918 0.02339
C 3.65133 23.42221 0.01641
C 3.6782 22.03994 -0.00719
C 2.45586 21.34789 0.01364
C 2.47393 19.91162 -0.01062
C 3.67543 19.17833 -0.00033
C 3.66762 17.75737 0.03589
C 2.43973 17.16981 -0.02759
C 2.44402 15.74925 0.0402
C 3.68697 13.5847 0.03592
C 6.10777 27.66819 0.00444
C 6.14104 26.20609 -0.00925
C 4.90288 25.51723 0.01877
C 4.79009 2.80219 0.01965
C 6.04855 2.02966 0.02058
C 6.17645 0.624 -0.01957
C 4.85886 34.03176 -0.0108
C 7.42957 32.68835 -0.00368
C 8.67318 31.93637 -0.02696
C 8.65504 30.52095 -0.00114
C 7.41317 29.84053 0.00228
C 7.40478 28.36591 0.00798
C 8.55356 27.62578 0.00422
C 8.62758 26.16694 0.0351
C 7.35258 25.60505 -0.03113
C 7.3809 24.22151 0.02098
C 8.55941 23.41498 0.01848
C 8.63849 21.99712 -0.00619
C 4.8104 4.24772 -0.03682
C 6.01801 4.93241 0.00052
C 6.04708 6.37473 0.00374
C 4.83204 7.13732 -0.02813
C 4.88775 24.08002 0.01363
C 6.11445 23.43173 -0.02162
C 6.13487 22.01263 0.00415
C 4.89663 21.29711 -0.0014
C 4.96063 19.84531 0.02162
C 6.30614 19.15445 0.0076
C 6.07374 17.76627 0.01241
C 15.48903 18.82638 -0.00225
C 4.91812 17.03732 -0.01454
C 6.23849 15.02639 0.01416
C 6.29337 13.61776 0.03542
C 4.99839 12.91369 0.02299
C 4.87284 11.4507 0.00244
C 6.04416 10.65607 -0.01717
C 6.05253 9.27548 0.05265
C 4.82093 8.53728 -0.01952
C 4.97002 15.65589 0.01945
C 15.93675 17.50047 0.00071
C 15.91631 14.80455 -0.01107
C 14.82768 14.04027 -0.01586
C 33.11317 23.46423 0.01927
C 33.22121 22.10025 0.01574
C 32.00035 21.50947 -0.02383
C 31.98525 20.09116 -0.01429
C 33.13086 19.3232 -0.0136
C 33.06157 17.90805 0.00594
C 31.82417 17.2849 -0.02474
C 31.81329 15.82874 0.00369
C 33.10701 15.10884 0.00455
C 33.10117 13.64409 -0.00644
C 31.76996 12.98848 -0.01839
C 31.97758 11.56955 0.00137
C 33.15622 10.82175 0.00199
C 33.15151 9.4423 0.04381
C 32.00819 8.64827 0.02806
C 31.87084 24.14366 0.03794
C 31.83903 7.47224 0.01504
C 31.94104 25.56028 -0.01779
C 33.01691 27.74081 0.00026
C 30.45986 18.15552 -0.03735
C 29.29731 17.32749 -0.00971
C 29.28485 16.03685 0.01518
C 30.64131 15.12051 0.01908
C 30.56419 13.78071 0.07705
C 30.22637 4.23081 0.0103
C 29.53261 3.08621 0.02108
C 30.6954 2.09697 0.00716
C 30.6988 0.75565 0.00307
C 29.50717 0.0048 0.00346
C 31.77874 32.60438 0.01713
C 33.10854 32.00872 -0.01694
C 33.0687 30.59898 0.01428
C 31.82774 29.84873 -0.02142
C 31.83609 28.46052 0.0544
C 33.17039 26.29911 0.00682
C 32.95763 6.48823 -0.00069
C 32.88486 5.04804 0.04926
C 31.57569 4.17635 -0.03838
C 34.31834 15.75818 0.02114
C 1.21031 15.04667 -0.02957
C 1.23931 13.60942 0.00343
C 34.40486 12.94362 -0.02656
C 34.39753 11.54342 -0.02442
C 1.20559 10.75924 -0.00027
C 1.18747 9.299 -0.00583
C 34.34852 8.60202 -0.02302
C 34.27327 7.16706 -0.02849
C 1.07884 6.36585 0.02931
C 1.0747 4.96448 0.00628
C 34.25989 4.28158 -0.0345
C 34.36724 2.81956 -0.00931
C 1.13054 2.1696 -0.00939
C 1.09233 0.72194 -0.00468
C 34.35545 17.15663 0.00648
C 1.16916 17.80894 0.01223
C 1.26544 19.20774 -0.01678
C 0.00819 19.89134 0.01951
C 31.87034 2.85502 0.00349
C 33.14603 2.12355 -0.00323
C 33.11875 0.71161 -0.00841
C 31.93939 0.042 0.0001
C 34.33923 32.70455 -0.02927
C 1.17776 31.98974 -0.01404
C 1.21591 30.48656 0.01027
C 30.54362 19.62313 -0.00944
C 34.33184 29.83879 0.01831
C 1.16372 27.70383 -0.00439
C 1.17337 26.25449 -0.00598
C 34.35399 25.59598 -0.05239
C 34.35391 24.17606 0.03076
C 1.15541 23.43442 0.00723
C 1.23527 22.0434 0.02712
C 0.0001 21.37356 -0.02213
C 34.31429 28.40063 -0.01037
C 3.68062 31.95267 -0.00191
C 29.84833 20.63106 -0.02155
C 30.52864 23.33482 -0.01303
C 18.11832 19.27413 -0.00938
C 18.44364 17.96053 -0.0264
C 17.21604 17.01634 -0.01154
C 17.15501 15.49973 0.00684
C 18.65252 14.68063 -0.01052
C 18.5057 13.30348 -0.01679
C 18.11184 12.05052 0.00367
C 17.25715 11.08807 0.04306
C 16.83665 7.89156 0.00996
C 17.15946 4.27792 0.00195
C 17.26755 2.96435 -0.00802
C 18.5561 2.27447 -0.00218
C 18.46176 0.76912 -0.01654
C 17.28773 0.02609 -0.00037
C 19.72431 32.75998 -0.0032
C 16.80041 19.55192 -0.00229
C 20.87689 31.74228 0.00622
C 17.38096 28.45449 -0.01199
C 18.6176 30.47861 -0.00285
C 14.48313 12.73872 -0.01971
C 14.73733 11.29682 -0.02118
C 15.91869 10.47179 0.00733
C 15.77919 9.07533 -0.00178
C 14.56073 8.40483 0.00768
C 14.61704 6.97531 -0.0276
C 15.99704 6.64088 0.03005
C 16.08865 5.24657 -0.04078
C 14.73033 4.48425 0.02117
C 14.7104 2.9936 0.02737
C 15.99886 2.23252 -0.00498
C 16.02517 0.74749 0.00135
C 14.81825 0.05178 0.03102
C 17.32356 32.67386 0.02555
C 18.52555 32.06501 0.01423
C 17.47395 29.77085 -0.009
C 20.00707 30.58544 -0.02815
C 19.4723 16.98926 -0.00942
C 19.71595 15.82581 0.00487
C 28.16343 26.2744 0.0014
C 28.16918 23.33073 0.00924
C 28.67145 14.82444 0.02326
C 28.49794 2.24205 0.00261
C 28.32543 0.91545 0.03265
C 27.05583 0.07622 -0.02049
C 29.43084 32.67136 -0.01854
C 30.56475 31.92471 -0.01415
C 30.50885 30.50349 -0.03039
C 29.24089 29.81328 0.01836
C 29.29459 28.4031 0.03531
C 30.54131 27.74248 -0.00669
C 30.60788 26.30868 0.0101
C 29.38609 25.52974 0.01705
C 29.34741 24.09345 -0.0405
C 27.88245 27.66125 0.01324
C 26.87591 28.51423 0.04266
C 26.77033 29.86983 0.01177
C 28.05963 30.56266 -0.00416
C 19.91232 2.75506 0.00826
C 20.87143 2.01074 -0.00294
C 20.98021 0.64618 0.00152
C 19.75446 0.10924 0.01257
C 22.14053 32.30894 0.02316
C 23.54783 31.77523 0.04185
C 24.11585 30.55165 0.00194
C 30.65135 21.96798 -0.01461
C 23.24305 0.4576 -0.00621
C 24.4696 32.80981 0.02198
C 25.75911 32.18369 0.01094
C 25.73286 30.69324 0.00235
C 25.82536 0.75073 0.01495
C 24.63478 0.24138 0.01259
C 27.01283 32.75756 0.01799
C 28.15938 31.97168 0.01699
C 22.03912 33.88962 0.02611
C 2.40955 32.67841 0.00373
