338
Graphene
C 0.00865 0.01919 0.01295
C 9.72695 8.54561 0.00889
C 9.7879 7.06499 -0.00481
C 11.00646 6.41555 0.00979
C 11.0584 5.06973 0.01443
C 9.80322 4.33652 0.03505
C 9.82369 2.90844 -0.02815
C 11.00726 2.10181 -0.04147
C 10.98714 0.61785 -0.05302
C 9.80928 34.04369 0.00213
C 12.28893 32.62487 -0.00066
C 13.58566 26.2615 -0.00289
C 12.37456 25.64123 0.00028
C 12.39398 24.18569 -0.02213
C 13.59494 23.4949 0.03698
C 13.54161 21.91716 -0.00109
C 12.38897 21.1654 -0.00491
C 12.17047 19.76423 0.03338
C 11.03408 9.13284 -0.02162
C 13.5386 8.91975 -0.0258
C 10.97673 19.1946 -0.00619
C 9.93877 21.21888 0.02098
C 8.54827 6.48656 -0.01952
C 8.57948 5.01952 -0.02813
C 7.37554 4.35036 0.00374
C 7.42476 2.95335 0.00052
C 8.63428 2.21667 -0.03682
C 8.65164 0.75428 0.01965
C 7.4162 0.07698 0.02058
C 9.87045 32.50466 -0.01957
C 11.09499 31.85674 -0.0108
C 9.94331 30.05121 -0.00368
C 9.97697 28.613 -0.02696
C 10.98794 27.69879 -0.00114
C 11.13503 26.2671 0.00228
C 9.87969 25.62435 0.00798
C 9.95845 24.13601 0.00422
C 11.21411 23.36816 0.0351
C 11.12856 21.94607 -0.03113
C 9.74728 19.80954 0.01848
C 7.35543 7.168 0.05265
C 12.24994 8.69784 -0.0331
C 13.48838 6.3657 0.02188
C 15.99274 6.4186 -0.00652
C 16.00106 4.98626 0.0058
C 14.79384 4.32459 -0.00865
C 14.66631 2.91806 0.00675
C 15.92349 2.09608 -0.00311
C 15.9228 0.70638 0.00742
C 14.6347 0.05531 -0.01594
C 17.14091 32.63715 0.0106
C 18.41196 31.90827 -0.01154
C 18.41635 30.53746 -0.01721
C 17.20649 29.83599 -0.02422
C 17.20728 28.44834 0.01277
C 18.38053 27.76655 0.00096
C 18.39268 26.28342 -0.01527
C 17.26544 25.58043 0.01087
C 17.21629 24.19143 0.00199
C 18.46988 10.69298 0.01511
C 14.69718 6.9907 -0.04076
C 12.27706 7.08673 -0.00316
C 14.83234 8.47493 -0.00703
C 15.92912 18.94798 -0.04422
C 13.49851 4.96887 -0.01979
C 12.26956 4.21678 0.02691
C 12.19261 2.81815 -0.01581
C 13.44555 2.20904 0.01452
C 13.43425 0.73597 0.04892
C 12.20623 34.00514 -0.00111
C 14.67219 32.65947 -0.03557
C 15.77207 31.86793 0.03754
C 15.96262 30.44352 0.01739
C 16.03703 27.69735 0.00755
C 16.0228 26.35173 -0.0054
C 14.8225 25.58298 0.00667
C 14.87157 24.16014 0.00143
C 16.20226 23.30874 -0.017
C 15.80725 22.0044 0.00364
C 14.67658 21.25955 -0.00831
C 15.06141 19.97401 -0.02957
C 15.97797 9.20178 0.00654
C 7.33104 8.59251 -0.01717
C 8.57272 9.27014 0.00244
C 8.50089 10.65963 0.02299
C 2.39596 8.54291 0.03693
C 2.41737 7.09362 0.01745
C 3.639 6.40671 0.00488
C 3.60241 4.94584 -0.01004
C 2.38204 4.19761 -0.02896
C 2.45529 2.72068 -0.00131
C 3.7171 2.11139 -0.01118
C 3.78949 0.69834 -0.014
C 2.49719 33.98876 0.02147
C 4.93311 32.69808 0.00373
C 6.19628 31.95075 -0.00191
C 6.10213 30.60579 0.00438
C 4.92791 29.81654 0.01291
C 4.91207 28.40996 0.00093
C 6.09643 27.63966 0.00057
C 6.11858 26.29361 -0.01634
C 4.85416 25.58346 -0.00334
C 3.62584 9.21315 -0.01384
C 4.8514 24.17035 0.02339
C 3.67394 10.6598 -0.00482
C 2.5326 12.7318 0.00685
C 3.703 30.57353 0.0127
C 2.46162 29.83125 0.01396
C 2.42413 28.45238 0.01849
C 3.64741 27.77011 -0.01142
C 3.68514 26.31185 -0.00562
C 2.40817 25.57276 -0.00494
C 2.36798 24.1513 0.00054
C 3.62681 23.44285 0.03007
C 3.72996 21.97943 -0.00095
C 2.47688 21.29921 0.01572
C 2.47329 19.8285 -0.04848
C 3.66874 19.04206 -0.00892
C 3.59582 17.67263 -0.01362
C 2.42029 17.01278 -0.0008
C 2.42283 15.61918 0.0288
C 3.61945 14.88771 0.00393
C 3.70617 13.54431 0.00895
C 2.43788 11.38185 0.02888
C 6.08988 23.40098 0.01641
C 6.04753 21.97755 -0.00719
C 4.89387 21.21182 0.01364
C 8.56888 30.52603 -0.02971
C 7.40023 29.90944 0.02894
C 7.34922 28.40734 -0.01789
C 8.66626 27.79573 0.00444
C 8.6789 26.35341 -0.00925
C 7.37997 25.51367 0.01877
C 7.38832 24.17904 0.01363
C 8.6698 23.44487 -0.02162
C 8.6702 21.99827 0.00415
C 7.40767 21.28629 -0.0014
C 7.30846 19.87394 0.02162
C 8.51864 19.12488 0.0076
C 8.56359 17.71321 0.01241
C 7.42761 16.87024 -0.01454
C 7.33238 15.52818 0.01945
C 7.32012 12.92093 0.01416
C 7.58784 11.57386 0.03542
C 8.6226 31.90766 0.00165
C 7.38174 32.7198 0.02819
C 4.97816 0.05307 -0.00891
C 6.21739 0.79121 -0.01046
C 4.90188 19.82279 -0.01062
C 6.10628 19.0965 -0.00033
C 6.19056 17.65781 0.03589
C 4.95832 17.04606 -0.02759
C 4.83589 15.62949 0.0402
C 6.07822 14.89866 0.00572
C 6.10536 13.51574 0.03592
C 4.87627 12.86004 0.00406
C 18.44958 9.30855 -0.00478
C 4.93935 11.35586 0.00943
C 6.09037 9.31174 -0.01111
C 4.86269 8.5741 -0.01275
C 4.90762 7.12725 0.00985
C 6.11135 6.43979 -0.02245
C 6.03405 5.06875 -0.00428
C 4.87807 4.26579 0.03101
C 4.90327 2.90566 -0.01536
C 6.24065 2.20631 -0.02689
C 6.21893 10.74468 0.02841
C 17.1684 8.65718 -0.01662
C 17.19741 7.17632 -0.01185
C 18.36773 6.44787 0.01126
C 31.96533 29.80771 -0.02142
C 32.00114 28.38996 0.0544
C 33.20698 27.70783 0.00026
C 33.24803 26.32965 0.00682
C 32.0229 25.59899 -0.01779
C 31.91203 24.13564 0.03794
C 33.18517 23.46484 0.01927
C 33.16996 22.06032 0.01574
C 31.96175 21.34433 -0.02383
C 31.97913 19.87109 -0.01429
C 33.18008 19.19202 -0.0136
C 33.14774 17.77149 0.00594
C 31.96171 17.0553 -0.02474
C 32.0501 15.70578 0.00369
C 33.20999 14.95408 0.00455
C 33.17129 13.58527 -0.00644
C 31.84385 12.73016 -0.01839
C 33.24975 30.58776 0.01428
C 32.0386 11.39649 0.00137
C 33.21601 31.9762 -0.01694
C 29.5854 33.99086 0.00346
C 29.34555 24.1137 -0.00669
C 30.60592 23.50367 0.0101
C 30.64263 22.00369 0.01705
C 29.36731 21.22562 -0.0405
C 29.61178 19.8803 -0.01303
C 30.72982 19.20972 -0.01461
C 30.65098 17.78012 -0.02155
C 29.42934 17.11948 -0.00944
C 29.4316 15.671 -0.03735
C 30.80598 14.89404 -0.00971
C 30.70777 13.60723 0.01518
C 30.71775 6.36318 0.01908
C 30.72137 5.00099 0.07705
C 29.55842 4.20784 0.0103
C 29.43905 2.77516 0.02108
C 30.71147 2.11004 0.00716
C 30.6996 0.6844 0.00307
C 32.0113 32.69715 0.01713
C 33.24251 10.6397 0.00199
C 33.2266 9.21458 0.04381
C 32.04484 8.5511 0.02806
C 1.27379 17.79215 0.01223
C 0.05343 17.08456 0.00648
C 0.03265 15.62774 0.02114
C 1.21706 14.89677 -0.02957
C 1.25693 13.46371 0.00343
C 34.42758 12.77118 -0.02656
C 0.03673 11.34585 -0.02442
C 1.21378 10.68131 -0.00027
C 1.16436 9.17512 -0.00583
C 34.34088 8.44946 -0.02302
C 34.38653 7.0429 -0.02849
C 1.21848 6.34824 0.02931
C 1.20112 4.96727 0.00628
C 34.41168 4.24801 -0.0345
C 0.02793 2.87598 -0.00931
C 1.18644 2.09278 -0.00939
C 1.25632 0.64553 -0.00468
C 1.31612 19.14456 -0.01678
C 34.39304 19.82127 0.01951
C 34.41578 21.29198 -0.02213
C 1.22755 21.87698 0.02712
C 31.82283 7.15434 0.01504
C 33.13268 6.34651 -0.00069
C 33.09167 4.95345 0.04926
C 31.88959 4.25113 -0.03838
C 31.95002 2.85719 0.00349
C 33.19086 2.17896 -0.00323
C 33.27155 0.8298 -0.00841
C 32.0044 0.01525 0.0001
C 29.56497 25.50545 0.03531
C 34.39457 32.70707 -0.02927
C 1.25053 30.56453 0.01027
C 34.40629 29.83135 0.01831
C 0.0006 28.4571 -0.01037
C 1.27425 27.76184 -0.00439
C 1.24606 26.30164 -0.00598
C 0.03605 25.59409 -0.05239
C 34.3941 24.13315 0.03076
C 1.19713 23.40823 0.00723
C 1.20631 31.97469 -0.01404
C 3.73993 31.94581 0.02635
C 30.75615 26.24383 0.01836
C 29.55119 28.35893 -0.01415
C 20.87211 4.9278 -0.0276
C 19.60437 4.27526 0.03005
C 19.63395 2.82122 -0.04078
C 20.88494 2.16944 0.02117
C 20.86195 0.65635 0.02737
C 19.63483 0.01188 -0.00498
C 22.10416 32.63124 0.00135
C 23.34981 31.95498 0.03102
C 23.31971 30.54376 0.02555
C 22.08406 29.80216 0.01423
C 22.14214 28.33696 -0.00285
C 23.38987 27.67749 -0.009
C 23.38998 26.13402 -0.01199
C 22.13489 25.72928 -0.00229
C 22.17098 11.50178 -0.00938
C 22.08512 8.56643 -0.0264
C 22.23212 7.20622 -0.01154
C 20.92415 6.42535 0.00768
C 23.29171 6.26636 0.00684
C 19.62859 7.14117 -0.00178
C 20.88638 9.26751 -0.02118
C 18.41837 5.03357 0.01852
C 17.26009 4.28931 -0.00381
C 17.15541 2.85304 0.03046
C 18.38153 2.08381 0.0296
C 18.37493 0.77782 0.03374
C 17.15324 0.00992 -0.02845
C 19.70377 32.70842 -0.03213
C 20.85672 31.94729 0.02239
C 20.74287 30.52295 0.01153
C 19.66078 29.85243 0.02734
C 19.70567 28.38747 -0.0055
C 20.8791 27.64964 0.01515
C 20.86225 26.13187 -0.00225
C 19.61662 25.58242 0.00071
C 19.82259 12.71296 -0.01107
C 19.55281 11.38284 -0.01586
C 21.12742 10.62171 -0.01971
C 19.66747 8.58821 0.00733
C 23.3621 4.98272 -0.01052
C 22.05944 4.22389 -0.01679
C 22.14637 2.79112 0.00367
C 28.30719 27.61621 0.01094
C 28.27691 26.25422 0.00235
C 27.04146 25.57119 0.01495
C 26.85711 24.23726 0.01259
C 27.91327 23.3071 0.01799
C 28.18417 22.03902 0.01699
C 28.34411 15.0099 -0.00416
C 28.29904 4.95678 0.01177
C 27.01672 4.46172 0.04266
C 27.08293 2.892 0.01324
C 28.25918 2.1624 0.0014
C 28.21047 0.66865 0.00924
C 26.97788 0.02081 0.02326
C 29.56883 32.59196 0.00261
C 30.81547 31.95824 0.03265
C 30.72116 30.512 -0.02049
C 29.51072 29.75363 -0.01854
C 27.08812 28.406 0.02198
C 27.05788 29.75278 0.02611
C 28.25406 30.41808 -0.00621
C 28.29265 31.94256 0.00194
C 23.28018 2.06556 0.04306
C 23.36144 0.68384 0.00996
C 22.09929 34.06338 0.00195
C 24.60011 32.61928 -0.00802
C 25.8613 31.93294 -0.00218
C 25.76796 30.46606 -0.01654
C 24.57119 29.84297 -0.00037
C 24.6164 28.38308 -0.0032
C 30.68938 27.66944 -0.03039
C 25.82776 27.75101 0.00622
C 24.66376 25.62417 -0.00942
C 25.77702 4.97665 0.00487
C 24.62445 4.26638 0.00826
C 24.56372 2.77032 -0.00294
C 25.79712 2.10002 0.00152
C 25.78538 0.67599 0.01257
C 24.61394 34.05195 0.02316
C 27.07946 32.64037 0.04185
C 25.87571 26.36207 -0.02815
C 2.44931 32.58162 -0.01378
