288
Graphene
C 0.00494 0.04957 0.01295
C 12.3235 32.64637 -0.017
C 13.52596 32.0238 0.00364
C 13.54654 30.59293 -0.00831
C 12.35196 29.81776 -0.02957
C 12.359 28.4451 -0.04422
C 13.54993 27.6984 0.00654
C 9.77533 33.99604 0.00143
C 13.49373 26.27726 -0.00703
C 12.26073 24.01802 -0.00652
C 13.52816 23.3941 0.0058
C 13.59661 22.02377 -0.00865
C 12.33522 21.24311 0.00675
C 12.45422 19.80745 -0.00311
C 13.5134 19.15714 0.00742
C 12.22514 25.63599 -0.04076
C 12.28839 4.18237 -0.01594
C 11.05699 0.61495 0.00667
C 9.82179 2.82725 0.00755
C 11.13473 30.44601 0.03338
C 9.80504 29.77909 -0.0258
C 9.78657 28.44408 -0.0331
C 11.07481 27.67176 -0.00316
C 11.01876 26.3394 0.02188
C 9.73971 25.65966 -0.01979
C 11.06296 2.13093 -0.0054
C 9.85225 24.18298 0.02691
C 11.09499 22.00851 0.01452
C 9.90217 21.32707 0.04892
C 9.96305 7.03505 -0.00111
C 10.93259 6.42268 -0.03557
C 11.21451 4.98445 0.03754
C 9.84572 4.36025 0.01739
C 11.04173 23.44411 -0.01581
C 11.08047 31.97664 -0.00491
C 12.37332 2.76679 0.0106
C 13.57353 0.68759 -0.01721
C 16.03871 0.77737 0.02239
C 14.89019 0.03311 0.01153
C 17.17677 32.5636 0.02734
C 18.43367 31.98794 -0.0055
C 18.44081 30.48471 0.01515
C 17.15252 29.81359 -0.00225
C 16.01993 14.94351 -0.03213
C 17.29153 28.39522 0.00071
C 18.46114 26.30875 -0.01586
C 17.237 25.6149 -0.01971
C 17.17223 24.25655 -0.02118
C 18.4136 23.46246 0.00733
C 18.40302 21.94973 -0.00178
C 17.19842 21.26806 0.00768
C 18.48283 27.77186 -0.01107
C 13.54293 2.02129 -0.01154
C 14.71653 17.03013 -0.02845
C 15.94508 19.24378 0.0296
C 12.32101 34.04124 -0.02422
C 14.83833 32.74755 0.01277
C 15.97229 31.89822 0.00096
C 15.97555 30.4935 -0.01527
C 14.7653 29.80915 0.01087
C 14.79477 28.3505 0.00199
C 15.89797 17.76459 0.03374
C 16.0005 27.66852 0.01511
C 14.76876 25.49235 -0.01662
C 14.78401 24.08929 -0.01185
C 15.95019 23.4581 0.01126
C 15.93683 21.99996 0.01852
C 14.70011 21.31257 -0.00381
C 14.6912 19.90614 0.03046
C 15.95792 26.29548 -0.00478
C 17.1751 19.85407 -0.0276
C 9.84245 32.59012 -0.00109
C 8.61913 0.68728 -0.02213
C 3.76695 9.28977 -0.00925
C 2.45935 8.55268 0.01877
C 2.50437 7.12285 0.01363
C 3.69516 6.40096 -0.02162
C 3.69669 4.91246 0.00415
C 2.40003 4.2404 -0.0014
C 3.63106 10.62947 0.00444
C 2.53721 2.86555 0.02162
C 3.64399 0.70409 0.01241
C 2.40131 0.03033 -0.01454
C 4.84699 32.69807 0.01945
C 6.10264 31.93083 0.01416
C 6.11711 30.54176 0.03542
C 4.88824 29.83078 0.02299
C 3.73275 2.11207 0.0076
C 4.93499 28.4124 0.00244
C 2.48811 11.32224 -0.01789
C 2.36494 15.60463 -0.02971
C 3.69092 30.50676 0.00943
C 2.40209 29.77481 0.02841
C 2.48029 28.37703 -0.01111
C 3.7409 27.71094 -0.01275
C 3.66229 26.34087 0.00985
C 2.48862 25.54442 -0.02245
C 2.36119 12.7956 0.02894
C 2.44177 24.16326 -0.00428
C 3.67817 22.08806 -0.01536
C 2.46966 21.27085 -0.02689
C 2.43486 19.8892 -0.01046
C 3.71083 19.17241 -0.00891
C 3.62518 17.77109 0.02819
C 2.50549 17.01789 0.00165
C 3.66369 23.5041 0.03101
C 7.40869 33.99465 0.03698
C 6.15575 27.71817 -0.01717
C 4.93396 25.59076 -0.01952
C 7.35658 28.41413 -0.00619
C 8.54692 27.76056 -0.02162
C 8.58967 26.33066 0.00889
C 7.36689 25.52822 -0.00481
C 7.32291 24.12691 0.00979
C 8.56014 23.49394 0.01443
C 7.41341 29.78409 0.01848
C 8.68149 21.99262 0.03505
C 7.35201 7.05755 -0.04147
C 8.68587 6.43891 -0.05302
C 8.63204 4.95885 0.00213
C 7.31219 4.26879 -0.00066
C 7.33327 2.90543 -0.00289
C 8.56795 2.13105 0.00028
C 7.39831 21.29866 -0.02815
C 6.11072 26.30999 0.05265
C 8.65354 30.46916 0.02098
C 7.34436 32.59577 0.0351
C 4.94419 24.13473 -0.02813
C 6.04692 23.38758 0.00374
C 6.14571 22.05921 0.00052
C 4.85488 21.34578 -0.03682
C 4.88398 19.95957 0.01965
C 4.96512 8.53818 0.02058
C 8.60581 31.82927 -0.03113
C 4.98117 7.12508 -0.01957
C 6.15876 5.00924 -0.00368
C 4.91416 4.30649 -0.02696
C 4.91159 2.82914 -0.00114
C 6.10909 2.06573 0.00228
C 6.14249 0.67872 0.00798
C 4.94174 0.00226 0.00422
C 6.18286 6.3845 -0.0108
C 18.51251 19.29005 0.03005
C 17.15847 17.09545 -0.04078
C 18.3837 0.6911 0.02117
C 33.25585 23.4213 -0.0136
C 33.27627 22.01737 0.00594
C 31.97938 21.33457 -0.02474
C 31.95217 19.7629 0.00369
C 33.18223 19.11812 0.00455
C 33.1525 17.71044 -0.00644
C 31.97059 24.10155 -0.01429
C 31.88895 17.10616 -0.01839
C 33.18145 13.59982 0.00199
C 33.1838 10.57059 0.04381
C 33.24863 9.25705 0.02806
C 31.8825 7.12121 0.01504
C 33.18262 6.46375 -0.00069
C 33.2243 5.01225 0.04926
C 33.17854 14.79626 0.00137
C 31.96129 4.25189 -0.03838
C 32.0139 25.58592 -0.02383
C 33.17994 27.72873 0.01927
C 29.46164 21.34241 0.0103
C 29.59192 19.92338 0.02108
C 30.69112 19.18961 0.00716
C 30.85826 17.72628 0.00307
C 30.88725 6.51556 0.00346
C 30.62495 5.10851 0.01713
C 33.21917 26.32693 0.01574
C 29.57361 4.29523 -0.01694
C 29.44967 0.04043 -0.02142
C 32.00181 32.69575 0.0544
C 33.2359 31.93904 0.00026
C 33.20819 30.52356 0.00682
C 31.93863 29.87967 -0.01779
C 31.93835 28.44678 0.03794
C 30.80357 0.71021 0.01428
C 30.68608 22.01014 0.07705
C 31.94519 2.87169 0.00349
C 33.2271 0.68046 -0.00841
C 1.2453 14.91607 -0.02957
C 1.16823 13.52997 0.00343
C 34.3572 12.83424 -0.02656
C 0.03022 11.41172 -0.02442
C 1.2206 10.58523 -0.00027
C 1.22137 9.26478 -0.00583
C 34.33088 15.60346 0.02114
C 0.00655 8.52166 -0.02302
C 1.19954 6.43321 0.02931
C 1.1126 4.96277 0.00628
C 34.34846 4.23972 -0.0345
C 34.39193 2.75352 -0.00931
C 1.25927 2.18394 -0.00939
C 1.18398 0.74156 -0.00468
C 0.00572 7.13853 -0.02849
C 33.16027 2.07714 -0.00323
C 34.43206 17.03739 0.00648
C 1.22422 19.20053 -0.01678
C 31.99138 0.01566 0.0001
C 0.03424 32.7237 -0.02927
C 1.20032 31.9411 -0.01404
C 1.18871 30.54943 0.01027
C 34.40641 29.84603 0.01831
C 34.36882 28.43718 -0.01037
C 1.25733 17.76595 0.01223
C 1.23608 27.67772 -0.00439
C 0.05954 25.54136 -0.05239
C 34.4323 24.18714 0.03076
C 1.20357 23.465 0.00723
C 1.23972 22.01903 0.02712
C 34.4226 21.2907 -0.02213
C 34.42595 19.85651 0.01951
C 1.21884 26.27412 -0.00598
C 30.7731 23.45566 0.01908
C 29.51053 24.06126 0.01518
C 29.55688 25.50275 -0.00971
C 23.37571 30.56491 0.00996
C 22.12338 29.87812 0.00195
C 22.12989 28.36755 -0.00802
C 23.31646 27.68333 -0.00218
C 23.39499 26.22161 -0.01654
C 22.10612 25.52607 -0.00037
C 23.34525 31.97356 0.04306
C 22.11806 24.08515 -0.0032
C 23.30405 21.97411 -0.02815
C 22.0752 21.32505 -0.00942
C 23.51116 2.08615 0.00487
C 23.36418 0.70366 0.00826
C 22.10528 0.05229 -0.00294
C 24.66737 32.63913 0.00152
C 23.38081 23.36246 0.00622
C 25.83698 31.90722 0.01257
C 22.18184 32.65764 0.00367
C 20.87924 0.66046 -0.01052
C 17.21202 34.07823 0.02737
C 19.64909 32.67338 -0.00498
C 20.90364 31.98226 0.00135
C 20.91443 30.62101 0.03102
C 19.67668 29.85417 0.02555
C 19.73016 28.44407 0.01423
C 19.60148 0.1088 -0.01679
C 20.92105 27.72216 -0.00285
C 19.67746 25.59896 -0.01199
C 19.73601 24.16612 -0.00229
C 20.92786 23.42288 -0.00938
C 20.91368 21.98015 -0.0264
C 19.65604 21.30955 -0.01154
C 19.57364 19.87687 0.00684
C 20.94807 26.31924 -0.009
C 25.76386 30.42405 0.02316
C 24.51885 29.78576 0.04185
C 24.56067 28.39035 0.00194
C 27.10949 24.14516 -0.01854
C 28.23873 23.38293 -0.01415
C 28.1635 22.00613 -0.03039
C 27.05965 21.24894 0.01836
C 27.00602 2.80788 0.03531
C 28.22471 0.6308 -0.00669
C 27.04446 25.65685 -0.02049
C 27.07767 0.02602 0.0101
C 30.76068 31.94739 -0.0405
C 30.72826 30.52665 -0.01303
C 29.46982 29.78658 -0.01461
C 29.4382 28.404 -0.02155
C 30.73996 27.74212 -0.00944
C 30.80436 26.20086 -0.03735
C 29.53889 32.63427 0.01705
C 28.24528 26.31624 0.03265
C 28.29071 27.715 0.00261
C 27.01841 28.44273 0.02326
C 25.79699 27.70753 -0.00621
C 25.78939 26.27757 0.02611
C 24.61103 25.59635 0.02198
C 24.61499 24.12594 0.01094
C 25.86828 23.44108 0.00235
C 25.79599 21.90559 0.01495
C 24.55085 21.32299 0.01259
C 24.44302 2.76929 0.01799
C 25.80618 2.25148 0.01699
C 25.79005 0.63683 -0.00416
C 24.62541 34.03315 0.01177
C 26.99122 32.65799 0.04266
C 28.29244 31.96328 0.01324
C 28.29041 30.53799 0.0014
C 26.97019 29.76667 0.00924
C 3.6337 31.9404 0.00406
C 2.46219 32.65287 0.03592
