337
Graphene
C 34.32205 0.00441 0.01295
C 15.97251 2.13054 -0.00481
C 15.97109 0.69446 0.00979
C 14.79226 0.04959 0.01443
C 17.27286 32.71671 0.03505
C 18.42652 31.94531 -0.02815
C 18.35739 30.48845 -0.04147
C 17.07944 29.84643 -0.05302
C 17.07649 28.47783 0.00213
C 18.13914 27.71118 -0.00066
C 18.3098 26.31145 -0.00289
C 18.36028 23.42952 0.00028
C 16.90522 7.05219 -0.02213
C 18.29225 6.53389 0.03698
C 18.34645 5.03014 -0.00109
C 17.20172 4.22755 -0.00491
C 17.22062 2.79779 0.03338
C 18.48904 2.13246 -0.0258
C 14.67944 2.86816 0.00889
C 18.41145 0.73833 -0.0331
C 14.70396 4.27682 -0.02162
C 15.92376 6.39466 0.01848
C 11.1052 0.83732 -0.02813
C 9.9105 0.19147 0.00374
C 12.35259 32.7109 0.00052
C 13.56761 31.977 -0.03682
C 13.46745 30.34242 0.01965
C 12.20593 29.85377 0.02058
C 13.36495 6.45767 -0.01957
C 13.53659 5.05278 -0.0108
C 12.30369 4.4585 -0.00368
C 12.25773 2.96492 -0.02696
C 13.45765 2.2391 -0.00114
C 13.58718 0.81933 0.00228
C 12.3687 0.17413 0.00798
C 14.71228 32.71091 0.00422
C 16.03954 32.01286 0.0351
C 15.89933 30.54332 -0.03113
C 14.6883 29.80285 0.02098
C 15.91955 4.98202 -0.00619
C 11.0315 2.2772 -0.01952
C 17.17002 0.06065 -0.00316
C 20.85964 31.85339 -0.01979
C 23.19855 30.38599 0.0058
C 22.01822 29.67702 -0.00865
C 21.97401 28.24191 0.00675
C 23.3256 27.59753 -0.00311
C 23.3509 26.17659 0.00742
C 22.12968 25.49187 -0.01594
C 22.08449 24.12095 0.0106
C 23.3291 23.35894 -0.01154
C 23.19081 21.91564 -0.01721
C 22.00616 21.25068 -0.02422
C 22.25127 19.96548 0.01277
C 23.22749 19.06119 0.00096
C 23.29595 17.6599 -0.01527
C 23.3228 14.8187 0.01087
C 23.28461 13.38284 0.00199
C 22.19887 11.79376 0.01511
C 23.27704 10.77036 -0.00478
C 23.3237 31.82945 -0.00652
C 19.61674 32.65993 0.02188
C 22.05834 32.57942 -0.04076
C 20.91162 0.81817 0.00654
C 20.80265 30.44643 0.02691
C 19.5566 29.72699 -0.01581
C 19.62306 28.33206 0.01452
C 20.8069 27.49468 0.04892
C 20.84156 26.15114 -0.00111
C 19.47946 25.51596 -0.03557
C 19.5081 24.07672 0.03754
C 20.80822 23.44715 0.01739
C 20.83915 22.10517 0.00755
C 20.83132 9.18925 -0.0054
C 19.83458 8.62452 0.00667
C 19.50472 7.18166 0.00143
C 20.80701 6.52 -0.017
C 20.91557 5.09765 0.00364
C 19.59998 4.39253 -0.00831
C 19.63427 2.89935 -0.02957
C 20.83087 2.18693 -0.04422
C 19.62208 0.06642 -0.00703
C 9.83473 3.06773 0.05265
C 9.69596 4.6819 -0.01717
C 11.11783 5.27218 0.00244
C 2.53083 8.48733 0.01745
C 2.57635 7.11262 0.00488
C 3.80813 6.44113 -0.01004
C 3.72275 5.05623 -0.02896
C 2.47338 4.34504 -0.00131
C 2.36015 2.85909 -0.01118
C 3.68027 2.20216 -0.014
C 3.58507 0.78426 0.02147
C 2.39338 0.01879 0.00373
C 4.94044 32.71937 -0.00191
C 6.25568 31.95885 0.00438
C 6.19871 30.52521 0.01291
C 4.90651 29.91718 0.00093
C 4.90707 28.44245 0.00057
C 6.16155 27.73857 -0.01634
C 6.15416 26.27063 -0.00334
C 4.86118 25.57917 0.02339
C 3.84405 9.15594 0.03693
C 4.87818 24.17946 0.01641
C 3.68255 10.52087 -0.01384
C 2.49691 12.80042 0.02888
C 3.69275 30.60758 0.01396
C 2.50098 29.89795 0.01849
C 2.48009 28.43354 -0.01142
C 3.65347 27.74364 -0.00562
C 3.64839 26.29951 -0.00494
C 2.46915 25.66958 0.00054
C 2.42102 24.18109 0.03007
C 3.70271 23.4013 -0.00095
C 3.67851 22.00393 0.01572
C 2.39338 21.32638 -0.04848
C 2.46717 19.89495 -0.00892
C 3.63098 19.27425 -0.01362
C 3.55913 17.82537 -0.0008
C 2.41924 17.07238 0.0288
C 2.49734 15.70951 0.00393
C 3.78768 14.99879 0.00895
C 3.80538 13.54635 0.00685
C 2.39179 11.33849 -0.00482
C 6.08165 23.46017 -0.00719
C 6.06016 22.04766 0.01364
C 4.95557 21.34038 -0.01062
C 7.43319 25.64713 0.02894
C 7.37 24.15726 -0.01789
C 8.27253 23.04729 0.00444
C 7.495 21.43286 -0.00925
C 7.60749 6.54582 0.01877
C 8.35811 5.19234 0.01363
C 7.32595 4.19027 -0.02162
C 7.27033 2.89245 0.00415
C 8.58332 2.28153 -0.0014
C 8.65857 0.79699 0.02162
C 7.40305 0.08868 0.0076
C 9.86628 32.81331 0.01241
C 11.11872 32.03582 -0.01454
C 11.07098 30.62111 0.01945
C 9.83775 29.81869 0.01416
C 9.88064 28.42868 0.03542
C 11.42521 6.599 0.02299
C 8.6446 26.29869 -0.02971
C 8.86439 27.63602 0.00165
C 7.40611 28.47677 0.02819
C 7.48823 29.82572 -0.00891
C 4.91103 19.94279 -0.00033
C 5.87933 18.9693 0.03589
C 4.89618 17.20557 -0.02759
C 4.89096 15.86515 0.0402
C 4.74831 12.66604 0.00572
C 4.88105 11.37165 0.03592
C 5.07781 8.52869 0.00406
C 5.11833 7.159 0.00943
C 23.34375 9.39037 -0.01662
C 6.14855 6.36522 0.02841
C 5.01056 4.26367 -0.01275
C 4.91805 2.88625 0.00985
C 6.04134 2.10071 -0.02245
C 6.13764 0.70614 -0.00428
C 4.857 0.01916 0.03101
C 7.475 32.70899 -0.01536
C 8.71544 31.99599 -0.02689
C 8.71068 30.60044 -0.01046
C 6.12391 4.89648 -0.01111
C 3.6661 32.09684 0.0127
C 22.15236 8.64157 -0.01185
C 23.28373 6.41439 0.01852
C 31.95794 28.4143 0.0544
C 33.19442 27.71316 0.00026
C 33.22781 26.27609 0.00682
C 31.9492 25.53798 -0.01779
C 31.94007 24.13831 0.03794
C 33.17263 23.45833 0.01927
C 33.2217 22.05416 0.01574
C 31.98149 21.33972 -0.02383
C 31.93365 19.90539 -0.01429
C 33.15562 19.23154 -0.0136
C 33.12896 17.78143 0.00594
C 31.9341 17.05174 -0.02474
C 31.96847 15.60424 0.00369
C 33.15227 14.78393 0.00455
C 33.09969 13.42581 -0.00644
C 31.81222 12.79715 -0.01839
C 31.88948 11.30552 0.00137
C 31.87945 29.79496 -0.02142
C 33.18017 10.62756 0.00199
C 33.15 30.60633 0.01428
C 31.87132 32.57374 0.01713
C 29.49635 17.0599 0.0101
C 29.41438 15.63461 0.01705
C 30.73468 14.95212 -0.0405
C 30.67779 13.53096 -0.01303
C 29.53063 12.86107 -0.01461
C 29.43477 11.43286 -0.02155
C 30.65358 10.64227 -0.00944
C 30.70225 9.28056 -0.03735
C 29.45163 8.50476 -0.00971
C 29.46391 7.08521 0.01518
C 30.7158 6.36152 0.01908
C 30.6806 4.97934 0.07705
C 29.39891 4.29944 0.0103
C 29.37048 2.90403 0.02108
C 30.65593 2.17537 0.00716
C 30.65078 0.73212 0.00307
C 29.43554 0.05274 0.00346
C 33.13835 31.99694 -0.01694
C 30.74679 17.75977 -0.00669
C 33.14891 9.25445 0.04381
C 31.86965 7.1329 0.01504
C 1.19738 17.64909 0.01223
C 34.36874 16.99584 0.00648
C 34.382 15.60628 0.02114
C 1.2315 14.9476 -0.02957
C 1.20376 13.44022 0.00343
C 34.31613 12.67416 -0.02656
C 34.42464 11.34198 -0.02442
C 1.19734 10.63324 -0.00027
C 1.23215 9.17199 -0.00583
C 34.41818 8.52652 -0.02302
C 34.4243 7.13509 -0.02849
C 1.25929 6.43256 0.02931
C 1.18936 5.00299 0.00628
C 34.40375 4.26738 -0.0345
C 34.34632 2.86043 -0.00931
C 1.16396 2.18255 -0.00939
C 1.09452 0.79892 -0.00468
C 1.18874 19.12921 -0.01678
C 32.00805 8.49846 0.02806
C 34.4296 19.84612 0.01951
C 1.12793 22.09368 0.02712
C 33.18645 6.4947 -0.00069
C 33.17556 5.01369 0.04926
C 31.94442 4.2564 -0.03838
C 31.90741 2.86608 0.00349
C 33.0858 2.07636 -0.00323
C 33.10409 0.64504 -0.00841
C 31.8708 34.02616 0.0001
C 34.35067 32.72984 -0.02927
C 1.22082 31.97921 -0.01404
C 1.23249 30.54171 0.01027
C 34.37293 29.86434 0.01831
C 0.07057 28.45965 -0.01037
C 1.29251 27.61066 -0.00439
C 1.18343 26.28555 -0.00598
C 0.01244 25.58902 -0.05239
C 0.00234 24.13406 0.03076
C 1.24724 23.49033 0.00723
C 34.37306 21.26869 -0.02213
C 30.72707 19.14496 0.03531
C 29.53595 19.8558 0.01836
C 29.44365 21.25762 -0.03039
C 24.4822 16.95991 0.03005
C 24.5339 15.46998 -0.04078
C 25.82836 14.81684 0.02117
C 25.73431 13.48922 0.02737
C 24.5187 12.81015 -0.00498
C 24.53261 11.46707 0.00135
C 25.82569 10.73303 0.03102
C 25.78658 9.30986 0.02555
C 24.54223 8.65683 0.01423
C 24.51843 7.12832 -0.00285
C 25.77703 6.46934 -0.009
C 25.70398 5.03243 -0.01199
C 24.51923 4.28248 -0.00229
C 24.54678 2.86721 -0.00938
C 25.66743 2.11706 -0.0264
C 25.79197 0.6682 -0.01154
C 24.54202 33.96637 0.00684
C 25.74339 17.72694 -0.0276
C 27.09022 32.58346 -0.01052
C 25.72416 19.15242 0.00768
C 24.48468 21.23976 0.00733
C 23.31977 4.96811 -0.00381
C 22.13454 4.27822 0.03046
C 22.03218 2.88023 0.0296
C 23.30469 2.10476 0.03374
C 23.31588 0.62927 -0.02845
C 22.1028 34.03221 -0.03213
C 24.57655 32.60812 0.02239
C 25.85201 31.80961 0.01153
C 25.684 30.3807 0.02734
C 24.47145 29.74136 -0.0055
C 24.52651 28.34104 0.01515
C 25.76969 27.6647 -0.00225
C 25.77525 26.29434 0.00071
C 24.60156 25.4767 -0.01107
C 24.57745 24.09039 -0.01586
C 25.77019 23.30475 -0.01971
C 25.71966 21.9415 -0.02118
C 24.53724 19.81163 -0.00178
C 28.31253 31.88311 -0.01679
C 28.21242 30.4937 0.00367
C 26.91822 29.79459 0.04306
C 28.15569 4.9679 0.00235
C 26.8481 4.31776 0.01495
C 26.88791 2.85172 0.01259
C 28.17021 2.16156 0.01799
C 28.16277 0.70113 0.01699
C 26.96757 34.07289 -0.00416
C 29.45715 32.66779 0.01177
C 30.68292 31.91127 0.04266
C 30.70416 30.50351 0.01324
C 29.44781 29.85258 0.0014
C 29.49766 28.44537 0.00924
C 30.72287 27.6174 0.02326
C 30.76675 26.2825 0.00261
C 29.5735 25.58825 0.03265
C 29.48215 24.12369 -0.02049
C 30.64366 23.42281 -0.01854
C 30.62042 21.9899 -0.01415
C 28.21331 6.35947 0.01094
C 27.02955 7.14029 0.02198
C 27.00863 8.56326 0.02611
C 28.22529 9.30754 -0.00621
C 26.98107 28.37634 0.00996
C 28.25051 27.7409 0.00195
C 28.27202 26.27941 -0.00802
C 27.00654 25.52978 -0.00218
C 26.97718 24.08015 -0.01654
C 28.22634 23.3679 -0.00037
C 28.23096 22.00743 -0.0032
C 26.94015 21.24755 0.00622
C 22.1002 7.17782 0.01126
C 27.03489 19.8521 -0.02815
C 28.27078 17.75662 0.00487
C 27.03007 17.00519 0.00826
C 26.98471 15.63607 -0.00294
C 28.25033 14.90567 0.00152
C 28.25552 13.51322 0.01257
C 27.03005 12.77512 0.02316
C 27.1067 11.39414 0.04185
C 28.30261 10.72295 0.00194
C 28.28667 19.20809 -0.00942
C 2.44168 32.6928 0.02635
