395
Graphene
C 34.34226 34.07944 0.01295
C 10.96018 0.73678 0.00444
C 9.75367 0.06915 -0.00925
C 12.21069 32.74529 0.01877
C 13.44086 32.08272 0.01363
C 13.38221 30.60811 -0.02162
C 12.22148 29.84173 0.00415
C 12.2492 28.399 -0.0014
C 13.53506 27.75593 0.02162
C 13.52239 26.37037 0.0076
C 10.96504 2.18521 -0.01789
C 12.2141 25.669 0.01241
C 13.54562 23.44469 0.01945
C 13.43831 22.02438 0.01416
C 12.22411 21.32206 0.03542
C 12.39999 19.92146 0.02299
C 13.58611 19.22424 0.00244
C 13.6219 17.85487 -0.01717
C 12.40532 17.01642 0.05265
C 12.36616 15.64453 -0.01952
C 13.64739 15.02648 -0.02813
C 12.30031 24.16777 -0.01454
C 9.71117 2.96238 0.02894
C 9.70483 4.33221 -0.02971
C 11.07827 5.031 0.00165
C 10.98602 27.68142 -0.01062
C 10.97355 26.27382 -0.00033
C 9.76737 25.59503 0.03589
C 9.83389 24.15897 -0.02759
C 11.07679 23.43878 0.0402
C 11.0957 22.03467 0.00572
C 9.84567 21.29206 0.03592
C 9.88621 19.85776 0.00406
C 11.1732 19.17811 0.00943
C 11.16541 17.73291 0.02841
C 9.86848 17.02654 -0.01111
C 9.85421 15.59304 -0.01275
C 11.08387 14.92094 0.00985
C 11.06403 13.53995 -0.02245
C 9.89434 12.80233 -0.00428
C 9.88453 11.28646 0.03101
C 11.06187 10.67948 -0.01536
C 11.08625 9.24454 -0.02689
C 9.79083 8.5233 -0.01046
C 9.73886 7.08653 -0.00891
C 11.0246 6.45221 0.02819
C 13.56635 13.60796 0.00374
C 12.35212 12.79298 0.00052
C 12.36139 11.43955 -0.03682
C 13.53583 10.76717 0.01965
C 14.86352 17.20445 -0.00289
C 14.83533 15.6695 0.00028
C 16.04275 15.05726 -0.02213
C 16.04266 13.56877 0.03698
C 14.76159 12.84728 -0.00109
C 14.78251 11.4634 -0.00491
C 15.93294 10.56939 0.03338
C 15.94101 9.22125 -0.0258
C 14.64175 8.50561 -0.0331
C 14.55639 7.15759 -0.00316
C 15.85708 6.50411 0.02188
C 15.96529 5.136 -0.01979
C 14.83003 4.36821 0.02691
C 14.7968 2.95887 -0.01581
C 16.15513 2.43024 0.01452
C 16.06744 0.87608 0.04892
C 14.80869 0.08485 -0.00111
C 17.2464 32.70785 -0.03557
C 18.43056 31.9173 0.03754
C 18.39346 30.4747 0.01739
C 17.15767 29.85134 0.00755
C 16.11805 18.00638 -0.00066
C 9.76976 28.45237 0.01364
C 16.14094 19.4039 0.00213
C 14.74905 21.30371 -0.04147
C 13.47945 9.25713 0.02058
C 12.25452 8.59388 -0.01957
C 12.14819 7.2587 -0.0108
C 13.37108 6.50579 -0.00368
C 13.54007 5.07286 -0.02696
C 12.25376 4.35651 -0.00114
C 12.30179 2.87214 0.00228
C 13.63165 2.17471 0.00798
C 13.49813 0.77053 0.00422
C 12.27598 0.0663 0.0351
C 14.78946 32.71327 -0.03113
C 15.98058 31.99098 0.02098
C 15.91743 30.57471 0.01848
C 14.66528 29.93461 -0.00619
C 14.72586 28.50116 -0.02162
C 15.94731 27.74532 0.00889
C 15.93237 26.25094 -0.00481
C 14.73464 25.56671 0.00979
C 14.81892 24.08123 0.01443
C 16.07778 23.17848 0.03505
C 16.11872 21.75793 -0.02815
C 14.76455 19.99718 -0.05302
C 17.17781 28.44367 -0.0054
C 9.72681 29.86463 -0.00719
C 10.98447 31.97502 0.02339
C 2.36283 4.35879 -0.00279
C 2.33515 2.84988 0.01996
C 3.55373 2.24109 -0.03996
C 3.62379 0.84069 0.01465
C 2.34373 0.06083 -0.00074
C 4.84903 32.6945 -0.00518
C 6.02556 32.03096 0.0086
C 6.01468 30.5947 -0.00643
C 4.87915 29.87004 0.017
C 3.61487 5.03541 0.01226
C 4.88282 28.48535 -0.03113
C 6.08938 26.3105 -0.00094
C 4.89138 25.67321 0.02322
C 4.93909 24.22667 -0.00725
C 6.20487 23.45874 -0.05697
C 6.13638 22.10155 0.01087
C 4.9406 21.27028 -0.01343
C 5.04512 19.88085 0.00988
C 6.15669 19.16271 0.0276
C 6.17191 17.80851 0.01305
C 6.08977 27.7563 -0.02566
C 3.57416 6.36288 0.03828
C 2.41932 7.15265 0.0174
C 2.35851 8.55602 0.0073
C 3.64285 30.5448 -0.01977
C 2.35367 29.87889 -0.00561
C 2.40296 28.46966 0.00208
C 3.64616 27.70258 0.01707
C 3.67391 26.32434 0.02769
C 2.48379 25.40928 -0.03291
C 2.48874 24.06321 -0.04999
C 3.77811 23.44274 0.04505
C 3.69271 21.91212 0.03284
C 2.5106 21.30295 -0.04307
C 2.5017 19.81362 0.03189
C 3.77527 19.14005 0.00031
C 3.73685 17.73392 -0.003
C 2.42988 17.08866 0.01402
C 2.427 15.66484 0.02379
C 3.71656 14.8824 0.00907
C 3.62508 13.38445 0.00643
C 2.39767 12.80186 -0.01509
C 2.38452 11.32991 0.03267
C 3.632 10.71211 0.02374
C 3.63925 9.33912 0.00402
C 4.94813 17.07448 -0.00077
C 4.94601 15.61107 0.03368
C 6.22454 14.8456 -0.02929
C 6.1113 13.5631 -0.00966
C 7.38838 19.95313 0.00685
C 8.67126 19.18454 0.02888
C 8.66666 17.8352 -0.00482
C 7.38386 17.08127 -0.01384
C 7.38966 15.67845 0.03693
C 8.59275 14.90259 0.01745
C 8.59913 13.53347 0.00488
C 7.33656 12.80744 -0.01004
C 7.3605 11.36721 -0.02896
C 8.60167 10.67712 -0.00131
C 8.62571 9.26273 -0.01118
C 7.36594 8.60814 -0.014
C 7.31037 7.15415 0.02147
C 8.57065 6.49587 0.00373
C 8.49468 5.13076 -0.00191
C 7.28908 4.37838 0.00438
C 7.2626 2.92634 0.01291
C 8.4855 2.28146 0.00093
C 8.47104 0.79751 0.00057
C 7.32368 0.064 -0.01634
C 9.75318 32.73674 -0.00334
C 7.34527 21.32623 0.00895
C 10.99095 30.58318 0.01641
C 8.60472 21.98878 0.00393
C 7.41658 24.15417 -0.0008
C 4.8406 12.79105 -0.03337
C 4.88717 11.37347 0.01227
C 6.11567 10.68312 0.00873
C 6.10116 9.27629 -0.00049
C 4.84459 8.63403 0.00848
C 4.8368 7.15992 -0.01303
C 6.01809 6.4852 -0.01378
C 6.06646 5.05051 0.02635
C 4.85709 4.38823 0.0127
C 4.80431 2.96761 0.01396
C 6.0103 2.23233 0.01849
C 6.03072 0.86818 -0.01142
C 4.79557 0.11441 -0.00562
C 7.29294 32.73327 -0.00494
C 8.47904 32.08666 0.00054
C 8.48443 30.61678 0.03007
C 7.31565 29.94133 -0.00095
C 7.35449 28.54226 0.01572
C 8.54486 27.86227 -0.04848
C 8.55763 26.33839 -0.00892
C 7.33342 25.56015 -0.01362
C 8.57789 23.40869 0.0288
C 3.62706 32.02779 0.02784
C 18.28583 27.65086 0.00667
C 17.13754 25.41957 -0.017
C 30.71504 6.40259 0.01908
C 30.68441 4.88262 0.07705
C 29.4261 4.15573 0.0103
C 29.47381 2.78879 0.02108
C 30.69029 2.05313 0.00716
C 30.67781 0.63375 0.00307
C 29.44199 34.03748 0.00346
C 31.91821 32.65537 0.01713
C 33.09587 31.94923 -0.01694
C 29.57487 7.15287 0.01518
C 33.08726 30.46789 0.01428
C 31.89414 28.35661 0.0544
C 33.05863 27.61278 0.00026
C 33.09957 26.19591 0.00682
C 31.84072 25.4678 -0.01779
C 31.92084 24.03419 0.03794
C 33.23637 23.43117 0.01927
C 33.23265 22.01345 0.01574
C 32.09747 21.29942 -0.02383
C 32.14882 19.8916 -0.01429
C 31.86168 29.78324 -0.02142
C 29.52628 8.5916 -0.00971
C 30.6492 9.30618 -0.03735
C 30.72941 10.68292 -0.00944
C 28.23829 0.66417 0.01177
C 27.08485 34.01462 0.04266
C 29.44891 32.59846 0.01324
C 30.74422 31.90396 0.0014
C 30.67356 30.57529 0.00924
C 29.47872 29.81063 0.02326
C 29.48175 28.35065 0.00261
C 30.65209 27.63148 0.03265
C 30.58075 26.25592 -0.02049
C 29.34799 25.47061 -0.01854
C 29.4888 24.04465 -0.01415
C 30.58164 23.14832 -0.03039
C 30.79435 21.79784 0.01836
C 30.84351 19.40676 0.03531
C 30.53016 18.00821 -0.00669
C 29.37504 17.12957 0.0101
C 29.29794 15.74251 0.01705
C 30.57576 14.9748 -0.0405
C 30.67179 13.55594 -0.01303
C 29.41358 12.81426 -0.01461
C 29.5097 11.36288 -0.02155
C 33.27652 19.07106 -0.0136
C 33.16207 17.70298 0.00594
C 31.90847 17.13628 -0.02474
C 31.83973 15.66652 0.00369
C 1.29432 21.99407 0.02712
C 0.06985 21.21427 -0.02213
C 0.14146 19.87696 0.01951
C 1.38196 19.15393 -0.01678
C 1.19318 17.75976 0.01223
C 34.38919 17.04644 0.00648
C 34.30936 15.70439 0.02114
C 1.09895 14.94933 -0.02957
C 1.18749 13.55612 0.00343
C 34.3339 12.89167 -0.02656
C 34.31495 11.48869 -0.02442
C 1.12071 10.6769 -0.00027
C 1.14838 9.21916 -0.00583
C 34.32615 8.56003 -0.02302
C 34.33016 7.13782 -0.02849
C 1.2259 6.48612 0.02931
C 1.24496 5.01687 0.00628
C 34.38781 4.27131 -0.0345
C 34.33152 2.88704 -0.00931
C 1.13816 2.15219 -0.00939
C 1.17737 0.71473 -0.00468
C 1.23488 23.39094 0.00723
C 28.26009 2.05697 -0.00416
C 34.42866 24.12508 0.03076
C 1.18859 26.23957 -0.00598
C 33.049 15.00875 0.00455
C 33.06073 13.6242 -0.00644
C 31.8628 12.8687 -0.01839
C 31.9198 11.44229 0.00137
C 33.11142 10.72684 0.00199
C 33.09974 9.27958 0.04381
C 31.90497 8.49328 0.02806
C 31.93486 7.18266 0.01504
C 33.1707 6.40714 -0.00069
C 33.18101 4.98655 0.04926
C 31.94622 4.16499 -0.03838
C 31.89477 2.8065 0.00349
C 33.22157 2.11051 -0.00323
C 33.12418 0.67656 -0.00841
C 31.85907 34.05133 0.0001
C 34.31463 32.69778 -0.02927
C 1.12224 31.9993 -0.01404
C 1.07998 30.5957 0.01027
C 34.27824 29.81958 0.01831
C 34.30114 28.33345 -0.01037
C 1.20338 27.63457 -0.00439
C 34.35456 25.57343 -0.05239
C 18.31503 26.19775 0.00143
C 27.05259 2.89765 0.01699
C 28.22318 4.97672 0.01259
C 19.61432 25.61624 -0.01662
C 20.76147 13.56027 -0.01185
C 19.77022 12.67667 0.01126
C 19.64111 11.23024 0.01852
C 20.82947 10.54278 -0.00381
C 20.79097 9.0127 0.03046
C 19.57474 8.24241 0.0296
C 19.4153 6.70531 0.03374
C 20.72475 5.95131 -0.02845
C 20.65587 26.23923 -0.00478
C 20.69153 4.47497 -0.03213
C 21.04746 2.16635 0.01153
C 20.89197 0.82281 0.02734
C 19.68925 0.15083 -0.0055
C 22.08171 32.57871 0.01515
C 23.34107 31.84151 -0.00225
C 23.29838 30.41338 0.00071
C 22.01849 29.7119 -0.01107
C 22.13662 28.20352 -0.01586
C 23.30735 27.50689 -0.01971
C 19.96832 3.25832 0.02239
C 20.87684 27.64465 0.01511
C 19.5275 28.33008 0.00199
C 19.55442 29.77158 0.01087
C 17.20447 24.11315 0.00364
C 16.90747 20.46994 -0.00831
C 17.2437 17.07605 -0.02957
C 17.49261 15.73355 -0.04422
C 18.55121 14.83066 0.00654
C 18.41669 13.41772 -0.00703
C 17.21996 12.75194 -0.04076
C 17.21369 11.29644 -0.00652
C 18.403 10.54081 0.0058
C 18.38763 9.05273 -0.00865
C 17.20074 8.41277 0.00675
C 17.12408 7.01107 -0.00311
C 18.1256 5.91847 0.00742
C 17.30311 4.74985 -0.01594
C 17.37847 3.22261 0.0106
C 18.64946 2.51618 -0.01154
C 18.5465 0.92629 -0.01721
C 17.29636 0.13162 -0.02422
C 19.66059 32.69794 0.01277
C 20.80725 31.88105 0.00096
C 20.7733 30.51529 -0.01527
C 23.2821 13.5054 -0.02118
C 22.08314 12.7772 0.00733
C 22.01179 11.33239 -0.00178
C 23.26279 10.67598 0.00768
C 24.54704 4.24277 -0.00218
C 24.68163 2.7829 -0.01654
C 25.87399 2.15033 -0.00037
C 25.83912 0.69125 -0.0032
C 24.66689 34.00912 0.00622
C 26.98783 32.57984 -0.02815
C 28.23309 31.97139 -0.00942
C 28.20841 30.56552 0.00487
C 26.99909 29.80072 0.00826
C 27.03103 28.44829 -0.00294
C 28.2527 27.68423 0.00152
C 28.11426 26.30458 0.01257
C 28.11734 14.91219 0.02316
C 28.19986 13.47311 0.04185
C 27.01257 12.73932 0.00194
C 26.97808 11.39331 -0.00621
C 28.26678 10.65638 0.02611
C 28.27282 9.31125 0.02198
C 26.99618 8.52892 0.01094
C 26.94577 7.10989 0.00235
C 28.22047 6.41876 0.01495
C 25.71464 4.95493 -0.00802
C 26.95293 4.27111 0.01799
C 25.74997 6.391 0.00195
C 24.51325 8.49879 0.04306
C 23.24341 9.14692 -0.0276
C 22.02139 8.36569 0.03005
C 22.03573 6.96143 -0.04078
C 23.27955 6.32293 0.02117
C 23.3094 4.8529 0.02737
C 22.16627 4.07698 -0.00498
C 22.27272 2.72885 0.00135
C 23.46172 1.95635 0.03102
C 23.34081 0.49243 0.02555
C 22.0725 34.01661 0.01423
C 24.64192 32.58617 -0.00285
C 25.76819 31.86918 -0.009
C 25.78866 30.42954 -0.01199
C 24.54224 29.62816 -0.00229
C 24.65734 28.00785 -0.00938
C 25.92043 27.54165 -0.0264
C 25.83351 13.56103 -0.01154
C 24.65185 12.85681 0.00684
C 24.50779 11.40525 -0.01052
C 25.79616 10.67735 -0.01679
C 25.73865 9.23288 0.00367
C 24.50308 7.0845 0.00996
C 2.38079 32.7006 -0.01979
