353
Graphene
C 34.36476 34.07956 0.01295
C 12.11329 32.55272 -0.00114
C 13.39652 32.11362 0.00228
C 12.2534 17.09397 0.00798
C 12.28825 15.72252 0.00422
C 13.53689 14.96854 0.0351
C 13.52912 13.54523 -0.03113
C 12.30472 12.82541 0.02098
C 12.34577 11.3835 0.01848
C 9.71719 0.04072 -0.02696
C 13.53564 10.69153 -0.00619
C 12.38665 8.44836 0.00889
C 12.32715 7.01178 -0.00481
C 13.6012 6.35489 0.00979
C 13.57823 4.92715 0.01443
C 12.30129 4.19917 0.03505
C 12.291 2.77152 -0.02815
C 13.51579 2.06735 -0.04147
C 13.44711 0.63637 -0.05302
C 13.60109 9.19174 -0.02162
C 12.12889 33.97383 0.00213
C 10.9563 0.74327 -0.00368
C 9.83103 2.83243 -0.01957
C 7.2535 0.08238 0.02162
C 9.73223 32.73803 0.0076
C 10.8118 31.73334 0.01241
C 10.08404 30.24978 -0.01454
C 11.12212 17.66964 0.01945
C 9.85597 17.12285 0.01416
C 9.8538 15.66978 0.03542
C 11.13713 14.97888 0.02299
C 11.05157 2.13177 -0.0108
C 11.06241 13.53563 0.00244
C 9.84582 11.344 0.05265
C 11.1071 10.63009 -0.01952
C 11.15448 9.1759 -0.02813
C 9.93654 8.50778 0.00374
C 9.86258 7.05161 0.00052
C 11.13447 6.35623 -0.03682
C 11.08448 4.92692 0.01965
C 9.83409 4.24421 0.02058
C 9.82696 12.82129 -0.01717
C 8.47587 0.77877 -0.0014
C 14.79383 32.49586 -0.00066
C 15.17205 17.21413 0.00028
C 18.34361 13.58293 -0.017
C 17.13949 12.87064 0.00364
C 17.23429 11.35661 -0.00831
C 18.45276 10.63054 -0.02957
C 18.48682 9.24545 -0.04422
C 17.26772 8.53819 0.00654
C 17.16142 7.02771 -0.00703
C 18.39033 6.34892 -0.04076
C 18.41726 15.01504 0.00143
C 18.4568 4.9749 -0.00652
C 17.19028 2.78502 -0.00865
C 18.43787 2.10083 0.00675
C 18.35242 0.63318 -0.00311
C 17.13648 34.03557 0.00742
C 19.56543 32.58663 -0.01594
C 20.65403 31.77045 0.0106
C 20.96133 30.55626 -0.01154
C 20.89549 19.18127 -0.01721
C 17.16098 4.21976 0.0058
C 16.0617 31.91454 -0.00289
C 17.14512 15.65225 0.00667
C 18.25363 17.78208 0.00755
C 14.77349 15.77045 -0.02213
C 15.88551 14.99568 0.03698
C 15.91562 13.54317 -0.00109
C 14.73254 12.82641 -0.00491
C 14.71124 11.44854 0.03338
C 15.97729 10.7058 -0.0258
C 16.05939 9.26002 -0.0331
C 14.82683 8.52948 -0.00316
C 17.07287 17.09899 -0.0054
C 14.89089 7.05045 0.02188
C 15.92859 4.92936 0.02691
C 14.72997 4.15716 -0.01581
C 14.73586 2.71493 0.01452
C 16.00564 2.05422 0.04892
C 15.93924 0.67087 -0.00111
C 14.68592 33.96115 -0.03557
C 17.25369 32.58626 0.03754
C 18.41568 31.88009 0.01739
C 16.04201 6.26209 -0.01979
C 8.55277 2.18856 0.00415
C 7.39543 2.88798 -0.02162
C 7.33961 4.3102 0.01363
C 2.44899 7.13139 0.03007
C 3.62186 6.42729 -0.00095
C 3.68692 5.04822 0.01572
C 2.43816 4.3172 -0.04848
C 2.44163 2.85221 -0.00892
C 3.66796 2.18279 -0.01362
C 3.58918 0.7785 -0.0008
C 2.3865 0.04221 0.0288
C 2.51617 8.54293 0.00054
C 4.81194 32.68156 0.00393
C 6.15325 30.54433 0.00685
C 4.86825 29.8663 0.02888
C 4.90007 28.46207 -0.00482
C 6.13002 27.73878 -0.01384
C 6.2266 26.35352 0.03693
C 4.96741 25.54047 0.01745
C 5.01525 24.15436 0.00488
C 6.17052 23.34795 -0.01004
C 6.04849 31.96022 0.00895
C 6.12535 22.00105 -0.02896
C 3.68902 9.272 -0.00494
C 2.46893 11.34885 -0.01142
C 3.59882 30.58383 0.00988
C 2.42578 29.83518 0.0276
C 2.43483 28.43076 0.01305
C 3.65851 27.71969 -0.00077
C 3.66763 26.25026 0.03368
C 2.44115 25.54938 -0.02929
C 2.46724 24.18915 -0.00966
C 3.71593 23.49564 -0.03337
C 3.64322 10.64167 -0.00562
C 3.65768 22.05169 0.01227
C 2.39387 19.87117 -0.00049
C 3.6332 19.24499 0.00848
C 3.62981 17.82367 -0.01303
C 2.38771 17.03995 -0.01378
C 2.4525 15.59014 0.02635
C 3.63191 14.93881 0.0127
C 3.65727 13.49402 0.01396
C 2.43327 12.76874 0.01849
C 2.46627 21.34152 0.00873
C 4.92932 21.34076 -0.00131
C 4.95134 19.88128 -0.01118
C 6.17269 19.25724 -0.014
C 7.20695 25.36152 -0.01111
C 7.43182 24.21382 -0.01275
C 7.38264 21.36607 0.00985
C 7.58873 20.03559 -0.02245
C 8.46107 19.10818 -0.00428
C 8.65565 17.76448 0.03101
C 7.38856 17.04349 -0.01536
C 7.35922 15.59792 -0.02689
C 7.32879 28.47286 0.02841
C 8.66721 14.96853 -0.01046
C 7.41385 12.77766 0.02819
C 7.37314 11.38321 0.00165
C 8.62789 10.67186 -0.02971
C 8.65546 9.21397 0.02894
C 7.43436 8.56407 -0.01789
C 7.41686 7.14793 0.00444
C 8.64699 6.4103 -0.00925
C 8.57704 4.97532 0.01877
C 8.60929 13.51897 -0.00891
C 7.42381 29.79885 0.00943
C 8.6161 30.54732 0.00406
C 8.50376 32.00758 0.03592
C 6.14634 17.82822 0.02147
C 4.85442 17.08879 0.00373
C 4.8952 15.64006 -0.00191
C 6.16714 14.91721 0.00438
C 6.11113 13.50206 0.01291
C 4.90323 12.8198 0.00093
C 4.90198 11.39018 0.00057
C 6.16233 10.64954 -0.01634
C 6.20917 9.22145 -0.00334
C 4.89288 8.56658 0.02339
C 4.86134 7.12708 0.01641
C 6.1685 6.4468 -0.00719
C 6.08674 5.0141 0.01364
C 4.88247 4.3135 -0.01062
C 4.92395 2.88108 -0.00033
C 6.1524 2.23752 0.03589
C 6.0534 0.79666 -0.02759
C 4.88012 0.03994 0.0402
C 7.2421 32.67028 0.00572
C 20.82689 17.82889 -0.02422
C 3.5805 31.93521 -0.01343
C 19.63604 17.11859 0.01277
C 20.77262 15.02895 -0.01527
C 31.80619 32.54164 -0.01694
C 33.04805 31.86901 0.01428
C 33.12754 30.45667 -0.02142
C 32.08545 29.38584 0.0544
C 32.9541 28.02875 0.00026
C 33.02818 26.51282 0.00682
C 32.13493 25.56384 -0.01779
C 31.79547 24.25655 0.03794
C 29.49751 0.08367 0.01713
C 33.19687 23.48885 0.01927
C 31.99639 21.28139 -0.02383
C 31.97771 19.88283 -0.01429
C 33.14869 19.16995 -0.0136
C 33.14749 17.81839 0.00594
C 31.95898 17.07254 -0.02474
C 31.92801 15.6367 0.00369
C 33.19863 14.94077 0.00455
C 33.16499 13.53451 -0.00644
C 33.17181 22.06312 0.01574
C 31.94721 12.76204 -0.01839
C 30.73737 0.69771 0.00346
C 29.54559 2.8354 0.00716
C 30.80623 22.00237 -0.03039
C 29.54695 21.19367 0.01836
C 29.52492 19.82833 0.03531
C 30.7613 19.11631 -0.00669
C 30.67951 17.74434 0.0101
C 29.53029 16.94049 0.01705
C 29.4888 15.57615 -0.0405
C 30.69069 14.83704 -0.01303
C 30.73925 2.0942 0.00307
C 30.7214 13.45074 -0.01461
C 29.52097 11.35531 -0.00944
C 30.75709 10.72682 -0.03735
C 30.79068 9.21952 -0.00971
C 29.59911 8.45455 0.01518
C 29.56701 7.09289 0.01908
C 30.78744 6.43252 0.07705
C 30.79686 4.99386 0.0103
C 29.58065 4.30826 0.02108
C 29.53824 12.77542 -0.02155
C 30.70172 23.35602 -0.01415
C 31.98978 11.32157 0.00137
C 33.20626 9.24504 0.04381
C 1.16227 19.17927 -0.01678
C 1.18541 17.75827 0.01223
C 34.3837 17.05405 0.00648
C 34.41593 15.6888 0.02114
C 1.18227 14.94305 -0.02957
C 1.19856 13.53912 0.00343
C 34.35406 12.79001 -0.02656
C 34.39649 11.42256 -0.02442
C 34.34332 19.88439 0.01951
C 1.16831 10.6157 -0.00027
C 34.42699 8.49219 -0.02302
C 0.04473 7.09201 -0.02849
C 1.21198 6.36545 0.02931
C 1.21547 4.93414 0.00628
C 34.42811 4.21041 -0.0345
C 34.43309 2.85079 -0.00931
C 1.19152 2.15465 -0.00939
C 1.15517 0.73096 -0.00468
C 1.25212 9.16896 -0.00583
C 33.1979 10.62789 0.00199
C 34.32804 21.31446 -0.02213
C 1.20121 23.53785 0.00723
C 32.04185 8.50042 0.02806
C 32.00666 7.12886 0.01504
C 33.22872 6.41083 -0.00069
C 33.22847 4.98833 0.04926
C 31.98405 4.19973 -0.03838
C 32.00227 2.82568 0.00349
C 33.2314 2.11075 -0.00323
C 33.13899 0.69013 -0.00841
C 1.15579 22.07347 0.02712
C 31.89479 34.00726 0.0001
C 1.11055 31.96328 -0.01404
C 1.21689 30.49947 0.01027
C 34.38311 29.82881 0.01831
C 34.34236 28.48571 -0.01037
C 1.17195 27.67505 -0.00439
C 1.18345 26.27555 -0.00598
C 34.367 25.671 -0.05239
C 34.3638 24.2269 0.03076
C 34.26201 32.63884 -0.02927
C 30.55413 31.995 -0.01854
C 29.45693 32.73352 -0.02049
C 27.11763 0.07942 0.03265
C 23.29871 19.2453 -0.01586
C 23.34804 17.84313 -0.01971
C 22.07591 17.07567 -0.02118
C 22.02125 15.67196 0.00733
C 23.32305 14.96443 -0.00178
C 23.3011 13.57191 0.00768
C 22.11478 12.87833 -0.0276
C 22.17198 11.33606 0.03005
C 22.04194 19.91685 -0.01107
C 23.4202 10.6367 -0.04078
C 22.18457 8.5152 0.02737
C 22.13913 7.09755 -0.00498
C 23.38703 6.37868 0.00135
C 23.32596 4.93277 0.03102
C 22.0964 4.22549 0.02555
C 22.14914 2.85163 0.01423
C 23.41077 2.05015 -0.00285
C 23.27175 0.60242 -0.009
C 23.37718 9.2398 0.02117
C 22.06789 33.94463 -0.01199
C 22.06813 21.27991 0.00071
C 23.56161 23.32903 0.01515
C 20.85072 13.55109 0.01087
C 19.6053 12.82172 0.00199
C 19.62549 11.38557 0.01511
C 20.8802 10.6328 -0.00478
C 20.91769 9.20097 -0.01662
C 19.68982 8.51363 -0.01185
C 19.64049 7.08747 0.01126
C 20.77985 6.34821 0.01852
C 23.14672 21.99865 -0.00225
C 20.9362 4.96175 -0.00381
C 19.65182 2.80713 0.0296
C 20.83185 2.08636 0.03374
C 20.86091 0.64094 -0.02845
C 19.61775 34.0424 -0.03213
C 21.94639 32.57992 0.02239
C 23.36492 31.9868 0.01153
C 21.82594 29.51293 0.02734
C 22.4613 28.3455 -0.0055
C 19.6771 4.25515 0.03046
C 24.37364 32.63861 -0.00229
C 25.84281 21.99466 -0.00938
C 24.59441 21.30021 -0.0264
C 28.29121 19.1545 0.00194
C 28.2728 17.68967 -0.00621
C 27.0611 17.01793 0.02611
C 27.02531 15.60229 0.02198
C 28.26668 14.90159 0.01094
C 28.30044 13.50594 0.00235
C 27.00779 12.79917 0.01495
C 27.01739 11.36291 0.01259
C 27.12589 19.95601 0.04185
C 28.2541 10.68491 0.01799
C 27.12178 8.53583 -0.00416
C 27.0971 7.1491 0.01177
C 28.32637 6.36544 0.04266
C 28.37345 5.0014 0.01324
C 27.14552 4.28622 0.0014
C 27.06983 2.84478 0.00924
C 28.29476 2.15423 0.02326
C 28.32924 0.78107 0.00261
C 28.38486 9.2531 0.01699
C 27.0679 21.39877 0.02316
C 28.40189 21.88435 0.01257
C 24.58689 34.01706 0.00152
C 24.63145 19.86198 -0.01154
C 25.89245 19.20391 0.00684
C 25.8872 17.74143 -0.01052
C 24.66203 17.11842 -0.01679
C 24.58749 15.70927 0.00367
C 25.84425 14.92445 0.04306
C 25.77312 13.50835 0.00996
C 24.56733 12.84266 0.00195
C 24.63287 11.42679 -0.00802
C 25.80854 10.65899 -0.00218
C 25.84151 9.21727 -0.01654
C 24.62263 8.5155 -0.00037
C 24.63694 7.14094 -0.0032
C 25.89398 6.44288 0.00622
C 25.86717 4.97699 -0.02815
C 24.59959 4.25861 -0.00942
C 24.61465 2.81174 0.00487
C 25.84813 2.10564 0.00826
C 25.82594 0.69357 -0.00294
C 19.58378 15.71132 0.00096
C 2.34851 32.70565 0.01087
