357
Graphene
C 0.01671 0.07091 0.01295
C 13.54058 0.69239 -0.0108
C 12.26224 34.03958 -0.00368
C 14.61433 32.60533 -0.02696
C 15.90051 31.85356 -0.00114
C 15.87673 30.48711 0.00228
C 14.67095 29.74629 0.00798
C 14.69131 28.1097 0.00422
C 15.98393 27.64056 0.0351
C 13.53722 2.08973 -0.01957
C 16.06818 9.35548 -0.03113
C 14.86256 7.18266 0.01848
C 16.07996 6.51406 -0.00619
C 16.00567 5.04974 -0.02162
C 14.7505 4.32246 0.00889
C 14.73659 2.93608 -0.00481
C 15.9623 2.09571 0.00979
C 15.9811 0.66814 0.01443
C 14.66702 34.03584 0.03505
C 14.91242 8.70183 0.02098
C 17.0871 32.58353 -0.02815
C 12.25089 2.84798 0.02058
C 13.47372 5.03772 -0.03682
C 9.90013 7.28945 -0.02162
C 11.09461 6.54865 0.00415
C 11.09365 4.99154 -0.0014
C 9.85019 4.35898 0.02162
C 9.77543 2.9652 0.0076
C 11.01977 2.18204 0.01241
C 11.05488 0.68442 -0.01454
C 9.77985 34.05163 0.01945
C 12.35678 4.24742 0.01965
C 12.23394 32.73538 0.01416
C 13.42939 30.50037 0.02299
C 12.12265 29.77914 0.00244
C 12.2038 28.30021 -0.01717
C 13.43276 27.63593 0.05265
C 13.57081 9.25798 -0.01952
C 12.37954 8.73799 -0.02813
C 12.3656 7.25096 0.00374
C 13.58821 6.55669 0.00052
C 13.40014 31.92693 0.03542
C 18.30573 31.97258 -0.04147
C 18.2877 30.49273 -0.05302
C 17.11719 29.76643 0.00213
C 20.91322 9.01045 0.00667
C 19.74059 8.30081 0.00143
C 19.7328 6.99569 -0.017
C 20.94857 6.27436 0.00364
C 20.91479 4.81768 -0.00831
C 19.68347 4.15321 -0.02957
C 19.6875 2.82576 -0.04422
C 20.92232 2.05814 0.00654
C 20.97817 10.34079 -0.0054
C 20.96025 0.66919 -0.00703
C 22.12219 32.65901 -0.00652
C 23.35195 31.974 0.0058
C 23.22006 30.42232 -0.00865
C 22.05982 29.77815 0.00675
C 22.11458 28.40804 -0.00311
C 23.33921 27.68441 0.00742
C 23.26619 26.23397 -0.01594
C 22.02848 25.56845 0.0106
C 19.66646 34.00459 -0.04076
C 20.97964 23.13533 0.00755
C 19.56994 25.66084 0.01739
C 20.83399 26.26336 0.03754
C 17.15432 28.33465 -0.00066
C 18.33571 27.64801 -0.00289
C 18.43864 26.23287 0.00028
C 18.55001 9.12245 -0.02213
C 17.26605 8.63833 0.03698
C 17.34334 7.14929 -0.00109
C 18.48496 6.3288 -0.00491
C 18.43736 4.89987 0.03338
C 17.18546 4.20953 -0.0258
C 17.16878 2.74714 -0.0331
C 18.39321 2.0627 -0.00316
C 18.41007 0.66211 0.02188
C 17.18538 34.07726 -0.01979
C 19.65837 32.65288 0.02691
C 20.82776 31.90579 -0.01581
C 20.79996 30.48084 0.01452
C 19.53787 29.7789 0.04892
C 19.64781 28.3175 -0.00111
C 20.89438 27.66867 -0.03557
C 9.90575 8.80875 0.01363
C 11.11208 9.42112 0.01877
C 9.67309 25.65018 -0.00925
C 10.8493 26.27636 0.00444
C 3.73514 6.42503 -0.00562
C 3.71019 5.0651 -0.00494
C 2.51246 4.33172 0.00054
C 2.50164 2.93017 0.03007
C 3.69378 2.20586 -0.00095
C 3.66568 0.85602 0.01572
C 2.48963 0.07239 -0.04848
C 4.88733 32.75543 -0.00892
C 2.53583 7.16799 -0.01142
C 6.10301 31.99897 -0.01362
C 4.90332 29.79602 0.0288
C 4.81687 28.43741 0.00393
C 6.01378 27.65933 0.00895
C 6.07063 26.15449 0.00685
C 4.84401 25.56429 0.02888
C 4.86648 24.14255 -0.00482
C 6.13339 23.33561 -0.01384
C 6.13674 22.04165 0.03693
C 6.09232 30.56455 -0.0008
C 2.48953 8.60668 0.01849
C 3.64525 9.34552 0.01396
C 3.70212 10.75293 0.0127
C 3.72134 30.59935 -0.00725
C 2.44477 29.92155 -0.05697
C 2.40742 28.49923 0.01087
C 3.62629 27.7166 -0.01343
C 3.59959 26.31986 0.00988
C 2.37553 25.5531 0.0276
C 2.41154 24.10114 0.01305
C 3.60384 23.39173 -0.00077
C 3.66249 21.88616 0.03368
C 2.43433 21.30375 -0.02929
C 2.4245 19.81957 -0.00966
C 3.67012 19.11171 -0.03337
C 3.54662 17.75613 0.01227
C 2.35766 17.04296 0.00873
C 2.39457 15.69081 -0.00049
C 3.60987 14.96874 0.00848
C 3.57902 13.5726 -0.01303
C 2.44639 12.9039 -0.01378
C 2.36354 11.42754 0.02635
C 4.93886 21.2675 0.01745
C 22.04199 24.2413 -0.01154
C 4.84691 19.83149 0.00488
C 4.83095 15.52909 -0.02896
C 7.47425 11.4434 0.00406
C 8.48801 10.75043 0.00943
C 8.67986 9.45809 0.02841
C 7.43357 8.69935 -0.01111
C 7.47676 7.31859 -0.01275
C 8.72651 6.5104 0.00985
C 8.66924 5.06199 -0.02245
C 7.41444 4.42379 -0.00428
C 7.38034 24.13519 0.03592
C 7.32803 2.9067 0.03101
C 8.54138 0.78942 -0.02689
C 7.3946 0.04997 -0.01046
C 9.83419 32.6474 -0.00891
C 11.04082 31.968 0.02819
C 10.94314 30.6006 0.00165
C 9.69283 29.91728 -0.02971
C 9.72745 28.2994 0.02894
C 10.98355 27.70087 -0.01789
C 8.56424 2.22204 -0.01536
C 7.2938 25.48255 0.00572
C 8.44642 26.30595 0.0402
C 8.474 27.72648 -0.02759
C 6.02282 13.79819 -0.00131
C 4.88787 12.97553 -0.01118
C 4.83002 11.59965 -0.014
C 6.11445 10.89291 0.02147
C 6.21835 9.43984 0.00373
C 4.95799 8.58544 -0.00191
C 4.96364 7.19339 0.00438
C 6.2618 6.51444 0.01291
C 6.15742 5.13441 0.00093
C 4.90649 4.39901 0.00057
C 4.93216 2.98023 -0.01634
C 6.11046 2.20461 -0.00334
C 6.12978 0.75943 0.02339
C 4.95751 0.09168 0.01641
C 7.29109 32.68042 -0.00719
C 8.56564 31.98742 0.01364
C 8.50166 30.57156 -0.01062
C 7.30732 29.85276 -0.00033
C 7.23508 28.44323 0.03589
C 4.91849 16.82996 -0.01004
C 3.70536 32.0407 0.02322
C 23.19438 23.56088 -0.01721
C 23.3773 19.09678 0.01277
C 32.03039 32.64169 0.01713
C 33.27957 31.96209 -0.01694
C 33.13325 30.60382 0.01428
C 31.92 29.84255 -0.02142
C 31.96948 28.4183 0.0544
C 33.21024 27.74566 0.00026
C 33.19026 26.28523 0.00682
C 31.84431 25.53546 -0.01779
C 29.53005 0.0089 0.00346
C 31.92942 24.1328 0.03794
C 33.18649 22.00559 0.01574
C 31.97972 21.37203 -0.02383
C 31.83875 19.88361 -0.01429
C 33.10972 19.18207 -0.0136
C 33.09442 17.76263 0.00594
C 31.84877 17.17015 -0.02474
C 31.79564 15.6006 0.00369
C 33.04439 14.98108 0.00455
C 33.17765 23.39111 0.01927
C 33.14479 13.59 -0.00644
C 30.7777 0.70899 0.00307
C 29.41621 2.86154 0.02108
C 30.68078 22.07522 -0.01415
C 29.41354 21.31571 -0.03039
C 29.42573 19.93166 0.01836
C 30.61252 19.22159 0.03531
C 30.5829 17.80092 -0.00669
C 29.40772 17.01074 0.0101
C 29.35383 15.58879 0.01705
C 30.61102 14.86463 -0.0405
C 30.71103 2.1576 0.00716
C 30.61716 13.48425 -0.01303
C 29.45768 11.31482 -0.02155
C 30.69324 10.60199 -0.00944
C 30.70377 9.16561 -0.03735
C 29.40884 8.46188 -0.00971
C 29.44126 7.14693 0.01518
C 30.65351 6.46547 0.01908
C 30.67264 5.02499 0.07705
C 29.48037 4.27067 0.0103
C 29.44785 12.74165 -0.01461
C 31.89096 12.88762 -0.01839
C 31.92162 11.35564 0.00137
C 33.17824 10.77989 0.00199
C 1.13466 19.12516 -0.01678
C 1.07464 17.78498 0.01223
C 34.28265 17.07584 0.00648
C 34.301 15.70865 0.02114
C 1.18288 15.0153 -0.02957
C 1.13214 13.5634 0.00343
C 34.33553 12.8081 -0.02656
C 34.37257 11.45146 -0.02442
C 34.40458 19.88714 0.01951
C 1.13911 10.78048 -0.00027
C 34.41524 8.66367 -0.02302
C 0.0055 7.18574 -0.02849
C 1.24702 6.52359 0.02931
C 1.30707 5.05657 0.00628
C 0.01477 4.39104 -0.0345
C 34.4287 2.89612 -0.00931
C 1.27515 2.26825 -0.00939
C 1.2261 0.79937 -0.00468
C 1.22044 9.38304 -0.00583
C 34.34744 21.26877 -0.02213
C 1.18708 21.97515 0.02712
C 1.19755 23.3411 0.00723
C 33.17322 9.25368 0.04381
C 31.94864 8.50187 0.02806
C 31.98524 7.02554 0.01504
C 33.23552 6.43737 -0.00069
C 33.20506 4.93905 0.04926
C 31.94658 4.32091 -0.03838
C 31.98969 2.85481 0.00349
C 33.26732 2.12501 -0.00323
C 33.18178 0.66874 -0.00841
C 31.95308 0.009 0.0001
C 0.01938 32.75268 -0.02927
C 1.21453 32.0763 -0.01404
C 1.17171 30.53832 0.01027
C 34.37328 29.90421 0.01831
C 0.00993 28.48686 -0.01037
C 1.2604 27.76885 -0.00439
C 1.24891 26.27171 -0.00598
C 34.41247 25.53128 -0.05239
C 34.36974 24.09441 0.03076
C 30.63154 23.5271 -0.01854
C 29.43721 24.12145 -0.02049
C 29.42644 25.55503 0.03265
C 30.60238 26.27368 0.00261
C 24.57681 25.58364 -0.01107
C 24.50118 24.20497 -0.01586
C 25.66292 23.47925 -0.01971
C 25.60374 22.10068 -0.02118
C 24.3203 21.35774 0.00733
C 24.39707 19.91957 -0.00178
C 25.69063 19.19483 0.00768
C 25.73223 17.77664 -0.0276
C 25.78144 26.41047 0.00071
C 24.45189 17.06455 0.03005
C 25.62273 14.91372 0.02117
C 25.7048 13.43331 0.02737
C 24.5086 12.77172 -0.00498
C 24.50433 11.3553 0.00135
C 25.73952 10.64397 0.03102
C 25.73247 9.27574 0.02555
C 24.54867 8.45887 0.01423
C 24.59454 7.10515 -0.00285
C 24.34732 15.60942 -0.04078
C 25.70675 27.77325 -0.00225
C 24.52565 28.42304 0.01515
C 24.47823 29.75796 -0.0055
C 23.32742 17.80017 0.00096
C 23.2463 14.8843 -0.01527
C 23.13148 13.5083 0.01087
C 22.02377 12.68052 0.00199
C 21.92422 11.29702 0.01511
C 23.24412 10.64223 -0.00478
C 23.34254 9.20678 -0.01662
C 22.22449 8.37333 -0.01185
C 22.14505 7.00149 0.01126
C 23.37075 6.30605 0.01852
C 23.32249 4.84823 -0.00381
C 22.17052 4.15349 0.03046
C 22.12559 2.80962 0.0296
C 23.40031 1.96767 0.03374
C 23.3389 0.62438 -0.02845
C 22.11145 34.04651 -0.03213
C 24.50911 32.64389 0.02239
C 25.74741 31.9411 0.01153
C 25.70492 30.51501 0.02734
C 25.81199 6.3489 -0.009
C 23.07182 22.072 -0.02422
C 25.80155 4.95437 -0.01199
C 24.55361 2.72907 -0.00938
C 27.00489 11.27702 0.04185
C 28.26135 10.57796 0.00194
C 28.21009 9.19831 -0.00621
C 26.9545 8.57201 0.02611
C 27.00843 7.16553 0.02198
C 28.22087 6.35789 0.01094
C 28.23285 4.92345 0.00235
C 27.02127 4.21142 0.01495
C 26.97229 12.75543 0.02316
C 26.99073 2.76961 0.01259
C 28.28727 0.64826 0.01699
C 27.01283 34.04469 -0.00416
C 29.5228 32.71705 0.01177
C 30.76583 32.00388 0.04266
C 30.71419 30.55006 0.01324
C 29.4524 29.84517 0.0014
C 29.50992 28.34534 0.00924
C 30.68635 27.66854 0.02326
C 28.24876 2.12598 0.01799
C 28.23671 13.43982 0.01257
C 28.16332 14.79137 0.00152
C 26.88624 15.54049 -0.00294
C 25.7911 2.08543 -0.0264
C 25.79342 0.67035 -0.01154
C 24.56794 0.01926 0.00684
C 26.98257 32.65028 -0.01052
C 28.22985 31.91781 -0.01679
C 28.26173 30.55735 0.00367
C 26.9338 29.88168 0.04306
C 26.97114 28.45625 0.00996
C 28.11266 27.76549 0.00195
C 28.23525 26.3654 -0.00802
C 26.96058 25.61795 -0.00218
C 27.00547 24.23367 -0.01654
C 28.14336 23.491 -0.00037
C 28.19701 22.08858 -0.0032
C 26.93914 21.33129 0.00622
C 26.94492 19.87731 -0.02815
C 28.27072 19.13412 -0.00942
C 28.17935 17.73354 0.00487
C 26.9737 17.01748 0.00826
C 24.6601 4.13634 -0.00229
C 2.40819 32.77599 -0.00094
