284
Graphene
C 34.35179 0.02436 0.01295
C 14.67638 7.17421 0.0106
C 14.7146 8.54027 -0.01594
C 15.95755 9.23003 0.00742
C 16.01133 10.66635 -0.00311
C 14.81626 11.37071 0.00675
C 14.78927 12.89247 -0.00865
C 16.07375 13.60588 0.0058
C 12.20041 34.0367 -0.00652
C 13.52593 0.33271 -0.04076
C 13.58125 1.9667 -0.00703
C 12.38125 2.77562 0.00654
C 12.36265 4.28214 -0.04422
C 13.57449 4.99505 -0.02957
C 13.45046 6.45585 -0.00831
C 12.25223 7.04082 0.00364
C 12.28926 8.53266 -0.017
C 13.48703 9.34681 0.00143
C 11.06338 9.30086 -0.00316
C 9.76291 8.58153 0.02188
C 9.81773 7.11442 -0.01979
C 11.03664 6.35289 0.02691
C 11.14698 4.99116 -0.01581
C 9.90938 4.34643 0.01452
C 15.98989 6.39612 -0.01154
C 9.87295 2.89336 0.04892
C 11.02054 0.8396 -0.03557
C 9.89537 0.06751 0.03754
C 13.58094 13.46211 0.01739
C 12.34045 12.92573 0.00755
C 12.32658 11.40144 -0.0054
C 13.55422 10.69914 0.00667
C 11.13216 2.17754 -0.00111
C 16.02264 4.91855 -0.01721
C 14.76643 4.19298 -0.02422
C 14.77171 2.81899 0.01277
C 18.3871 2.11226 0.02734
C 18.45944 0.61922 -0.0055
C 17.23821 33.98437 0.01515
C 19.80479 32.55129 -0.00225
C 21.14092 31.79846 0.00071
C 20.81053 30.55418 -0.01107
C 17.25184 2.8245 0.01153
C 19.85201 29.67492 -0.01586
C 20.83772 17.78814 -0.02118
C 19.74242 17.08756 0.00733
C 19.52834 15.7437 -0.00178
C 20.89887 14.93058 0.00768
C 20.88235 13.57691 -0.0276
C 19.63733 12.86959 0.03005
C 21.15287 19.04098 -0.01971
C 11.03763 10.65737 -0.0331
C 17.1946 4.28346 0.02239
C 18.44993 6.37452 -0.02845
C 15.99359 2.05876 0.00096
C 16.09319 0.69668 -0.01527
C 14.8238 0.16437 0.01087
C 17.3114 32.62805 0.00199
C 18.50805 31.98439 0.01511
C 16.99979 15.48727 -0.00478
C 18.38757 4.97281 -0.03213
C 18.3418 14.94951 -0.01662
C 17.20451 12.71464 0.01126
C 17.23051 11.35573 0.01852
C 18.50913 10.64291 -0.00381
C 18.42472 9.16269 0.03046
C 17.18295 8.53992 0.0296
C 17.21899 7.09766 0.03374
C 18.40652 13.43057 -0.01185
C 19.72132 11.3244 -0.04078
C 9.81207 11.39722 -0.0258
C 11.0895 13.38316 -0.00491
C 4.77048 32.65226 0.05265
C 2.4178 0.11727 -0.01717
C 3.64905 0.79309 0.00244
C 3.67635 2.21321 0.02299
C 2.36031 2.78672 0.03542
C 2.43426 4.25414 0.01416
C 3.71107 4.96934 0.01945
C 3.66023 6.38651 -0.01454
C 2.37907 7.13938 0.01241
C 2.3966 8.52868 0.0076
C 3.61136 9.23079 0.02162
C 3.57623 10.65482 -0.0014
C 2.30635 11.4098 0.00415
C 2.37442 12.8157 -0.02162
C 3.60473 13.4945 0.01363
C 3.67626 14.93405 0.01877
C 2.47497 15.62854 -0.00925
C 3.68396 30.51219 0.00985
C 2.46255 29.79857 -0.02245
C 2.40437 28.42986 -0.00428
C 3.51503 27.64463 0.03101
C 3.74331 26.27182 -0.01536
C 2.52535 25.54159 -0.02689
C 5.99714 32.05083 -0.01952
C 2.47952 24.20865 -0.01046
C 3.61677 22.05205 0.02819
C 2.52931 21.22102 0.00165
C 2.44189 19.85164 -0.02971
C 3.5887 19.12645 0.02894
C 3.75855 17.74497 -0.01789
C 2.42698 17.04017 0.00444
C 3.57947 23.36456 -0.00891
C 4.89326 29.8323 -0.02813
C 4.85506 16.94934 0.00374
C 4.95111 15.67821 0.00052
C 8.70595 13.50448 -0.00481
C 7.42277 12.84605 0.00979
C 7.3074 11.45637 0.01443
C 8.58539 10.6597 0.03505
C 8.55202 9.25598 -0.02815
C 7.32102 8.63083 -0.04147
C 8.55542 14.88404 0.00889
C 7.29655 7.15803 -0.05302
C 8.59577 5.05558 -0.00066
C 7.43125 4.20452 -0.00289
C 7.47856 2.78179 0.00028
C 8.62511 2.12909 -0.02213
C 8.60958 0.66923 0.03698
C 7.41068 34.04631 -0.00109
C 8.51839 6.38369 0.00213
C 9.86253 12.79411 0.03338
C 7.37445 15.51042 -0.02162
C 4.84266 34.07619 0.01848
C 6.14088 14.92474 -0.03682
C 6.18475 13.54401 0.01965
C 4.81327 12.78092 0.02058
C 4.80883 11.41522 -0.01957
C 6.06449 10.71638 -0.0108
C 6.11237 9.30803 -0.00368
C 7.29191 32.68704 -0.00619
C 4.85072 8.53597 -0.02696
C 6.1236 6.4413 0.00228
C 6.22356 4.92133 0.00798
C 4.96728 4.28211 0.00422
C 4.96062 2.84984 0.0351
C 6.15525 2.12533 -0.03113
C 6.15125 0.74352 0.02098
C 4.89662 7.15571 -0.00114
C 20.94455 10.6477 0.02117
C 20.91229 9.22059 0.02737
C 19.67772 8.45329 -0.00498
C 33.15532 4.9862 0.04926
C 33.25327 6.4145 -0.00069
C 31.96134 7.16369 0.01504
C 31.95548 8.53564 0.02806
C 33.20865 9.13816 0.04381
C 33.18814 10.64645 0.00199
C 31.92854 11.32447 0.00137
C 31.91497 12.74943 -0.01839
C 33.13432 13.53454 -0.00644
C 33.11182 14.92739 0.00455
C 31.92747 15.61519 0.00369
C 31.90507 17.05072 -0.02474
C 33.09691 17.88952 0.00594
C 33.18945 19.24238 -0.0136
C 31.96339 19.898 -0.01429
C 33.31985 22.21123 -0.02383
C 33.27903 30.56114 0.01574
C 29.4602 11.31404 0.02108
C 30.66889 10.6167 0.00716
C 30.73562 9.24868 0.00307
C 29.52674 8.48605 0.00346
C 29.4743 7.13659 0.01713
C 30.76192 6.45725 -0.01694
C 31.91181 4.3186 -0.03838
C 30.70385 5.0809 0.01428
C 29.44947 2.91987 0.0544
C 30.63387 2.19321 0.00026
C 30.67736 0.77691 0.00682
C 29.5785 0.07283 -0.01779
C 32.02331 32.80205 0.03794
C 33.04962 31.87032 0.01927
C 29.48164 4.3867 -0.02142
C 31.86974 2.94243 0.00349
C 33.10758 2.20464 -0.00323
C 33.13885 0.80927 -0.00841
C 1.20142 14.91188 -0.02957
C 1.12086 13.49087 0.00343
C 34.27327 12.75856 -0.02656
C 34.34521 11.36135 -0.02442
C 1.15694 10.60153 -0.00027
C 1.214 9.19377 -0.00583
C 34.32957 15.626 0.02114
C 0.00602 8.46496 -0.02302
C 1.25091 6.36255 0.02931
C 1.268 4.98649 0.00628
C 34.39598 4.32793 -0.0345
C 34.33995 2.93419 -0.00931
C 1.16808 2.17968 -0.00939
C 1.18307 0.7625 -0.00468
C 0.05411 7.08828 -0.02849
C 29.4787 12.69823 0.0103
C 34.41209 17.12273 0.00648
C 1.16911 19.23045 -0.01678
C 31.95645 0.10825 0.0001
C 34.40068 32.68834 -0.02927
C 1.23868 32.0142 -0.01404
C 1.21953 30.54926 0.01027
C 34.37592 29.75919 0.01831
C 0.05041 28.44109 -0.01037
C 1.1931 17.83752 0.01223
C 1.21147 27.64939 -0.00439
C 0.0121 25.52937 -0.05239
C 0.27619 24.20621 0.03076
C 1.29994 23.43734 0.00723
C 1.27808 22.02655 0.02712
C 0.00234 21.39045 -0.02213
C 34.39598 19.93948 0.01951
C 1.19795 26.24044 -0.00598
C 30.72665 13.48888 0.07705
C 30.6902 14.96252 0.01908
C 29.48751 15.62586 0.01518
C 23.34024 10.69401 -0.00802
C 23.37913 9.34493 -0.00218
C 22.15234 8.55332 -0.01654
C 22.12868 7.03649 -0.00037
C 23.4108 6.35212 -0.0032
C 23.37703 4.96748 0.00622
C 22.19817 11.41378 0.00195
C 22.14215 4.23997 -0.02815
C 23.30972 2.14874 0.00487
C 23.271 0.71311 0.00826
C 22.03478 0.02726 -0.00294
C 25.76978 17.67951 0.00152
C 24.59713 17.04092 0.01257
C 24.5894 15.65438 0.02316
C 22.04793 2.7953 -0.00942
C 25.88139 14.89769 0.04185
C 22.05865 12.83278 0.00996
C 23.37607 14.98684 0.00367
C 19.65595 7.03999 0.00135
C 20.8909 6.37318 0.03102
C 20.96912 4.93566 0.02555
C 19.68726 4.28277 0.01423
C 19.65916 2.81638 -0.00285
C 20.82355 2.06679 -0.009
C 23.38591 13.49941 0.04306
C 20.84449 0.65869 -0.01199
C 22.09693 32.68912 -0.00938
C 22.20749 19.89081 -0.0264
C 23.27465 19.18526 -0.01154
C 23.43605 17.88303 0.00684
C 22.14681 17.10877 -0.01052
C 22.15828 15.72057 -0.01679
C 19.66576 33.98427 -0.00229
C 3.62102 31.90691 -0.01275
C 25.91642 13.51017 0.00194
C 24.57927 11.4142 0.02611
C 28.27972 10.61603 -0.01415
C 28.29012 9.17341 -0.03039
C 26.9433 8.52448 0.01836
C 26.96103 7.11561 0.03531
C 28.31231 6.42629 -0.00669
C 28.23529 4.98305 0.0101
C 27.09447 11.37741 -0.01854
C 26.9551 4.24797 0.01705
C 28.15912 2.28784 -0.01303
C 28.26154 0.6751 -0.01461
C 26.99278 0.19552 -0.02155
C 30.83655 19.09604 -0.00944
C 30.64066 17.79495 -0.03735
C 29.39982 17.12749 -0.00971
C 26.92229 2.82875 -0.0405
C 24.65264 12.81612 -0.00621
C 27.07663 12.75972 -0.02049
C 28.24309 14.92127 0.00261
C 25.80307 10.68449 0.02198
C 25.78452 9.2743 0.01094
C 24.59436 8.54481 0.00235
C 24.59069 7.12897 0.01495
C 25.79956 6.45852 0.01259
C 25.76179 4.97468 0.01799
C 28.3029 13.46804 0.03265
C 24.56869 4.22445 0.01699
C 25.6889 2.05214 0.01177
C 25.70196 0.53788 0.04266
C 24.45067 0.00055 0.01324
C 28.22311 17.81032 0.0014
C 26.99477 17.22736 0.00924
C 27.06906 15.68244 0.02326
C 24.58108 2.81469 -0.00416
C 2.47237 32.7245 -0.01111
