358
Graphene
C 0.01376 0.02472 0.01295
C 14.78331 29.8009 -0.01957
C 14.70005 15.66031 -0.0108
C 15.99378 14.94223 -0.00368
C 16.00991 13.44893 -0.02696
C 14.79755 12.80919 -0.00114
C 14.77333 11.39511 0.00228
C 15.9399 10.61926 0.00798
C 15.92617 9.2383 0.00422
C 15.96261 30.40172 0.02058
C 14.75391 8.48074 0.0351
C 16.02476 6.39484 0.02098
C 16.02323 4.92427 0.01848
C 14.7949 4.25507 -0.00619
C 14.78047 2.83751 -0.02162
C 15.95787 2.20515 0.00889
C 15.97487 0.69893 -0.00481
C 14.74072 34.02468 0.00979
C 17.17944 32.6451 0.01443
C 14.79615 7.02213 -0.03113
C 18.4006 31.91251 0.03505
C 15.97834 31.9831 0.01965
C 12.28099 34.0319 0.00052
C 12.29806 32.69511 0.01363
C 13.46037 31.98998 -0.02162
C 13.52107 30.55602 0.00415
C 12.33967 29.84443 -0.0014
C 13.57614 14.93998 0.02162
C 13.53844 13.48194 0.0076
C 12.28057 12.78571 0.01241
C 12.31142 11.33655 -0.01454
C 14.80016 32.68483 -0.03682
C 13.53459 10.72153 0.01945
C 12.27621 8.53051 0.03542
C 12.32133 7.14917 0.02299
C 13.5546 6.33165 0.00244
C 13.54942 4.95767 -0.01717
C 12.33351 4.26517 0.05265
C 12.34201 2.81025 -0.01952
C 13.49955 2.07447 -0.02813
C 13.52285 0.71762 0.00374
C 13.53426 9.22461 0.01416
C 18.35516 30.50127 -0.02815
C 17.27905 29.8526 -0.04147
C 18.51201 19.18983 -0.05302
C 20.9172 19.17721 -0.0054
C 20.91762 17.76469 0.00667
C 19.65831 17.09685 0.00143
C 19.67149 15.63905 -0.017
C 20.90158 14.89285 0.00364
C 20.92211 13.47341 -0.00831
C 19.69022 12.82925 -0.02957
C 19.67355 11.35475 -0.04422
C 19.61922 19.88609 0.00755
C 20.8923 10.68983 0.00654
C 19.7047 8.49634 -0.04076
C 19.74798 7.15925 -0.00652
C 20.91809 6.35517 0.0058
C 20.91589 4.96422 -0.00865
C 19.69814 4.25803 0.00675
C 19.69753 2.8057 -0.00311
C 20.87762 2.12775 0.00742
C 20.91151 0.66136 -0.01594
C 20.91157 9.17189 -0.00703
C 19.75194 21.27737 0.01739
C 20.87999 22.02146 0.03754
C 20.85473 31.92962 -0.03557
C 18.39298 17.75587 0.00213
C 17.15814 17.06124 -0.00066
C 17.20782 15.65381 -0.00289
C 18.46931 14.92152 0.00028
C 18.48786 13.46368 -0.02213
C 17.22961 12.77901 0.03698
C 17.21931 11.33535 -0.00109
C 18.44398 10.65297 -0.00491
C 18.46318 9.23387 0.03338
C 17.22237 8.52959 -0.0258
C 17.21264 7.05757 -0.0331
C 18.40711 6.39021 -0.00316
C 18.4444 4.97324 0.02188
C 17.27505 4.27459 -0.01979
C 17.2032 2.86639 0.02691
C 18.42443 2.14154 -0.01581
C 18.41752 0.72625 0.01452
C 17.21423 34.06084 0.04892
C 19.65602 32.66129 -0.00111
C 9.84288 0.02559 0.01877
C 11.08537 0.69207 -0.00925
C 11.03819 2.11723 0.00444
C 9.82084 2.81033 -0.01789
C 3.68243 6.38224 -0.01142
C 3.69198 4.93501 -0.00562
C 2.42959 4.21439 -0.00494
C 2.49451 2.81589 0.00054
C 3.73096 2.12631 0.03007
C 3.66577 0.7389 -0.00095
C 2.45995 34.05548 0.01572
C 4.85913 32.66793 -0.04848
C 2.45429 7.12248 0.01849
C 4.92726 29.84904 -0.00892
C 6.14015 27.62545 -0.0008
C 6.13953 26.33242 0.0288
C 4.91673 25.58494 0.00393
C 4.88912 24.15168 0.00895
C 4.90857 21.29914 0.00685
C 4.9213 19.92753 0.02888
C 6.1782 17.69605 -0.00482
C 4.91033 17.04847 -0.01384
C 4.92207 28.43208 -0.01362
C 2.46525 8.52285 0.01396
C 3.64659 9.29443 0.0127
C 3.71487 10.67207 0.02635
C 3.67302 30.48746 0.02322
C 2.44952 29.78909 -0.00725
C 2.42253 28.42665 -0.05697
C 3.71122 27.66114 0.01087
C 3.72973 26.28741 -0.01343
C 2.43553 25.55768 0.00988
C 2.49168 24.14666 0.0276
C 3.69818 23.44291 0.01305
C 3.63768 22.01612 -0.00077
C 2.43967 21.3825 0.03368
C 2.48487 19.87535 -0.02929
C 3.72989 19.15936 -0.00966
C 3.65795 17.7622 -0.03337
C 2.49873 17.03662 0.01227
C 2.46942 15.61248 0.00873
C 3.73399 14.88838 -0.00049
C 3.61959 13.45363 0.00848
C 2.46294 12.84342 -0.01303
C 2.43126 11.42283 -0.01378
C 4.91681 15.62036 0.03693
C 19.71409 0.01744 0.0106
C 6.13911 14.84068 0.01745
C 4.91215 12.80055 -0.01004
C 8.60418 5.02559 0.03592
C 7.36469 4.30136 0.00406
C 7.3595 2.83267 0.00943
C 8.56609 2.10818 0.02841
C 8.59118 0.67435 -0.01111
C 7.40394 0.05335 -0.01275
C 9.87359 15.57785 0.00985
C 11.04391 14.95375 -0.02245
C 8.60548 6.43648 0.00572
C 11.02621 13.51466 -0.00428
C 9.86623 11.33741 -0.01536
C 11.10607 10.64572 -0.02689
C 11.10501 9.28381 -0.01046
C 9.84243 8.43893 -0.00891
C 9.84178 7.07709 0.02819
C 11.04641 6.41458 0.00165
C 11.03039 4.93884 -0.02971
C 9.83394 4.25342 0.02894
C 9.82569 12.80115 0.03101
C 7.36819 7.12632 0.0402
C 7.40133 8.46519 -0.02759
C 8.58617 9.24957 0.03589
C 4.90526 11.40785 -0.02896
C 6.17905 10.69331 -0.00131
C 6.15346 9.2019 -0.01118
C 4.91006 8.52747 -0.014
C 4.93997 7.13153 0.02147
C 6.14769 6.40876 0.00373
C 6.12797 5.02838 -0.00191
C 4.97935 4.2495 0.00438
C 4.91341 2.88527 0.01291
C 6.15785 2.15622 0.00093
C 6.18584 0.74004 0.00057
C 4.89074 0.07297 -0.01634
C 7.359 17.09388 -0.00334
C 7.39882 15.65239 0.02339
C 8.57059 14.93382 0.01641
C 8.64117 13.53182 -0.00719
C 7.38424 12.79655 0.01364
C 7.40598 11.38963 -0.01062
C 8.58196 10.6825 -0.00033
C 6.10682 13.52872 0.00488
C 22.13717 32.66323 -0.01154
C 23.31039 31.95594 -0.01721
C 23.30959 22.03201 -0.02422
C 31.95376 32.62957 0.01713
C 33.22213 31.93496 -0.01694
C 33.17103 30.56629 0.01428
C 31.96079 29.82273 -0.02142
C 32.03554 28.4401 0.0544
C 33.22509 27.66701 0.00026
C 33.18222 26.28578 0.00682
C 31.92782 25.54626 -0.01779
C 29.52572 34.06143 0.00346
C 31.96475 24.17899 0.03794
C 33.15178 21.99682 0.01574
C 31.9583 21.30905 -0.02383
C 31.95496 19.84224 -0.01429
C 33.21352 19.21388 -0.0136
C 33.14816 17.75815 0.00594
C 31.98742 17.07598 -0.02474
C 32.001 15.57286 0.00369
C 33.2142 14.88133 0.00455
C 33.21137 23.44035 0.01927
C 30.7788 0.6951 0.00307
C 30.76433 2.1549 0.00716
C 29.50855 2.83866 0.02108
C 30.74197 23.44704 -0.01854
C 30.73183 22.03252 -0.01415
C 29.49855 21.35817 -0.03039
C 29.55393 19.86279 0.01836
C 30.74815 19.12186 0.03531
C 30.79371 17.70845 -0.00669
C 29.49711 17.05209 0.0101
C 29.51282 15.62975 0.01705
C 30.78737 14.92162 -0.0405
C 30.73319 13.48907 -0.01303
C 29.50012 12.77818 -0.01461
C 29.51462 11.38284 -0.02155
C 30.78758 10.66358 -0.00944
C 30.748 9.20036 -0.03735
C 29.53205 8.49157 -0.00971
C 29.53591 7.10852 0.01518
C 30.74736 6.43548 0.01908
C 30.75282 4.94347 0.07705
C 29.45837 4.26232 0.0103
C 33.26178 13.43755 -0.00644
C 29.48095 24.05902 -0.02049
C 31.93626 12.80192 -0.01839
C 33.16355 10.62335 0.00199
C 1.21669 19.2058 -0.01678
C 1.21167 17.74746 0.01223
C 0.00839 16.97374 0.00648
C 0.01575 15.59875 0.02114
C 1.23189 14.9352 -0.02957
C 1.27912 13.49011 0.00343
C 0.00481 12.70035 -0.02656
C 34.42017 11.36887 -0.02442
C 0.02991 19.87179 0.01951
C 1.1943 10.67266 -0.00027
C 34.433 8.5091 -0.02302
C 34.42241 7.1076 -0.02849
C 1.20464 6.37968 0.02931
C 1.23661 5.00011 0.00628
C 34.42218 4.23587 -0.0345
C 0.03808 2.86587 -0.00931
C 1.22583 2.16011 -0.00939
C 1.25074 0.71588 -0.00468
C 1.22846 9.21653 -0.00583
C 0.02669 21.33153 -0.02213
C 1.23561 22.02371 0.02712
C 1.20263 23.41718 0.00723
C 33.18024 9.25917 0.04381
C 31.98389 8.52677 0.02806
C 31.98338 7.16264 0.01504
C 33.16357 6.336 -0.00069
C 33.17515 4.95164 0.04926
C 31.96666 4.26316 -0.03838
C 32.02884 2.86393 0.00349
C 33.15317 2.09079 -0.00323
C 33.16019 0.69875 -0.00841
C 31.96535 34.04652 0.0001
C 34.40696 32.65735 -0.02927
C 1.22329 31.9204 -0.01404
C 1.23273 30.56887 0.01027
C 34.4288 29.85179 0.01831
C 0.00877 28.41616 -0.01037
C 1.23242 27.65619 -0.00439
C 1.2031 26.24781 -0.00598
C 34.38259 25.59684 -0.05239
C 34.42537 24.16756 0.03076
C 31.99423 11.3048 0.00137
C 3.68781 31.94254 -0.00094
C 29.48243 25.56478 0.03265
C 30.77267 27.68915 0.02326
C 25.80189 30.61258 0.00071
C 25.81003 27.65021 -0.01107
C 25.81453 26.29395 -0.01586
C 25.82913 23.47407 -0.01971
C 25.81595 22.01264 -0.02118
C 24.5773 21.31688 0.00733
C 24.56561 19.82927 -0.00178
C 25.78528 19.1651 0.00768
C 25.79641 31.96735 -0.00225
C 25.80679 17.82808 -0.0276
C 24.5759 15.56397 -0.04078
C 25.80926 14.90097 0.02117
C 25.79932 13.49623 0.02737
C 24.61847 12.82683 -0.00498
C 24.62915 11.38026 0.00135
C 25.77514 10.59303 0.03102
C 25.78601 9.20502 0.02555
C 24.60664 8.52207 0.01423
C 24.58351 17.00958 0.03005
C 24.55879 32.68516 0.01515
C 22.14904 34.04203 -0.0055
C 23.34402 0.68366 0.02734
C 22.16746 21.31241 0.01277
C 22.09226 19.84162 0.00096
C 23.36575 19.12783 -0.01527
C 23.36099 17.70805 0.01087
C 22.11396 17.01513 0.00199
C 22.1303 15.61312 0.01511
C 23.39455 14.88429 -0.00478
C 23.34379 13.51917 -0.01662
C 22.07229 12.76816 -0.01185
C 22.11003 11.32466 0.01126
C 23.35869 10.58071 0.01852
C 23.34301 9.22085 -0.00381
C 22.16659 8.49358 0.03046
C 22.16802 7.09207 0.0296
C 23.2895 6.3782 0.03374
C 23.31445 4.91665 -0.02845
C 22.14201 4.24543 -0.03213
C 22.14418 2.86238 0.02239
C 23.41835 2.0952 0.01153
C 24.62917 7.04974 -0.00285
C 30.74704 26.25055 0.00261
C 25.81594 6.38962 -0.009
C 24.58739 4.22904 -0.00229
C 27.01297 12.7408 0.02316
C 27.04591 11.36547 0.04185
C 28.32953 10.6106 0.00194
C 28.34527 9.21068 -0.00621
C 27.04471 8.50031 0.02611
C 27.05063 7.08953 0.02198
C 28.31482 6.38675 0.01094
C 28.28653 4.95329 0.00235
C 28.32189 13.50636 0.01257
C 27.01843 4.2471 0.01495
C 28.29139 2.13742 0.01799
C 28.31404 0.69287 0.01699
C 27.10142 0.00034 -0.00416
C 29.51809 32.68498 0.01177
C 30.76278 31.95777 0.04266
C 30.76509 30.4698 0.01324
C 29.50529 29.81375 0.0014
C 29.53806 28.39682 0.00924
C 27.04169 2.89581 0.01259
C 28.26095 14.90037 0.00152
C 27.0426 15.6526 -0.00294
C 27.01442 17.06347 0.00826
C 24.61418 2.84494 -0.00938
C 25.84596 2.15866 -0.0264
C 25.8374 0.77561 -0.01154
C 24.57923 34.05479 0.00684
C 27.07188 32.67042 -0.01052
C 28.33931 31.93966 -0.01679
C 28.31625 30.52151 0.00367
C 27.00945 29.81414 0.04306
C 27.05687 28.42372 0.00996
C 28.27203 27.66988 0.00195
C 28.39563 26.31684 -0.00802
C 27.03676 25.60744 -0.00218
C 27.04811 24.13949 -0.01654
C 28.28895 23.39755 -0.00037
C 28.23573 22.02499 -0.0032
C 26.99158 21.30534 0.00622
C 27.02165 19.85596 -0.02815
C 28.26409 19.15836 -0.00942
C 28.29633 17.71108 0.00487
C 25.76889 4.91645 -0.01199
C 2.45956 32.66893 -0.02566
