374
Graphene
C 0.02012 0.05616 0.01295
C 12.28379 21.24758 0.02299
C 12.37358 19.89529 0.00244
C 13.43577 19.31666 -0.01717
C 13.63201 10.60086 0.05265
C 13.54675 9.2705 -0.01952
C 12.38005 8.55437 -0.02813
C 13.43487 0.60989 0.00374
C 12.24067 34.07317 0.00052
C 14.74206 32.52218 -0.03682
C 15.99552 31.90538 0.01965
C 16.04027 30.54834 0.02058
C 14.80467 29.77193 -0.01957
C 14.8054 28.35728 -0.0108
C 16.02798 27.658 -0.00368
C 15.95816 26.33664 -0.02696
C 14.75805 25.52249 -0.00114
C 14.7431 24.0534 0.00228
C 15.9124 23.38445 0.00798
C 16.03205 21.92094 0.00422
C 13.49432 21.9954 0.03542
C 14.71177 21.33097 0.0351
C 13.51145 23.37612 0.01416
C 12.24935 25.60024 -0.01454
C 10.94594 22.09223 -0.01536
C 9.96521 11.36 -0.02689
C 11.06035 10.72705 -0.01046
C 11.12586 9.26561 -0.00891
C 9.87077 8.57306 0.02819
C 9.86889 7.11359 0.00165
C 11.06642 6.40234 -0.02971
C 9.84081 4.34003 0.02894
C 9.88912 2.96127 -0.01789
C 11.0067 2.1312 0.00444
C 11.0368 0.79732 -0.00925
C 9.84375 34.0382 0.01877
C 12.31497 32.6271 0.01363
C 13.56215 31.96786 -0.02162
C 13.61832 30.5036 0.00415
C 12.27259 29.77348 -0.0014
C 12.30125 28.42401 0.02162
C 13.55346 27.6436 0.0076
C 13.46062 26.23099 0.01241
C 12.31839 24.12114 0.01945
C 14.84107 19.86606 -0.03113
C 15.99894 19.14772 0.02098
C 16.02221 17.77284 0.01848
C 18.40084 15.00641 0.02691
C 18.40927 13.53772 -0.01581
C 17.18312 12.70005 0.01452
C 17.2236 11.30192 0.04892
C 18.51038 10.68726 -0.00111
C 18.36412 9.15033 -0.03557
C 17.17421 8.58663 0.03754
C 18.44692 6.41854 0.01739
C 18.46958 2.08245 0.00755
C 18.52787 0.78163 -0.0054
C 17.22106 34.04629 0.00667
C 19.70447 32.65119 0.00143
C 20.92056 31.92755 -0.017
C 20.96103 30.46103 0.00364
C 19.63377 29.8393 -0.00831
C 19.64597 28.38641 -0.02957
C 20.92088 27.64547 -0.04422
C 20.92094 26.2259 0.00654
C 19.66453 25.58593 -0.00703
C 17.14189 15.6369 -0.01979
C 17.14795 17.05544 0.02188
C 18.36957 17.79749 -0.00316
C 18.43442 19.21617 -0.0331
C 15.97089 14.84071 -0.00619
C 16.0458 13.52783 -0.02162
C 14.72655 11.35197 0.00889
C 15.97613 10.68021 -0.00481
C 16.00602 9.25959 0.00979
C 16.06653 0.71922 0.01443
C 14.75928 0.0562 0.03505
C 17.21997 32.60784 -0.02815
C 18.42496 31.92726 -0.04147
C 11.04628 23.40384 0.03101
C 18.48673 30.55701 -0.05302
C 17.19119 28.3976 -0.00066
C 18.40958 27.70898 -0.00289
C 18.39725 26.2917 0.00028
C 17.208 25.54815 -0.02213
C 17.14191 24.1226 0.03698
C 18.43141 23.43143 -0.00109
C 18.45895 21.96793 -0.00491
C 17.18812 21.26085 0.03338
C 17.19672 19.81709 -0.0258
C 17.18938 29.79696 0.00213
C 9.84766 24.14271 -0.00428
C 9.77423 25.54625 -0.02245
C 11.07774 26.26609 0.00985
C 3.73228 5.01077 -0.00077
C 2.43782 4.32986 0.03368
C 2.47957 2.82338 -0.02929
C 3.68226 2.1329 -0.00966
C 3.68162 0.73259 -0.03337
C 2.48051 0.05257 0.01227
C 4.93685 32.61254 0.00873
C 6.13311 31.97387 -0.00049
C 6.10824 30.56992 0.00848
C 4.86987 29.82903 -0.01303
C 4.91623 28.40741 -0.01378
C 6.14374 27.75435 0.02635
C 6.15369 26.23555 0.0127
C 4.91541 25.62597 0.01396
C 4.94208 24.1798 0.01849
C 6.16398 23.45966 -0.01142
C 6.10287 22.08167 -0.00562
C 4.94913 21.28742 -0.00494
C 4.8929 19.83594 0.00054
C 3.6485 6.42309 0.01305
C 2.3966 7.11714 0.0276
C 2.51043 8.48798 0.00988
C 3.75588 9.27689 -0.01343
C 3.67651 30.54052 0.0073
C 2.53587 29.78779 0.0174
C 2.46983 28.38375 0.03828
C 3.6176 27.72168 0.01226
C 3.65461 26.35519 -0.00279
C 2.45155 25.56592 0.01996
C 2.5008 24.11672 -0.03996
C 3.68976 23.45662 0.01465
C 3.75588 22.0017 -0.00074
C 4.83425 16.89336 0.03007
C 2.51615 21.2978 -0.00518
C 3.61594 19.15194 -0.00643
C 3.67486 17.80287 0.017
C 2.4161 17.09255 -0.03113
C 2.45901 15.65581 -0.02566
C 3.73212 14.92991 -0.00094
C 3.6955 13.40182 0.02322
C 2.48112 12.80962 -0.00725
C 2.49579 11.41076 -0.05697
C 3.69523 10.69063 0.01087
C 2.43743 19.89561 0.0086
C 19.63088 24.06099 -0.04076
C 4.90075 15.65062 -0.00095
C 4.96974 12.79465 -0.04848
C 7.2891 12.7996 0.00057
C 7.40208 11.41212 -0.01634
C 8.62937 10.76029 -0.00334
C 8.6033 9.26485 0.02339
C 7.43937 8.53863 0.01641
C 7.44931 7.11976 -0.00719
C 8.64705 6.43951 0.01364
C 8.5836 4.85393 -0.01062
C 7.34838 4.24305 -0.00033
C 7.31503 2.84596 0.03589
C 8.52041 2.07733 -0.02759
C 8.61244 0.68271 0.0402
C 7.36447 0.04507 0.00572
C 9.80885 32.66974 0.03592
C 11.0964 31.89179 0.00406
C 11.03941 30.55797 0.00943
C 9.79381 29.85821 0.02841
C 9.86083 28.4489 -0.01111
C 11.06029 27.68218 -0.01275
C 7.4513 21.35845 0.00093
C 8.5962 22.04887 0.01291
C 8.60532 23.44376 0.00438
C 7.35835 24.19473 -0.00191
C 4.9588 11.36083 -0.00892
C 6.17842 10.72022 -0.01362
C 6.17335 9.28231 -0.0008
C 4.96951 8.61291 0.0288
C 4.87115 7.2014 0.00393
C 6.12631 6.46275 0.00895
C 6.15083 5.00391 0.00685
C 4.85778 4.27598 0.02888
C 4.92329 2.86831 -0.00482
C 6.21371 13.42445 0.01572
C 6.15378 2.13132 -0.01384
C 4.89678 0.05535 0.01745
C 7.32725 32.72285 0.00488
C 8.59278 31.99706 -0.01004
C 8.52053 30.55438 -0.02896
C 7.31046 29.86339 -0.00131
C 7.37622 28.39222 -0.01118
C 8.64091 27.67939 -0.014
C 8.5466 26.32888 0.02147
C 7.34339 25.59993 0.00373
C 6.18324 0.76599 0.03693
C 20.91001 23.35737 -0.00652
C 20.88267 22.02653 0.0058
C 19.63667 21.28212 -0.00865
C 30.76781 2.13455 0.00716
C 30.7063 0.74018 0.00307
C 29.43414 34.07931 0.00346
C 31.92815 32.66119 0.01713
C 33.15588 31.91299 -0.01694
C 33.20215 30.57335 0.01428
C 31.93096 29.8216 -0.02142
C 31.98885 28.43235 0.0544
C 33.22094 27.66742 0.00026
C 33.18572 26.27703 0.00682
C 31.95227 25.5851 -0.01779
C 32.02467 24.13571 0.03794
C 33.22643 23.47779 0.01927
C 33.18329 22.00058 0.01574
C 31.96065 21.30305 -0.02383
C 31.93463 19.88749 -0.01429
C 33.13877 19.23224 -0.0136
C 33.25369 17.76526 0.00594
C 32.01507 16.97318 -0.02474
C 29.57937 2.79248 0.02108
C 29.49175 4.2887 0.0103
C 30.73001 5.00801 0.07705
C 30.7666 6.38831 0.01908
C 30.73628 27.67427 0.02326
C 30.72346 26.23999 0.00261
C 29.48108 25.56261 0.03265
C 29.5707 24.17005 -0.02049
C 30.77389 23.35434 -0.01854
C 30.80526 21.97134 -0.01415
C 29.53569 21.31596 -0.03039
C 29.51039 19.92529 0.01836
C 30.74982 19.09415 0.03531
C 31.94191 15.6222 0.00369
C 30.7906 17.66853 -0.00669
C 29.47128 15.5608 0.01705
C 30.70551 14.92563 -0.0405
C 30.69968 13.47661 -0.01303
C 29.45854 12.81512 -0.01461
C 29.50718 11.38092 -0.02155
C 30.74666 10.59321 -0.00944
C 30.78627 9.18935 -0.03735
C 29.5185 8.56511 -0.00971
C 29.58148 7.10066 0.01518
C 29.51307 16.93749 0.0101
C 29.52549 28.37748 0.00924
C 33.25162 14.86033 0.00455
C 31.92716 12.74594 -0.01839
C 0.00787 19.85514 0.01951
C 1.22708 19.18867 -0.01678
C 1.21725 17.78093 0.01223
C 0.00949 17.11653 0.00648
C 34.42843 15.62633 0.02114
C 1.26332 14.97148 -0.02957
C 1.19679 13.52404 0.00343
C 0.01151 12.78991 -0.02656
C 34.42874 11.3458 -0.02442
C 1.27908 10.70562 -0.00027
C 1.26891 9.2406 -0.00583
C 34.39621 8.49515 -0.02302
C 34.4019 7.11921 -0.02849
C 1.20647 6.42376 0.02931
C 1.24372 5.02188 0.00628
C 34.36906 4.17058 -0.0345
C 34.39367 2.78383 -0.00931
C 1.23704 2.11888 -0.00939
C 1.30055 0.73514 -0.00468
C 34.3603 21.25366 -0.02213
C 1.16218 22.01702 0.02712
C 1.20409 23.39687 0.00723
C 34.40929 24.16228 0.03076
C 31.94576 11.3015 0.00137
C 33.19447 10.72049 0.00199
C 33.20734 9.28179 0.04381
C 31.97867 8.53677 0.02806
C 31.98805 7.09228 0.01504
C 33.14012 6.36858 -0.00069
C 33.13976 4.97359 0.04926
C 31.95961 4.29089 -0.03838
C 32.00946 2.80026 0.00349
C 33.20433 13.45249 -0.00644
C 33.16176 2.1578 -0.00323
C 31.95851 0.01863 0.0001
C 34.4093 32.73655 -0.02927
C 1.19774 31.97714 -0.01404
C 1.20775 30.5375 0.01027
C 0.00609 29.87239 0.01831
C 0.02314 28.39672 -0.01037
C 1.24473 27.69366 -0.00439
C 1.20012 26.22408 -0.00598
C 34.39597 25.55373 -0.05239
C 33.19171 0.7342 -0.00841
C 3.67207 32.04601 0.00402
C 29.53058 29.75217 0.0014
C 30.74147 31.91158 0.04266
C 23.30303 22.01337 -0.03213
C 22.11941 21.31455 0.02239
C 22.14415 19.90065 0.01153
C 23.28772 19.09756 0.02734
C 23.30051 17.72764 -0.0055
C 22.12918 17.02953 0.01515
C 22.1076 15.57896 -0.00225
C 23.33348 14.94843 0.00071
C 23.39607 13.39701 -0.01107
C 22.13648 12.7828 -0.01586
C 23.42142 2.13548 -0.01971
C 23.34177 0.72367 -0.02118
C 22.16577 33.98169 0.00733
C 24.55138 32.63137 -0.00178
C 25.79662 31.94039 0.00768
C 25.84596 30.53816 -0.0276
C 24.64961 29.79792 0.03005
C 24.56016 28.44323 -0.04078
C 25.73899 27.70401 0.02117
C 23.30357 23.40597 -0.02845
C 22.14263 24.07594 0.03374
C 22.10625 25.55401 0.0296
C 23.42389 26.24505 0.03046
C 19.67849 19.88068 0.00675
C 20.82353 19.17218 -0.00311
C 20.83021 17.68747 0.00742
C 19.66961 17.01786 -0.01594
C 19.69135 15.59711 0.0106
C 20.94591 14.83682 -0.01154
C 20.96667 13.41279 -0.01721
C 19.71535 12.75883 -0.02422
C 19.65685 11.39971 0.01277
C 25.85886 26.24058 0.02737
C 19.54905 4.22055 0.00096
C 20.89024 2.11552 0.01087
C 20.95783 0.66805 0.00199
C 19.78662 34.02256 0.01511
C 22.10437 32.61693 -0.00478
C 23.33974 31.91585 -0.01662
C 23.39411 30.53033 -0.01185
C 22.14649 29.78344 0.01126
C 22.18185 28.39349 0.01852
C 23.31945 27.65688 -0.00381
C 19.68758 2.87361 -0.01527
C 30.78253 30.48799 0.01324
C 24.66581 25.56611 -0.00498
C 25.83836 23.46699 0.03102
C 27.03173 21.32696 0.00487
C 27.07813 19.80014 0.00826
C 28.28776 19.17078 -0.00294
C 28.318 17.77439 0.00152
C 27.01754 17.09121 0.01257
C 27.01515 15.62926 0.02316
C 28.25891 14.93167 0.04185
C 28.23878 13.52944 0.00194
C 27.03665 12.77164 -0.00621
C 27.12116 11.43912 0.02611
C 28.23114 10.69903 0.02198
C 28.30658 9.17482 0.01094
C 28.33947 6.39027 0.00235
C 28.33039 5.04151 0.01495
C 27.06369 2.78844 0.01259
C 28.21455 2.09959 0.01799
C 28.28872 0.72093 0.01699
C 27.04898 34.05195 -0.00416
C 29.66471 32.68889 0.01177
C 28.2528 22.02893 -0.00942
C 28.29168 23.41686 -0.02815
C 27.07659 24.11948 0.00622
C 26.97876 25.54477 -0.0032
C 25.73978 22.02642 0.02555
C 24.51366 21.26458 0.01423
C 24.54373 19.85304 -0.00285
C 25.84085 19.10531 -0.009
C 25.72039 17.70934 -0.01199
C 24.56763 17.044 -0.00229
C 24.51845 15.65695 -0.00938
C 25.7679 14.89834 -0.0264
C 25.76084 13.5058 -0.01154
C 24.59231 24.15733 0.00135
C 24.62774 12.78022 0.00684
C 25.79675 0.71895 -0.01679
C 24.609 33.96322 0.00367
C 27.0657 32.64043 0.04306
C 28.29911 31.93231 0.00996
C 28.32174 30.53474 0.00195
C 27.1425 29.9209 -0.00802
C 27.04338 28.43022 -0.00218
C 28.22843 27.61645 -0.01654
C 28.25443 26.22952 -0.00037
C 25.86052 2.18658 -0.01052
C 2.42096 32.70196 0.02374
