380
Graphene
C 0.01429 0.02979 0.01295
C 16.04083 27.65954 -0.01454
C 15.94057 26.3297 0.01945
C 14.74204 25.60332 0.01416
C 14.78021 24.13222 0.03542
C 16.0337 23.45453 0.02299
C 16.03562 22.0385 0.00244
C 15.94456 19.12211 -0.01717
C 15.97229 17.7346 0.05265
C 14.69573 16.90432 -0.01952
C 14.75236 15.56348 -0.02813
C 16.03364 14.92581 0.00374
C 16.00363 13.45153 0.00052
C 14.82772 12.77459 -0.03682
C 14.79185 11.35784 0.01965
C 15.96623 10.69711 0.02058
C 15.97761 9.20443 -0.01957
C 14.75896 8.4549 -0.0108
C 14.71628 7.06015 -0.00368
C 16.04646 6.30958 -0.02696
C 14.70958 28.37363 0.01241
C 14.73622 29.84196 0.0076
C 15.99739 30.49669 0.02162
C 15.96206 31.99688 -0.0014
C 13.45136 32.02665 -0.01275
C 13.55301 30.58018 0.00985
C 12.32727 29.8487 -0.02245
C 12.30701 28.42909 -0.00428
C 13.52866 27.7027 0.03101
C 13.48762 26.26847 -0.01536
C 12.29696 25.5527 -0.02689
C 13.59865 17.80512 -0.01046
C 13.58364 10.70855 -0.00891
C 15.9663 4.96179 -0.00114
C 13.52947 9.30207 0.02819
C 12.31493 7.05385 -0.02971
C 13.53791 6.38029 0.02894
C 13.54804 5.00563 -0.01789
C 12.36791 4.2482 0.00444
C 12.2657 2.78905 -0.00925
C 13.51632 2.15386 0.01877
C 13.55061 0.67177 0.01363
C 12.2418 34.05335 -0.02162
C 14.75458 32.65629 0.00415
C 12.37156 8.54564 0.00165
C 14.75213 4.29627 0.00228
C 14.75813 2.86671 0.00798
C 15.93747 2.22689 0.00422
C 18.42116 9.23805 -0.0331
C 17.17636 8.47167 -0.00316
C 17.21978 7.06552 0.02188
C 18.4741 6.43651 -0.01979
C 18.45352 4.96488 0.02691
C 17.19358 4.27662 -0.01581
C 17.19823 2.87095 0.01452
C 18.45815 2.10158 0.04892
C 18.51008 0.77119 -0.00111
C 18.45315 10.61176 -0.0258
C 17.23497 34.07593 -0.03557
C 20.91827 31.92886 0.01739
C 20.93151 30.47786 0.00755
C 19.63774 29.81553 -0.0054
C 19.64806 28.38137 0.00667
C 20.93244 27.62759 0.00143
C 20.93906 26.24563 -0.017
C 19.68501 25.61174 0.00364
C 19.63611 24.15042 -0.00831
C 19.62993 19.9011 -0.02957
C 19.63528 32.70447 0.03754
C 12.26752 32.6908 -0.01111
C 17.18604 11.3616 0.03338
C 18.47579 13.41685 -0.00109
C 16.00108 0.69711 0.0351
C 14.76616 0.00458 -0.03113
C 17.22023 32.68249 0.02098
C 18.49397 31.95894 0.01848
C 18.45452 30.54283 -0.00619
C 17.22054 29.79563 -0.02162
C 17.18254 28.38433 0.00889
C 18.42023 27.69629 -0.00481
C 18.46668 26.30373 0.00979
C 17.18777 12.75026 -0.00491
C 17.18885 25.58043 0.01443
C 18.42302 23.44026 -0.02815
C 18.43933 22.00883 -0.04147
C 17.16549 21.31615 -0.05302
C 17.18916 19.88772 0.00213
C 18.489 19.15675 -0.00066
C 18.42565 17.73522 -0.00289
C 17.24107 16.97859 0.00028
C 17.20037 15.5966 -0.02213
C 18.45182 14.87797 0.03698
C 17.17733 24.13378 0.03505
C 20.95262 17.7251 -0.04422
C 9.88169 0.02688 0.02841
C 11.02055 2.188 0.00406
C 2.48111 2.80021 -0.05697
C 3.66828 2.14187 0.01087
C 3.67742 0.72016 -0.01343
C 2.46347 0.04992 0.00988
C 4.90885 32.62083 0.0276
C 6.11093 31.98222 0.01305
C 6.10746 30.57229 -0.00077
C 4.88843 29.83313 0.03368
C 4.92808 28.39889 -0.02929
C 6.15187 27.74522 -0.00966
C 6.15669 26.23125 -0.03337
C 4.93732 25.59335 0.01227
C 4.95618 24.17382 0.00873
C 6.16278 23.44095 -0.00049
C 6.0846 22.08025 0.00848
C 4.95042 21.31937 -0.01303
C 4.91666 19.89861 -0.01378
C 6.12263 9.2019 0.02635
C 4.88496 8.56627 0.0127
C 2.50799 4.19024 -0.00725
C 3.72901 4.97104 0.02322
C 3.66326 6.36871 -0.00094
C 2.52406 7.07239 -0.02566
C 3.69651 30.54409 0.00907
C 2.39961 29.81244 0.00643
C 2.42025 28.47694 -0.01509
C 3.69831 27.69246 0.03267
C 3.73403 26.26356 0.02374
C 2.47763 25.58054 0.00402
C 2.51679 24.13752 0.0073
C 3.67016 23.39489 0.0174
C 3.72722 21.98884 0.03828
C 4.8383 7.05026 0.01396
C 2.4436 21.36969 0.01226
C 3.67479 19.21025 0.01996
C 3.66074 17.78059 -0.03996
C 2.52002 17.06718 0.01465
C 2.44592 15.54035 -0.00074
C 2.5007 12.80965 -0.00518
C 2.53307 11.42392 0.0086
C 3.67779 10.66603 -0.00643
C 3.67108 9.25623 0.017
C 2.43084 8.46608 -0.03113
C 2.41811 19.90057 -0.00279
C 6.17929 6.4051 0.01849
C 6.17906 4.94385 -0.01142
C 4.92286 4.2741 -0.00562
C 8.60233 2.19254 0.02147
C 8.57962 0.7319 0.00373
C 7.42349 0.01036 -0.00191
C 9.89884 32.66457 0.00438
C 11.08473 31.98594 0.01291
C 11.0432 30.43816 0.00093
C 9.83211 29.79965 0.00057
C 9.801 28.42196 -0.01634
C 11.03199 27.65789 -0.00334
C 7.37279 2.83753 -0.014
C 11.06644 26.29971 0.02339
C 9.84096 24.18971 -0.00719
C 9.83819 19.85084 0.01364
C 11.07832 9.29205 -0.01062
C 9.82413 8.57497 -0.00033
C 9.85774 7.12036 0.03589
C 11.05228 6.37652 -0.02759
C 11.08381 4.97047 0.0402
C 9.86064 4.30541 0.00572
C 9.81029 2.8668 0.03592
C 9.80834 25.61348 0.01641
C 11.09881 0.69854 0.00943
C 7.40508 4.29458 -0.01118
C 8.58893 6.45117 -0.02896
C 4.94868 2.86453 -0.00494
C 6.11731 2.19365 0.00054
C 6.13201 0.73841 0.03007
C 4.93559 0.0044 -0.00095
C 7.30025 32.67557 0.01572
C 8.59615 31.97949 -0.04848
C 8.62408 30.51613 -0.00892
C 7.37465 29.81852 -0.01362
C 7.34787 28.45707 -0.0008
C 8.58779 5.04193 -0.00131
C 8.62457 27.7121 0.0288
C 7.32462 25.56518 0.00895
C 7.33904 24.19105 0.00685
C 8.63095 23.38512 0.02888
C 8.6221 21.97058 -0.00482
C 7.3154 21.32805 -0.01384
C 7.35748 19.90769 0.03693
C 8.64516 9.25892 0.01745
C 7.38385 8.50929 0.00488
C 7.3477 7.12896 -0.01004
C 8.56255 26.28494 0.00393
C 19.69116 17.06411 0.00654
C 19.64566 15.63919 -0.00703
C 20.83866 14.90221 -0.04076
C 29.46994 2.8446 0.02108
C 30.71495 2.07333 0.00716
C 30.75405 0.73579 0.00307
C 29.45599 34.05847 0.00346
C 31.97528 32.6945 0.01713
C 33.20514 31.92086 -0.01694
C 33.19559 30.52588 0.01428
C 31.97231 29.83478 -0.02142
C 32.02549 28.39438 0.0544
C 33.23526 27.74922 0.00026
C 33.17823 26.26378 0.00682
C 31.95823 25.55619 -0.01779
C 31.96393 24.14654 0.03794
C 33.15958 23.47589 0.01927
C 33.25068 22.00462 0.01574
C 32.00681 21.26503 -0.02383
C 32.02147 19.85791 -0.01429
C 33.20055 19.19772 -0.0136
C 33.18204 17.78086 0.00594
C 29.51415 4.25953 0.0103
C 30.72984 4.97459 0.07705
C 30.74118 6.38683 0.01908
C 29.51658 7.13191 0.01518
C 29.56633 28.42685 0.00924
C 30.76821 27.60416 0.02326
C 30.75476 26.21833 0.00261
C 29.52398 25.55119 0.03265
C 29.49516 24.13599 -0.02049
C 30.75434 23.39525 -0.01854
C 30.70707 22.04324 -0.01415
C 29.577 21.25967 -0.03039
C 29.47568 19.82109 0.01836
C 31.94876 17.06534 -0.02474
C 30.71554 19.12669 0.03531
C 29.46512 17.06539 0.0101
C 29.50612 15.62116 0.01705
C 30.78184 14.86325 -0.0405
C 30.77628 13.48392 -0.01303
C 29.5137 12.81781 -0.01461
C 29.57966 11.34687 -0.02155
C 30.74352 10.57522 -0.00944
C 30.75623 9.23384 -0.03735
C 29.54618 8.50601 -0.00971
C 30.70917 17.72702 -0.00669
C 32.0094 15.58602 0.00369
C 33.21466 14.89786 0.00455
C 33.20308 13.47856 -0.00644
C 0.02112 21.36027 -0.02213
C 34.41846 19.89368 0.01951
C 1.26119 19.22725 -0.01678
C 1.1853 17.77115 0.01223
C 34.43178 17.02677 0.00648
C 34.42372 15.60314 0.02114
C 1.27381 14.94985 -0.02957
C 1.27743 13.48472 0.00343
C 34.41134 12.72332 -0.02656
C 1.21574 22.06321 0.02712
C 34.41697 11.36784 -0.02442
C 1.26062 9.27906 -0.00583
C 34.38381 8.45414 -0.02302
C 34.39042 7.07615 -0.02849
C 1.21042 6.3656 0.02931
C 1.28619 4.94478 0.00628
C 34.37679 4.20671 -0.0345
C 34.38637 2.8319 -0.00931
C 1.23196 2.09987 -0.00939
C 1.21603 0.71669 -0.00468
C 1.21187 10.62103 -0.00027
C 29.51876 29.87207 0.0014
C 1.23283 23.49141 0.00723
C 34.42796 25.57782 -0.05239
C 31.96822 12.76296 -0.01839
C 31.92063 11.31535 0.00137
C 33.12867 10.66213 0.00199
C 33.19155 9.25009 0.04381
C 32.01138 8.47899 0.02806
C 31.96709 7.10112 0.01504
C 33.15962 6.43216 -0.00069
C 33.20849 4.99874 0.04926
C 31.96483 4.32518 -0.03838
C 34.39987 24.17119 0.03076
C 31.94337 2.85299 0.00349
C 33.20403 0.73017 -0.00841
C 31.98994 0.00261 0.0001
C 0.01028 32.6637 -0.02927
C 1.20742 31.93074 -0.01404
C 1.20806 30.52155 0.01027
C 34.41316 29.83929 0.01831
C 34.4253 28.47877 -0.01037
C 1.23461 27.62996 -0.00439
C 1.24639 26.23554 -0.00598
C 33.14098 2.1141 -0.00323
C 30.74655 30.54956 0.01324
C 30.78811 31.94139 0.04266
C 29.43397 32.59975 0.01177
C 23.33791 13.48592 0.0296
C 22.15356 12.76609 0.03374
C 22.12434 11.30477 -0.02845
C 23.33977 10.66682 -0.03213
C 23.40523 9.21642 0.02239
C 22.16766 8.5115 0.01153
C 22.15045 7.09936 0.02734
C 23.33164 6.36734 -0.0055
C 23.38231 4.91974 0.01515
C 23.36024 14.87843 0.03046
C 22.09674 4.25687 -0.00225
C 23.36148 2.12824 -0.01107
C 23.40566 0.68833 -0.01586
C 22.12181 0.03435 -0.01971
C 24.50947 32.66235 -0.02118
C 25.74442 31.93431 0.00733
C 25.81875 30.45302 -0.00178
C 24.54354 29.82421 0.00768
C 24.63098 28.40783 -0.0276
C 25.84584 27.68734 0.03005
C 22.03195 2.86823 0.00071
C 25.75291 26.1865 -0.04078
C 22.15736 15.59764 -0.00381
C 23.40346 26.24604 0.01126
C 20.96434 13.45525 -0.00652
C 19.72622 12.7284 0.0058
C 19.70956 11.33949 -0.00865
C 20.90274 10.64884 0.00675
C 20.9253 9.16729 -0.00311
C 19.64505 8.48107 0.00742
C 19.68415 7.09896 -0.01594
C 20.95492 6.32463 0.0106
C 20.96756 4.93922 -0.01154
C 22.06357 16.9927 0.01852
C 19.66211 4.24781 -0.01721
C 20.90835 2.12274 0.01277
C 20.8951 0.67649 0.00096
C 19.70516 0.01684 -0.01527
C 22.11509 32.63558 0.01087
C 23.36349 31.94795 0.00199
C 23.3912 30.52172 0.01511
C 22.18485 29.82865 -0.00478
C 22.15371 28.43969 -0.01662
C 23.36491 27.70008 -0.01185
C 19.69099 2.76729 -0.02422
C 3.6612 31.97586 0.02379
C 25.80455 17.75701 0.02117
C 24.58543 15.70575 -0.00498
C 28.26555 22.01927 -0.02815
C 28.29498 19.17994 -0.00942
C 28.23615 17.77925 0.00487
C 27.02974 17.03629 0.00826
C 27.07237 15.64917 -0.00294
C 28.26976 14.96347 0.00152
C 28.28111 13.46153 0.01257
C 27.06809 12.81587 0.02316
C 27.09257 11.35256 0.04185
C 28.32691 23.36012 0.00622
C 28.23464 10.61947 0.00194
C 27.08579 8.55181 0.02611
C 27.05177 7.07884 0.02198
C 28.42402 6.42061 0.01094
C 28.26232 4.99876 0.00235
C 27.04934 4.2514 0.01495
C 27.0557 2.82374 0.01259
C 28.20584 2.1339 0.01799
C 28.21173 0.71505 0.01699
C 27.0232 34.06442 -0.00416
C 28.26223 9.23342 -0.00621
C 24.67568 17.03998 0.02737
C 26.95454 25.54136 -0.0032
C 28.27968 27.69947 -0.01654
C 25.794 14.94348 0.00135
C 25.78687 13.45624 0.03102
C 24.55172 12.78653 0.02555
C 24.58942 11.36477 0.01423
C 25.82757 10.62604 -0.00285
C 25.81769 9.2324 -0.009
C 24.62032 8.43734 -0.01199
C 24.59776 7.09681 -0.00229
C 25.83096 6.39062 -0.00938
C 28.27761 26.24785 -0.00037
C 25.89693 5.04943 -0.0264
C 24.59142 2.84203 0.00684
C 25.77996 2.05151 -0.01052
C 25.82782 0.66813 -0.01679
C 24.59001 0.03359 0.00367
C 27.0134 32.68466 0.04306
C 28.26517 31.92958 0.00996
C 28.33464 30.56409 0.00195
C 27.09213 29.84493 -0.00802
C 27.05067 28.42974 -0.00218
C 24.59584 4.2253 -0.01154
C 2.43449 32.7105 0.01402
