421
Graphene
C 34.36653 0.00274 0.01295
C 13.71461 26.5763 0.00406
C 12.36357 25.71404 0.00943
C 12.36482 24.33009 0.02841
C 13.55349 23.5121 -0.01111
C 13.58542 22.12913 -0.01275
C 12.35316 21.42611 0.00985
C 12.30986 20.00018 -0.02245
C 13.50274 19.25395 -0.00428
C 13.47371 17.84528 0.03101
C 12.30474 17.11456 -0.01536
C 13.4934 27.99567 0.03592
C 12.33501 15.68675 -0.02689
C 13.52235 13.48263 -0.00891
C 12.26529 12.84631 0.02819
C 12.24966 11.36594 0.00165
C 13.46974 10.61605 -0.02971
C 13.49899 9.23816 0.02894
C 12.2087 8.61816 -0.01789
C 12.25655 7.16179 0.00444
C 13.36307 6.37207 -0.00925
C 13.34786 5.00872 0.01877
C 12.13256 4.28879 0.01363
C 13.51023 14.93449 -0.01046
C 12.17902 2.88591 -0.02162
C 12.217 28.5533 0.00572
C 13.51047 30.5258 -0.02759
C 9.81877 19.93198 0.00488
C 11.09982 19.18162 -0.01004
C 11.07183 17.75615 -0.02896
C 9.86108 17.05116 -0.00131
C 9.86222 15.5684 -0.01118
C 11.11465 14.9368 -0.014
C 11.04076 13.47403 0.02147
C 9.7889 12.68606 0.00373
C 9.69968 11.35294 -0.00191
C 11.00619 10.56808 0.00438
C 12.20778 29.99191 0.0402
C 10.92176 9.20691 0.01291
C 9.82653 7.06333 0.00057
C 10.98815 6.43025 -0.01634
C 10.96957 5.01698 -0.00334
C 9.79986 4.32735 0.02339
C 9.79648 2.92755 0.01641
C 11.03623 2.08274 -0.00719
C 10.92171 0.74031 0.01364
C 9.76852 0.08573 -0.01062
C 12.35658 32.66413 -0.00033
C 13.73182 31.92151 0.03589
C 9.74536 8.48909 0.00093
C 13.40105 2.07766 0.00415
C 13.48632 0.72817 -0.0014
C 12.26199 0.05013 0.02162
C 18.29696 23.36732 0.02098
C 18.34094 21.95896 0.01848
C 17.13809 21.30219 -0.00619
C 17.25463 19.87809 -0.02162
C 18.4481 19.11955 0.00889
C 18.49943 17.79514 -0.00481
C 17.19666 17.03342 0.00979
C 17.20547 15.61289 0.01443
C 18.36483 14.82607 0.03505
C 18.38386 13.43059 -0.02815
C 17.30757 23.97119 -0.03113
C 17.12345 12.75991 -0.04147
C 18.38199 10.63688 0.00213
C 18.37919 9.24918 -0.00066
C 17.20906 8.50287 -0.00289
C 17.20488 7.04867 0.00028
C 18.44711 6.3353 -0.02213
C 18.46432 4.95878 0.03698
C 17.21426 4.25752 -0.00109
C 17.24329 2.80912 -0.00491
C 18.45838 2.05369 0.03338
C 18.4029 0.48075 -0.0258
C 17.11604 11.34044 -0.05302
C 14.75043 0.05475 0.0351
C 15.98586 0.75754 0.00422
C 15.93813 2.12454 0.00798
C 14.84405 32.78977 0.0076
C 14.75136 25.61342 0.01241
C 14.82075 24.22833 -0.01454
C 15.98999 23.50612 0.01945
C 16.02967 22.12489 0.01416
C 14.81068 21.35809 0.03542
C 14.77535 19.9619 0.02299
C 15.9776 19.2398 0.00244
C 15.9589 17.77683 -0.01717
C 14.71145 17.07432 0.05265
C 14.67545 15.57365 -0.01952
C 15.88898 14.99645 -0.02813
C 15.94988 13.5319 0.00374
C 14.70595 12.78469 0.00052
C 14.7503 11.35905 -0.03682
C 15.94181 10.5952 0.01965
C 15.9427 9.15406 0.02058
C 14.69749 8.49694 -0.01957
C 14.64617 7.06002 -0.0108
C 15.96735 6.32354 -0.00368
C 15.92744 4.96663 -0.02696
C 14.66035 4.27395 -0.00114
C 14.62413 2.94423 0.00228
C 9.83934 21.37969 0.01745
C 11.09163 22.134 0.03693
C 11.0887 23.50994 -0.01384
C 9.90371 24.3171 -0.00482
C 3.52627 2.19767 -0.00561
C 3.65375 0.77711 0.00208
C 2.472 0.10991 0.01707
C 4.83505 32.78403 0.02769
C 6.11734 32.03324 -0.03291
C 6.07144 30.60801 -0.04999
C 4.83649 29.88191 0.04505
C 4.92155 28.47778 0.03284
C 6.16053 27.76567 -0.04307
C 6.20995 26.39126 0.03189
C 2.21115 2.85403 -0.01977
C 4.94935 25.73581 0.00031
C 6.15066 23.47215 0.01402
C 6.08551 22.08639 0.02379
C 4.94609 21.32649 0.00907
C 4.9458 19.87756 0.00643
C 6.09579 19.17074 -0.01509
C 6.16769 17.74944 0.03267
C 4.92607 17.08029 0.02374
C 4.94518 15.6101 0.00402
C 6.14066 14.93364 0.0073
C 6.12469 13.52537 0.0174
C 4.94103 24.20979 -0.003
C 2.39301 4.24771 0.02784
C 3.62053 4.92607 -0.01979
C 3.63056 6.36226 -0.00449
C 3.65893 30.56449 0.03345
C 2.44368 29.79457 0.00748
C 2.36605 28.38928 0.00662
C 3.57694 27.81483 -0.0154
C 3.60307 26.31241 -0.01299
C 2.49121 25.55162 -0.00407
C 2.44164 24.1058 0.01138
C 3.69606 23.38289 0.03278
C 3.6094 21.96391 -0.00177
C 2.41725 21.2365 0.04421
C 2.4185 19.83733 0.00088
C 3.65968 19.07201 0.00828
C 3.63162 17.69923 -0.02375
C 2.35842 16.98871 0.00558
C 2.35319 15.56846 -0.0059
C 3.70341 14.8963 -0.01386
C 3.7 13.61154 -0.02805
C 2.43893 12.78662 0.00081
C 2.40982 11.38679 0.00245
C 3.70767 10.72642 0.02728
C 3.58712 9.31199 -0.00039
C 2.35018 8.54455 0.0064
C 2.39379 7.15428 0.00211
C 4.89848 12.92144 0.03828
C 17.10312 34.00309 -0.0331
C 4.97397 11.4738 0.01226
C 6.10875 9.26346 0.01996
C 8.57192 13.43403 -0.01303
C 7.30085 12.78622 -0.01378
C 7.35771 11.35543 0.02635
C 8.47439 10.64708 0.0127
C 8.49572 9.25256 0.01396
C 7.29168 8.53416 0.01849
C 7.30479 7.16758 -0.01142
C 8.49356 6.44843 -0.00562
C 8.58882 4.96439 -0.00494
C 7.25661 4.32879 0.00054
C 8.58829 14.88769 0.00848
C 7.19781 2.88185 0.03007
C 8.49698 0.80747 0.01572
C 7.24196 0.10693 -0.04848
C 9.78653 32.76849 -0.00892
C 10.98998 32.05412 -0.01362
C 10.94194 30.65182 -0.0008
C 9.77137 29.8631 0.0288
C 9.76032 28.48406 0.00393
C 11.08808 27.78867 0.00895
C 11.06728 26.38493 0.00685
C 9.86653 25.649 0.02888
C 8.48041 2.22164 -0.00095
C 7.40399 15.5732 -0.00049
C 7.41363 17.05777 0.00873
C 8.60028 17.79556 0.01227
C 4.79497 8.47404 -0.03996
C 4.83956 7.09823 0.01465
C 6.06246 6.43122 -0.00074
C 6.03022 5.05786 -0.00518
C 4.83666 4.29663 0.0086
C 4.72983 2.86389 -0.00643
C 5.96932 2.23767 0.017
C 6.00843 0.76309 -0.03113
C 4.81897 0.07216 -0.02566
C 7.33914 32.70078 -0.00094
C 8.61449 32.08922 0.02322
C 8.57137 30.64968 -0.00725
C 7.32668 29.92353 -0.05697
C 7.40438 28.47327 0.01087
C 8.56635 27.74942 -0.01343
C 8.69351 26.39309 0.00988
C 7.50472 25.65395 0.0276
C 7.42701 24.20504 0.01305
C 8.73021 23.58467 -0.00077
C 8.6138 22.14574 0.03368
C 7.36541 21.36105 -0.02929
C 7.36414 20.00514 -0.00966
C 8.56315 19.26885 -0.03337
C 6.10951 10.68791 -0.00279
C 3.6227 32.00625 -0.00112
C 20.96083 23.44932 -0.00316
C 19.5707 21.22645 -0.01979
C 29.50577 11.35813 -0.02155
C 30.75772 10.59763 -0.00944
C 30.61457 9.23607 -0.03735
C 29.38883 8.53164 -0.00971
C 29.39861 7.09747 0.01518
C 30.6505 6.38347 0.01908
C 30.67587 4.93165 0.07705
C 29.42393 4.27311 0.0103
C 29.49065 2.86496 0.02108
C 30.67741 2.06559 0.00716
C 29.50172 12.78875 -0.01461
C 30.81816 0.67786 0.00307
C 31.90086 32.62587 0.01713
C 33.19372 31.92765 -0.01694
C 33.17218 30.55715 0.01428
C 31.96003 29.82834 -0.02142
C 32.00099 28.3355 0.0544
C 33.21528 27.62094 0.00026
C 33.17491 26.19559 0.00682
C 31.98506 25.54956 -0.01779
C 31.90576 24.11447 0.03794
C 33.13053 23.38004 0.01927
C 29.54147 34.07582 0.00346
C 33.12705 21.98888 0.01574
C 30.71192 13.48835 -0.01303
C 29.50945 15.53786 0.01705
C 28.20433 4.96734 0.00235
C 26.92593 4.21363 0.01495
C 26.91946 2.83543 0.01259
C 28.14616 2.04973 0.01799
C 28.19296 0.64482 0.01699
C 26.934 34.01009 -0.00416
C 29.449 32.63549 0.01177
C 30.76373 31.84013 0.04266
C 30.70871 30.51454 0.01324
C 29.51591 29.81522 0.0014
C 30.74094 14.92897 -0.0405
C 29.57368 28.38956 0.00924
C 30.72555 26.23723 0.00261
C 29.54167 25.48132 0.03265
C 29.4917 24.03514 -0.02049
C 30.68728 23.40047 -0.01854
C 30.58359 22.00213 -0.01415
C 29.44282 21.2854 -0.03039
C 29.53915 19.81288 0.01836
C 30.73553 19.0706 0.03531
C 30.68697 17.6795 -0.00669
C 29.51207 16.97897 0.0101
C 30.78126 27.58503 0.02326
C 31.90634 21.24942 -0.02383
C 31.95387 19.77807 -0.01429
C 33.16879 19.10466 -0.0136
C 1.16793 23.35851 0.00723
C 1.23704 21.96735 0.02712
C 34.36091 21.26878 -0.02213
C 34.38242 19.82271 0.01951
C 1.22589 19.15062 -0.01678
C 1.15753 17.70436 0.01223
C 34.3732 16.97954 0.00648
C 34.38221 15.60993 0.02114
C 1.17271 14.90552 -0.02957
C 1.18953 13.4819 0.00343
C 34.35201 24.0807 0.03076
C 34.34848 12.73399 -0.02656
C 1.18949 10.76273 -0.00027
C 1.14577 9.3346 -0.00583
C 34.33925 8.58096 -0.02302
C 34.38363 7.11479 -0.02849
C 1.13953 6.43645 0.02931
C 1.18591 5.00958 0.00628
C 34.33397 4.24689 -0.0345
C 34.33502 2.80805 -0.00931
C 1.11756 2.15048 -0.00939
C 1.2103 0.78766 -0.00468
C 34.4167 11.37553 -0.02442
C 34.38471 25.52993 -0.05239
C 1.26853 26.17102 -0.00598
C 1.19397 27.58161 -0.00439
C 33.14189 17.71468 0.00594
C 31.88351 17.13231 -0.02474
C 31.88971 15.6203 0.00369
C 33.09032 14.90191 0.00455
C 33.15659 13.49861 -0.00644
C 31.91101 12.82686 -0.01839
C 31.9776 11.36579 0.00137
C 33.12711 10.66924 0.00199
C 33.05129 9.2748 0.04381
C 31.85863 8.45313 0.02806
C 31.90801 7.08691 0.01504
C 33.15722 6.3854 -0.00069
C 33.07876 5.00125 0.04926
C 31.88946 4.21069 -0.03838
C 31.88189 2.86658 0.00349
C 33.12072 2.16164 -0.00323
C 33.1576 0.73496 -0.00841
C 32.02434 34.07028 0.0001
C 34.36379 32.60911 -0.02927
C 1.21467 31.93597 -0.01404
C 1.21445 30.49775 0.01027
C 34.30615 29.778 0.01831
C 34.41735 28.36997 -0.01037
C 28.15505 6.40255 0.01094
C 26.95305 7.13202 0.02198
C 26.9732 8.59213 0.02611
C 28.25567 9.28422 -0.00621
C 22.13931 21.31854 0.0106
C 22.11514 19.88548 -0.01154
C 23.33556 19.19096 -0.01721
C 23.34713 17.7594 -0.02422
C 22.09418 17.05305 0.01277
C 22.1514 15.61728 0.00096
C 23.34236 14.91505 -0.01527
C 23.33449 13.42453 0.01087
C 22.14362 12.69113 0.00199
C 22.03301 11.29625 0.01511
C 23.4228 22.01586 -0.01594
C 23.35717 10.61903 -0.00478
C 22.05233 8.49742 -0.01185
C 22.04994 7.07849 0.01126
C 23.2667 6.49359 0.01852
C 23.25167 5.05663 -0.00381
C 21.96668 4.29751 0.03046
C 22.08845 2.92997 0.0296
C 23.29119 2.21615 0.03374
C 23.3582 0.71796 -0.02845
C 22.09872 0.00324 -0.03213
C 24.40344 32.60633 0.02239
C 23.3241 9.1985 -0.01662
C 23.38714 23.56849 0.00742
C 22.1053 23.9945 -0.00311
C 23.8369 27.10385 0.00675
C 19.66649 19.89216 0.02691
C 20.88207 19.11796 -0.01581
C 20.91699 17.75202 0.01452
C 19.60695 17.11851 0.04892
C 19.57038 15.67624 -0.00111
C 20.86097 14.8684 -0.03557
C 20.94952 13.43082 0.03754
C 19.59849 12.77873 0.01739
C 19.5465 11.3804 0.00755
C 20.81767 10.67233 -0.0054
C 20.86161 9.23466 0.00667
C 19.61431 8.56924 0.00143
C 19.64584 7.12819 -0.017
C 20.79437 6.36829 0.00364
C 20.80111 4.91035 -0.00831
C 19.62911 4.25379 -0.02957
C 19.70221 2.8906 -0.04422
C 20.8799 2.24884 0.00654
C 20.80651 0.73099 -0.00703
C 19.67724 0.0266 -0.04076
C 21.93697 32.65902 -0.00652
C 23.1212 31.89307 0.0058
C 23.33894 30.46963 -0.00865
C 25.71693 31.82865 0.01153
C 20.86876 21.98871 0.02188
C 25.72117 30.36321 0.02734
C 24.43137 28.15192 0.01515
C 26.92485 32.61322 -0.01052
C 28.24754 31.90525 -0.01679
C 28.21467 30.46632 0.00367
C 27.05608 29.68908 0.04306
C 27.10625 28.25301 0.00996
C 28.36887 27.65559 0.00195
C 28.33606 26.1952 -0.00802
C 27.18854 25.44229 -0.00218
C 27.10305 24.06954 -0.01654
C 28.32149 23.3337 -0.00037
C 24.56441 34.00464 0.00684
C 28.19716 21.97123 -0.0032
C 27.01059 19.87937 -0.02815
C 28.29143 19.20785 -0.00942
C 28.27232 17.66337 0.00487
C 27.04422 16.96655 0.00826
C 27.03864 15.5603 -0.00294
C 28.2738 14.80701 0.00152
C 28.2883 13.43663 0.01257
C 26.9719 12.72789 0.02316
C 26.94222 11.37628 0.04185
C 28.14298 10.6576 0.00194
C 27.00153 21.30605 0.00622
C 25.81199 0.75672 -0.01154
C 25.65111 2.17082 -0.0264
C 24.50429 2.9484 -0.00938
C 25.92034 27.58473 -0.00225
C 25.99383 26.19718 0.00071
C 24.69118 25.70777 -0.01107
C 24.57059 24.30623 -0.01586
C 25.82612 23.51025 -0.01971
C 25.83103 22.03081 -0.02118
C 24.63902 21.40821 0.00733
C 24.60292 19.90823 -0.00178
C 25.79775 19.1865 0.00768
C 25.84264 17.72855 -0.0276
C 24.56039 16.99226 0.03005
C 24.50519 15.5608 -0.04078
C 25.71839 14.87383 0.02117
C 25.77973 13.42465 0.02737
C 24.547 12.73145 -0.00498
C 24.54402 11.35947 0.00135
C 25.71882 10.63306 0.03102
C 25.64246 9.20874 0.02555
C 24.50788 8.47163 0.01423
C 24.5427 7.04836 -0.00285
C 25.73668 6.39483 -0.009
C 25.77016 4.95024 -0.01199
C 24.41328 4.35707 -0.00229
C 24.30677 29.52175 -0.0055
C 2.4494 32.69433 0.01078
