337
Graphene
C 34.37991 0.02287 0.01295
C 12.27844 32.73422 -0.00481
C 13.55106 31.90818 0.00979
C 13.47608 30.53621 0.01443
C 12.22709 29.79438 0.03505
C 12.27831 28.33149 -0.02815
C 13.53663 27.66055 -0.04147
C 13.51681 26.31867 -0.05302
C 12.29803 25.55584 0.00213
C 12.23395 24.17435 -0.00066
C 13.46391 23.36728 -0.00289
C 13.48648 21.90212 0.00028
C 12.23848 21.21535 -0.02213
C 13.70198 4.73203 0.03698
C 12.39824 4.52157 -0.00109
C 12.32677 3.22491 -0.00491
C 13.50067 2.24075 0.03338
C 13.48954 0.75713 -0.0258
C 9.88697 0.14497 0.00889
C 12.19891 0.06641 -0.0331
C 11.13864 0.81946 -0.02162
C 9.85153 2.96225 0.01848
C 7.36088 0.15755 -0.02813
C 9.86281 32.7621 0.00374
C 11.08961 31.99236 0.00052
C 11.05541 30.54541 -0.03682
C 9.70437 29.88612 0.01965
C 9.70742 28.45436 0.02058
C 10.95084 27.70327 -0.01957
C 11.01073 26.2155 -0.0108
C 9.79415 25.47908 -0.00368
C 9.74389 24.04251 -0.02696
C 10.97639 23.38768 -0.00114
C 11.04232 22.00932 0.00228
C 9.71824 21.27926 0.00798
C 9.73501 19.83802 0.00422
C 10.38049 6.50554 0.0351
C 10.97688 5.21827 -0.03113
C 9.79329 4.39339 0.02098
C 11.10403 2.32858 -0.00619
C 8.65194 0.77181 -0.01952
C 14.67558 32.68745 -0.00316
C 15.90562 30.56396 -0.01979
C 17.20066 25.64071 0.0058
C 17.14112 24.21545 -0.00865
C 18.42373 23.53562 0.00675
C 18.39099 22.14641 -0.00311
C 17.27283 21.31922 0.00742
C 16.46076 4.20515 -0.01594
C 17.10597 2.98785 0.0106
C 18.3634 2.28125 -0.01154
C 18.36989 0.74707 -0.01721
C 17.20082 34.05746 -0.02422
C 19.7176 32.71601 0.01277
C 20.86342 31.91106 0.00096
C 20.81195 30.55595 -0.01527
C 19.6254 29.7463 0.01087
C 19.65257 28.39656 0.00199
C 20.90786 27.71389 0.01511
C 20.85926 26.30757 -0.00478
C 18.45022 26.28592 -0.00652
C 15.92373 31.95948 0.02188
C 18.39778 27.65731 -0.04076
C 17.14207 29.87538 0.00654
C 14.61743 29.87182 0.02691
C 14.7085 28.40864 -0.01581
C 15.9043 27.6555 0.01452
C 15.96537 26.21816 0.04892
C 14.7466 25.51551 -0.00111
C 14.67557 24.08535 -0.03557
C 15.97544 23.49823 0.03754
C 16.02911 21.88404 0.01739
C 14.76319 21.39496 0.00755
C 15.08748 4.16102 -0.0054
C 14.77403 2.75043 0.00667
C 15.92252 1.97531 0.00143
C 15.91223 0.58982 -0.017
C 14.66251 34.06227 0.00364
C 17.2357 32.59133 -0.00831
C 18.52105 31.95896 -0.02957
C 18.40293 30.5059 -0.04422
C 17.12495 28.32362 -0.00703
C 8.65682 2.16665 0.05265
C 7.45764 2.8185 -0.01717
C 7.34377 4.29974 0.00244
C 2.53975 8.55286 0.01745
C 2.51607 7.11849 0.00488
C 3.76918 6.47468 -0.01004
C 3.77428 5.06295 -0.02896
C 2.4832 4.41756 -0.00131
C 2.44398 2.89918 -0.01118
C 3.68376 2.23351 -0.014
C 3.63535 0.80273 0.02147
C 2.33846 0.10375 0.00373
C 4.84259 32.72225 -0.00191
C 6.19611 31.96271 0.00438
C 6.09945 30.59268 0.01291
C 4.92403 29.87402 0.00093
C 4.8879 28.44601 0.00057
C 6.09148 27.76403 -0.01634
C 6.12433 26.38646 -0.00334
C 4.88878 25.56635 0.02339
C 3.76426 9.27278 0.03693
C 4.85593 24.0834 0.01641
C 3.72193 10.66587 -0.01384
C 2.32967 12.74028 0.02888
C 3.62956 30.60024 0.01396
C 2.44485 29.85403 0.01849
C 2.46023 28.48485 -0.01142
C 3.65673 27.75276 -0.00562
C 3.68494 26.2645 -0.00494
C 2.42173 25.57279 0.00054
C 2.5149 24.2192 0.03007
C 3.67763 23.42442 -0.00095
C 3.67195 21.99246 0.01572
C 2.41 21.32593 -0.04848
C 2.38796 19.85509 -0.00892
C 3.59223 19.24505 -0.01362
C 3.56135 17.83657 -0.0008
C 2.37298 17.09134 0.0288
C 2.4305 15.66873 0.00393
C 3.65564 14.86648 0.00895
C 3.65314 13.51008 0.00685
C 2.41812 11.40118 -0.00482
C 6.15132 23.41956 -0.00719
C 6.14215 21.99629 0.01364
C 4.89268 21.32289 -0.01062
C 8.52561 30.63272 0.02894
C 7.40318 29.9506 -0.01789
C 7.34896 28.37396 0.00444
C 8.55017 27.63057 -0.00925
C 8.65534 26.19114 0.01877
C 7.37426 25.50854 0.01363
C 7.42293 24.16096 -0.02162
C 8.56633 23.35494 0.00415
C 8.54062 21.97159 -0.0014
C 7.3644 21.21087 0.02162
C 7.24588 19.78778 0.0076
C 8.51025 19.1283 0.01241
C 7.13387 16.67272 -0.01454
C 7.34415 8.48764 0.01945
C 7.62244 7.1416 0.01416
C 8.88242 6.43805 0.03542
C 8.58506 4.99381 0.02299
C 8.6251 32.05667 -0.02971
C 7.37407 32.79284 0.00165
C 4.80122 0.08174 0.02819
C 6.10307 0.78279 -0.00891
C 4.84298 19.94698 -0.00033
C 6.04637 19.07216 0.03589
C 6.13379 17.53188 -0.02759
C 4.8574 17.07172 0.0402
C 4.87645 15.63521 0.00572
C 6.20346 15.12429 0.03592
C 6.10686 13.67744 0.00406
C 4.97075 12.88334 0.00943
C 19.66026 25.59715 -0.01662
C 4.94801 11.41011 0.02841
C 6.29388 9.33464 -0.01275
C 4.97964 8.56741 0.00985
C 5.062 7.16449 -0.02245
C 6.25294 6.41704 -0.00428
C 6.16298 5.07289 0.03101
C 4.96756 4.33377 -0.01536
C 4.90392 2.95239 -0.02689
C 6.1492 2.14605 -0.01046
C 6.22982 10.73468 -0.01111
C 3.59901 32.01785 0.0127
C 19.67648 24.15333 -0.01185
C 21.0452 22.04296 0.01852
C 31.88903 28.36649 0.0544
C 33.21895 27.69661 0.00026
C 33.20172 26.2536 0.00682
C 31.95164 25.5294 -0.01779
C 31.8666 24.08112 0.03794
C 33.19964 23.45609 0.01927
C 33.16098 22.01985 0.01574
C 31.87856 21.29857 -0.02383
C 32.00298 19.9317 -0.01429
C 33.21297 19.15005 -0.0136
C 33.0641 17.78343 0.00594
C 31.85071 17.07596 -0.02474
C 31.88743 15.59128 0.00369
C 33.13644 14.87522 0.00455
C 33.07486 13.40728 -0.00644
C 31.85958 12.81161 -0.01839
C 31.84211 11.33563 0.00137
C 31.96224 29.80777 -0.02142
C 33.16396 10.67625 0.00199
C 33.18779 30.56349 0.01428
C 31.96644 32.65911 0.01713
C 29.48528 17.11642 0.0101
C 29.3531 15.72004 0.01705
C 30.51473 14.94735 -0.0405
C 30.63623 13.5353 -0.01303
C 29.3846 12.75431 -0.01461
C 29.47063 11.36404 -0.02155
C 30.66532 10.64831 -0.00944
C 30.63165 9.26751 -0.03735
C 29.40243 8.52397 -0.00971
C 29.37735 7.10437 0.01518
C 30.61486 6.41677 0.01908
C 30.70435 4.98812 0.07705
C 29.44523 4.29044 0.0103
C 29.48888 2.83319 0.02108
C 30.63384 2.06236 0.00716
C 30.62231 0.70107 0.00307
C 29.35652 34.02275 0.00346
C 33.1586 32.02582 -0.01694
C 30.67452 17.7759 -0.00669
C 33.20257 9.25783 0.04381
C 31.87896 7.09871 0.01504
C 1.1223 17.72727 0.01223
C 34.32979 16.99508 0.00648
C 34.34318 15.54183 0.02114
C 1.16803 14.90994 -0.02957
C 1.106 13.55585 0.00343
C 34.34139 12.76477 -0.02656
C 34.41887 11.34921 -0.02442
C 1.2027 10.61495 -0.00027
C 1.30693 9.20518 -0.00583
C 0.00971 8.54895 -0.02302
C 34.40655 7.17071 -0.02849
C 1.21709 6.38362 0.02931
C 1.20767 4.9979 0.00628
C 34.41012 4.22307 -0.0345
C 34.36839 2.81948 -0.00931
C 1.13448 2.18305 -0.00939
C 1.1219 0.74387 -0.00468
C 1.24825 19.07307 -0.01678
C 31.88879 8.53073 0.02806
C 0.01495 19.85976 0.01951
C 1.23618 22.01219 0.02712
C 33.15303 6.43928 -0.00069
C 33.17465 5.01696 0.04926
C 31.94166 4.26538 -0.03838
C 31.93885 2.8538 0.00349
C 33.14626 2.11162 -0.00323
C 33.12773 0.68638 -0.00841
C 31.90077 0.0078 0.0001
C 34.39216 32.67222 -0.02927
C 1.26384 32.02407 -0.01404
C 1.25602 30.58219 0.01027
C 34.43142 29.92286 0.01831
C 34.38812 28.44489 -0.01037
C 1.19917 27.77623 -0.00439
C 1.22156 26.30975 -0.00598
C 34.41012 25.55071 -0.05239
C 0.02144 24.15174 0.03076
C 1.28036 23.42915 0.00723
C 0.00758 21.33464 -0.02213
C 30.69551 19.29392 0.03531
C 29.5919 20.13718 0.01836
C 30.66914 21.88451 -0.03039
C 23.52249 17.63995 0.03005
C 22.26724 2.8181 -0.04078
C 23.43807 2.09478 0.02117
C 23.35579 0.58323 0.02737
C 22.02691 34.07791 -0.00498
C 24.57587 32.53504 0.00135
C 25.81452 31.7863 0.03102
C 25.81672 30.36795 0.02555
C 24.51531 29.76204 0.01423
C 24.56613 28.35559 -0.00285
C 25.75246 27.59965 -0.009
C 24.59713 21.24408 -0.01199
C 24.48707 19.93737 -0.00229
C 25.789 19.15272 -0.00938
C 25.83195 17.74865 -0.0264
C 24.72874 16.77424 -0.01154
C 25.50475 15.4544 0.00684
C 23.33327 18.98298 -0.0276
C 25.7379 9.00025 -0.01052
C 22.18954 19.85059 0.00768
C 23.50508 22.07235 0.00733
C 19.66218 21.4193 -0.00381
C 19.695 20.09056 0.03046
C 20.82467 19.51284 0.0296
C 19.61101 2.76848 0.03374
C 20.89574 2.31927 -0.02845
C 20.83423 0.7209 -0.03213
C 19.59539 0.09142 0.02239
C 22.04088 32.67926 0.01153
C 23.22523 31.95682 0.02734
C 23.20467 30.50607 -0.0055
C 22.05426 29.7929 0.01515
C 22.17369 28.28778 -0.00225
C 23.36963 27.64554 0.00071
C 23.38423 26.33609 -0.01107
C 22.13186 25.60513 -0.01586
C 22.13795 24.21827 -0.01971
C 23.4267 23.47007 -0.02118
C 22.29474 21.35594 -0.00178
C 24.74563 7.47285 -0.01679
C 25.63621 6.40738 0.00367
C 25.5833 4.92423 0.04306
C 27.00878 8.52547 0.00235
C 26.97667 7.00164 0.01495
C 28.16046 6.39862 0.01259
C 28.15129 4.91858 0.01799
C 26.92062 4.20541 0.01699
C 27.00646 2.80519 -0.00416
C 28.19221 2.11073 0.01177
C 28.18891 0.61576 0.04266
C 26.94733 33.99112 0.01324
C 29.45062 32.58832 0.0014
C 30.77662 31.92799 0.00924
C 30.78806 30.57465 0.02326
C 29.47086 29.85061 0.00261
C 29.48856 28.44373 0.03265
C 30.68181 27.72933 -0.02049
C 30.73383 26.31439 -0.01854
C 30.76397 23.25995 -0.01415
C 28.23395 9.23744 0.01094
C 28.22747 10.62822 0.02198
C 26.9168 11.33675 0.02611
C 26.96404 12.6281 -0.00621
C 24.48023 4.1609 0.00996
C 24.5612 2.81819 0.00195
C 25.79357 2.04956 -0.00802
C 25.76039 0.62426 -0.00218
C 24.54718 33.97437 -0.01654
C 27.01322 32.58208 -0.00037
C 28.24463 31.86468 -0.0032
C 28.27047 30.45109 0.00622
C 20.9076 23.45118 0.01126
C 27.02559 29.66672 -0.02815
C 28.2971 27.5562 0.00487
C 26.85924 20.00803 0.00826
C 28.21584 19.6131 -0.00294
C 28.21064 17.96895 0.00152
C 27.07291 17.16792 0.01257
C 26.81813 15.72049 0.02316
C 28.11053 14.88819 0.04185
C 28.13602 13.52046 0.00194
C 27.0012 28.1637 -0.00942
C 2.40211 32.748 0.02635
