392
Graphene
C 34.38311 0.02239 0.01295
C 11.01522 2.23046 0.01877
C 10.99514 0.79192 0.01363
C 9.76934 0.09359 -0.02162
C 12.13806 32.80041 0.00415
C 13.42844 32.02611 -0.0014
C 13.37567 30.54647 0.02162
C 12.20975 29.80128 0.0076
C 12.22706 28.44022 0.01241
C 13.4646 27.7071 -0.01454
C 9.71552 2.95738 -0.00925
C 13.4338 26.26593 0.01945
C 12.14777 24.15128 0.03542
C 13.28837 23.4552 0.02299
C 13.46167 21.98498 0.00244
C 12.2541 21.28715 -0.01717
C 12.34367 19.87065 0.05265
C 13.59405 19.20352 -0.01952
C 13.57348 17.75088 -0.02813
C 12.38317 17.08072 0.00374
C 12.30605 15.69138 0.00052
C 12.26255 25.47534 0.01416
C 9.74065 4.39264 0.00444
C 11.01428 4.97992 -0.01789
C 11.07624 6.41797 0.02894
C 9.74996 28.4673 0.03589
C 10.99078 27.67163 -0.02759
C 11.0143 26.24693 0.0402
C 9.75619 25.50832 0.00572
C 9.81841 24.11702 0.03592
C 11.02575 23.42649 0.00406
C 11.05249 21.99158 0.00943
C 9.80464 21.34116 0.02841
C 9.8338 19.78538 -0.01111
C 11.14029 19.16943 -0.01275
C 11.08662 17.77986 0.00985
C 9.86691 17.0494 -0.02245
C 9.81935 15.66995 -0.00428
C 11.1014 15.00708 0.03101
C 11.12207 13.57161 -0.01536
C 9.87774 12.86996 -0.02689
C 9.8261 11.4302 -0.01046
C 11.07431 10.64518 -0.00891
C 11.03145 9.18027 0.02819
C 9.74252 8.59664 0.00165
C 9.85962 7.18555 -0.02971
C 13.59014 15.03502 -0.03682
C 9.74551 29.83825 -0.00033
C 13.63835 13.54832 0.01965
C 12.3046 11.37701 -0.01957
C 15.98239 17.73292 -0.02213
C 14.7612 17.04948 0.03698
C 14.7718 15.60303 -0.00109
C 16.00316 14.78785 -0.00491
C 16.07343 13.39502 0.03338
C 14.81469 12.76177 -0.0258
C 14.8111 11.28731 -0.0331
C 16.05124 10.61881 -0.00316
C 16.01058 9.23452 0.02188
C 16.05383 19.13363 0.00028
C 14.71211 8.60781 -0.01979
C 16.11318 6.45904 -0.01581
C 15.99048 5.09236 0.01452
C 14.73577 4.35615 0.04892
C 14.66814 2.92459 -0.00111
C 15.9022 2.13496 -0.03557
C 15.99513 0.69787 0.03754
C 14.74741 34.04977 0.01739
C 17.16812 32.59054 0.00755
C 18.35252 31.86011 -0.0054
C 14.78597 7.2049 0.02691
C 14.80663 19.86059 -0.00289
C 14.72767 21.24359 -0.00066
C 15.99174 21.9188 0.00213
C 13.55191 10.61935 -0.0108
C 13.49354 9.26743 -0.00368
C 12.2805 8.51461 -0.02696
C 12.27115 7.18167 -0.00114
C 13.50252 6.51513 0.00228
C 13.49038 5.06681 0.00798
C 12.24745 4.31532 0.00422
C 12.2592 2.87794 0.0351
C 13.48986 2.11368 -0.03113
C 13.51205 0.69372 0.02098
C 12.26581 0.08981 0.01848
C 14.69424 32.66461 -0.00619
C 15.90202 31.95593 -0.02162
C 15.8821 30.51091 0.00889
C 14.60261 29.84031 -0.00481
C 14.73005 28.45368 0.00979
C 15.90347 27.67341 0.01443
C 15.87523 26.24077 0.03505
C 14.63804 25.52544 -0.02815
C 14.59528 24.09792 -0.04147
C 15.87731 23.36268 -0.05302
C 12.406 12.79953 0.02058
C 18.2674 30.5083 0.00667
C 10.9735 30.54892 -0.01062
C 9.74211 32.73093 -0.00719
C 2.43225 4.33263 0.01465
C 2.38435 2.91035 -0.00074
C 3.62356 2.29186 -0.00518
C 3.61792 0.83844 0.0086
C 2.38615 0.1142 -0.00643
C 4.80823 32.77533 0.017
C 6.08088 32.03851 -0.03113
C 6.11768 30.61536 -0.02566
C 4.85958 29.92604 -0.00094
C 3.64362 5.04777 -0.03996
C 4.78679 28.50697 0.02322
C 6.0984 26.32753 -0.05697
C 4.88882 25.58113 0.01087
C 4.93235 24.20622 -0.01343
C 6.13995 23.46798 0.00988
C 6.13043 22.05383 0.0276
C 4.85746 21.30388 0.01305
C 4.83017 19.79617 -0.00077
C 6.11547 19.21962 0.03368
C 6.12738 17.80489 -0.02929
C 6.0757 27.77174 -0.00725
C 3.64067 6.48428 0.01996
C 2.37673 7.2476 -0.00279
C 2.39034 8.56713 0.01226
C 3.65842 30.57294 0.01707
C 2.33695 29.96135 0.02769
C 2.3764 28.45727 -0.03291
C 3.55416 27.79229 -0.04999
C 3.67168 26.28283 0.04505
C 2.37377 25.58336 0.03284
C 2.46236 24.09466 -0.04307
C 3.7048 23.34365 0.03189
C 3.60205 21.94354 0.00031
C 2.24301 21.18007 -0.003
C 2.26223 19.78915 0.01402
C 3.5704 19.06832 0.02379
C 3.67777 17.701 0.00907
C 2.41639 16.98524 0.00643
C 2.3991 15.62271 -0.01509
C 3.72164 14.98204 0.03267
C 3.76817 13.53385 0.02374
C 2.44537 12.81982 0.00402
C 2.42859 11.37093 0.0073
C 3.59146 10.68083 0.0174
C 3.59383 9.24977 0.03828
C 4.92297 17.12406 -0.00966
C 10.94208 32.02454 0.01364
C 4.89407 15.72821 -0.03337
C 6.1118 13.5017 0.00873
C 7.32796 19.95 -0.01384
C 8.57751 19.25402 0.03693
C 8.63452 17.72812 0.01745
C 7.2915 17.14033 0.00488
C 7.3463 15.70886 -0.01004
C 8.64221 14.92766 -0.02896
C 8.56733 13.51451 -0.00131
C 7.33939 12.79706 -0.01118
C 7.34162 11.36356 -0.014
C 7.40002 21.32781 -0.00482
C 8.64793 10.61555 0.02147
C 7.36517 8.66505 -0.00191
C 7.3886 7.22147 0.00438
C 8.5896 6.50352 0.01291
C 8.52555 5.06755 0.00093
C 7.25095 4.27776 0.00057
C 7.20748 2.94314 -0.01634
C 8.48836 2.26345 -0.00334
C 8.51186 0.8701 0.02339
C 7.27932 0.14433 0.01641
C 8.58034 9.24817 0.00373
C 8.56975 21.96619 0.02888
C 8.59524 23.40556 0.00685
C 7.34124 24.13151 0.00895
C 4.89001 12.79228 -0.00049
C 4.76917 11.43669 0.00848
C 6.05774 10.7566 -0.01303
C 6.0666 9.35661 -0.01378
C 4.83479 8.53271 0.02635
C 4.87225 7.2161 0.0127
C 6.09905 6.43931 0.01396
C 6.1005 5.0361 0.01849
C 4.82617 4.38363 -0.01142
C 4.78979 2.95367 -0.00562
C 6.03046 2.22862 -0.00494
C 6.07037 0.80744 0.00054
C 4.78886 0.08878 0.03007
C 7.26243 32.71917 -0.00095
C 8.4841 32.01257 0.01572
C 8.50465 30.50383 -0.04848
C 7.31129 29.88571 -0.00892
C 7.29021 28.48627 -0.01362
C 8.62016 27.76701 -0.0008
C 8.55168 26.31337 0.0288
C 7.3298 25.56333 0.00393
C 6.08208 14.90629 0.01227
C 17.11422 29.79269 0.00143
C 17.12755 28.32362 -0.017
C 18.34005 27.65448 0.00364
C 29.58479 23.9012 0.07705
C 30.89078 23.45354 0.0103
C 30.88779 10.74808 0.02108
C 30.666 9.30639 0.00716
C 29.48881 8.60956 0.00307
C 29.52617 7.17379 0.00346
C 30.70088 6.40733 0.01713
C 30.6634 4.9633 -0.01694
C 29.4743 4.23719 0.01428
C 29.68011 25.28523 0.01908
C 29.45925 2.83125 -0.02142
C 30.70563 0.71684 0.00026
C 29.42083 34.03958 0.00682
C 31.94682 32.71698 -0.01779
C 33.13562 32.02004 0.03794
C 33.11867 30.56035 0.01927
C 31.89226 29.76694 0.01574
C 31.81353 28.40844 -0.02383
C 33.09645 27.80407 -0.01429
C 33.16283 26.35098 -0.0136
C 30.71115 2.15446 0.0544
C 30.65626 26.24861 0.01518
C 30.52984 27.78125 -0.00971
C 29.32237 28.4486 -0.03735
C 24.56096 34.00112 0.04266
C 26.96848 32.59316 0.01324
C 28.21267 31.91543 0.0014
C 28.23165 30.50113 0.00924
C 27.03592 29.73205 0.02326
C 26.97954 23.55193 0.00261
C 28.1783 23.52971 0.03265
C 28.25373 9.25278 -0.02049
C 27.03785 8.5777 -0.01854
C 27.15104 7.16703 -0.01415
C 28.37228 6.39882 -0.03039
C 28.25414 4.92711 0.01836
C 27.0096 4.28057 0.03531
C 27.01577 2.85584 -0.00669
C 28.20214 2.14222 0.0101
C 28.21883 0.63849 0.01705
C 27.02685 33.98798 -0.0405
C 29.51021 32.6293 -0.01303
C 30.73653 31.99465 -0.01461
C 30.70895 30.54068 -0.02155
C 29.4565 29.79666 -0.00944
C 31.91559 25.57767 0.00594
C 25.70367 0.67673 0.01177
C 32.10052 24.23873 -0.02474
C 32.9437 22.07144 0.00455
C 34.08008 21.27717 -0.02213
C 34.28787 19.90253 0.01951
C 0.99564 19.07345 -0.01678
C 1.04796 17.66381 0.01223
C 34.38414 16.82839 0.00648
C 34.30465 15.48542 0.02114
C 1.20102 14.88928 -0.02957
C 1.17954 13.43954 0.00343
C 0.00762 12.87912 -0.02656
C 1.0372 22.00942 0.02712
C 34.4228 11.4723 -0.02442
C 1.21411 9.35433 -0.00583
C 0.00465 8.63061 -0.02302
C 34.36995 7.24906 -0.02849
C 1.14006 6.45267 0.02931
C 1.17925 5.04636 0.00628
C 34.37839 4.33219 -0.0345
C 34.38463 2.85469 -0.00931
C 1.18666 2.23237 -0.00939
C 1.22403 0.77487 -0.00468
C 1.2007 10.74577 -0.00027
C 1.20513 23.48102 0.00723
C 34.42738 24.21744 0.03076
C 34.37815 25.63909 -0.05239
C 31.58925 21.76741 -0.00644
C 33.28682 13.91989 -0.01839
C 31.90565 11.39197 0.00137
C 33.21157 10.71465 0.00199
C 33.15067 9.33227 0.04381
C 31.95305 8.55781 0.02806
C 31.93695 7.21296 0.01504
C 33.20324 6.44912 -0.00069
C 33.13409 5.02376 0.04926
C 31.91139 4.2687 -0.03838
C 31.93275 2.88435 0.00349
C 33.18208 2.12879 -0.00323
C 33.17343 0.67792 -0.00841
C 31.9419 0.01772 0.0001
C 34.30107 32.71643 -0.02927
C 1.14711 32.1073 -0.01404
C 1.13926 30.65873 0.01027
C 34.31041 29.89016 0.01831
C 34.34669 28.52169 -0.01037
C 1.10398 27.74934 -0.00439
C 1.17942 26.37083 -0.00598
C 33.28307 23.49449 0.00369
C 25.78461 2.10834 -0.00416
C 24.50939 2.83641 0.01699
C 24.59662 4.3114 0.01799
C 17.18949 0.02933 -0.01185
C 19.58884 32.57666 0.01126
C 20.7653 31.98699 0.01852
C 20.69647 30.49276 -0.00381
C 19.46627 29.77359 0.03046
C 19.60331 28.36604 0.0296
C 20.78755 27.69934 0.03374
C 20.70475 26.28006 -0.02845
C 19.49753 25.43875 -0.03213
C 18.36444 0.72429 -0.01662
C 19.58851 24.07084 0.02239
C 20.96854 21.94786 0.02734
C 19.74584 21.17213 -0.0055
C 19.83625 19.71827 0.01515
C 20.95577 18.88931 -0.00225
C 21.00846 17.44782 0.00071
C 19.71726 16.90937 -0.01107
C 19.71134 15.55264 -0.01586
C 20.95306 14.97998 -0.01971
C 21.13205 13.65147 -0.02118
C 20.88693 23.45234 0.01153
C 18.39955 2.14912 -0.00478
C 17.15712 2.89084 0.01511
C 17.14303 4.3463 0.00199
C 18.26075 26.15982 -0.00831
C 17.02533 25.44024 -0.02957
C 17.17472 23.98908 -0.04422
C 18.36961 23.26918 0.00654
C 18.46984 21.85845 -0.00703
C 17.29133 21.15618 -0.04076
C 17.30457 19.7935 -0.00652
C 18.5011 19.12546 0.0058
C 18.47369 17.7175 -0.00865
C 17.22288 17.04974 0.00675
C 17.18578 15.55187 -0.00311
C 18.50005 14.92426 0.00742
C 18.60455 13.52198 -0.01594
C 17.38224 12.67336 0.0106
C 17.22819 11.39708 -0.01154
C 18.41054 10.65615 -0.01721
C 18.44164 9.21206 -0.02422
C 17.29069 8.53046 0.01277
C 17.31525 7.12419 0.00096
C 18.51286 6.37722 -0.01527
C 18.46946 4.9254 0.01087
C 19.827 12.91608 0.00733
C 19.67929 11.3833 -0.00178
C 20.89813 10.64368 0.00768
C 20.87992 9.19976 -0.0276
C 22.17413 7.10231 -0.01654
C 23.34087 6.33942 -0.00037
C 23.31353 4.96827 -0.0032
C 22.0784 4.21334 0.00622
C 22.1171 2.77251 -0.02815
C 23.36533 2.11122 -0.00942
C 23.30574 0.6368 0.00487
C 22.12984 34.02274 0.00826
C 24.51619 32.53103 -0.00294
C 25.78887 31.84939 0.00152
C 25.74762 30.34414 0.01257
C 24.43618 29.78326 0.02316
C 24.64408 23.78683 0.04185
C 25.86251 23.98224 0.00194
C 24.69845 11.1285 -0.00621
C 25.73419 10.63085 0.02611
C 25.84454 9.18221 0.02198
C 24.59128 8.47217 0.01094
C 24.58917 7.01312 0.00235
C 25.89157 6.36667 0.01495
C 25.82474 5.02692 0.01259
C 22.21952 8.55391 -0.00218
C 3.59384 32.01696 0.00208
C 23.41411 9.25327 -0.00802
C 22.19828 11.3491 0.00996
C 19.67812 8.46787 0.03005
C 19.75763 6.9841 -0.04078
C 21.03127 6.42573 0.02117
C 20.89862 4.94396 0.02737
C 19.714 4.24313 -0.00498
C 19.62625 2.846 0.00135
C 20.82205 2.10482 0.03102
C 20.8156 0.60463 0.02555
C 19.56923 34.0379 0.01423
C 22.12497 32.60045 -0.00285
C 23.27724 31.81649 -0.009
C 23.23104 30.41708 -0.01199
C 21.9943 29.70744 -0.00229
C 22.04401 28.36959 -0.00938
C 21.96304 25.67538 -0.0264
C 22.09895 24.2189 -0.01154
C 23.25125 23.46912 0.00684
C 23.34575 22.02461 -0.01052
C 22.23389 21.15066 -0.01679
C 22.0496 19.7585 0.00367
C 22.14509 12.70447 0.04306
C 23.47401 10.65597 0.00195
C 2.39789 32.79236 -0.00561
