390
Graphene
C 34.39535 0.0051 0.01295
C 12.27553 7.16432 0.01363
C 13.51323 6.38429 -0.02162
C 13.55221 4.98834 0.00415
C 12.30357 4.31585 -0.0014
C 12.35106 2.84807 0.02162
C 13.5485 2.13179 0.0076
C 13.49051 0.6745 0.01241
C 12.26405 34.0483 -0.01454
C 14.79671 32.61563 0.01945
C 12.28264 8.56832 0.01877
C 16.04283 31.94719 0.01416
C 14.77376 29.77893 0.02299
C 14.8801 28.23782 0.00244
C 16.07493 27.61136 -0.01717
C 15.92765 10.79545 0.05265
C 15.93081 9.2609 -0.01952
C 14.7229 8.46896 -0.02813
C 14.74934 7.03368 0.00374
C 16.02855 6.3203 0.00052
C 15.92317 4.86994 -0.03682
C 16.04504 30.55133 0.03542
C 14.68103 4.25756 0.01965
C 13.49556 9.34929 -0.00925
C 12.24814 11.52317 -0.01789
C 11.11356 13.49163 0.0402
C 9.94618 12.84832 0.00572
C 9.85881 11.35024 0.03592
C 11.07112 10.67845 0.00406
C 11.06607 9.26889 0.00943
C 9.82203 8.56129 0.02841
C 9.88199 7.18728 -0.01111
C 11.09774 6.42022 -0.01275
C 11.07994 5.02268 0.00985
C 13.35354 10.84405 0.00444
C 9.88479 4.27358 -0.02245
C 11.13489 2.16864 0.03101
C 11.14075 0.76576 -0.01536
C 9.90301 0.04528 -0.02689
C 12.29498 32.60271 -0.01046
C 13.49331 31.86551 -0.00891
C 13.53217 30.45021 0.02819
C 12.28701 29.79398 0.00165
C 12.38721 28.32669 -0.02971
C 13.61023 27.76936 0.02894
C 9.9018 2.80651 -0.00428
C 14.72462 2.88377 0.02058
C 15.99535 2.17661 -0.01957
C 15.96585 0.77745 -0.0108
C 19.67854 29.73694 0.03698
C 19.66694 28.3567 -0.00109
C 20.94167 27.68936 -0.00491
C 20.94178 26.20558 0.03338
C 19.62627 25.62487 -0.0258
C 20.96985 23.32324 -0.0331
C 21.03501 22.15088 -0.00316
C 20.99321 19.01404 0.02188
C 20.89858 17.89498 -0.01979
C 20.88597 30.47162 -0.02213
C 19.55069 15.51425 0.02691
C 20.88532 13.45557 0.01452
C 19.59023 12.79292 0.04892
C 19.635 11.28466 -0.00111
C 20.93178 10.60015 -0.03557
C 20.84032 9.15997 0.03754
C 19.58246 8.55698 0.01739
C 19.615 7.13394 0.00755
C 20.8189 6.41823 -0.0054
C 20.82301 4.98401 0.00667
C 20.84007 14.93892 -0.01581
C 20.88941 31.86764 0.00028
C 19.74363 32.64548 -0.00289
C 17.23958 0.05566 -0.00066
C 14.7204 34.0584 -0.00368
C 17.27964 32.73369 -0.02696
C 18.49957 31.97568 -0.00114
C 18.46007 30.48413 0.00228
C 17.20795 29.84128 0.00798
C 17.24679 28.32573 0.00422
C 18.38743 27.63619 0.0351
C 18.60505 26.32489 -0.03113
C 18.56677 14.84636 0.02098
C 18.37038 13.58449 0.01848
C 17.07793 11.39844 -0.00619
C 18.36874 10.66939 -0.02162
C 18.38426 9.26094 0.00889
C 17.18248 8.49963 -0.00481
C 17.22807 7.07338 0.00979
C 18.4049 6.28954 0.01443
C 18.35693 4.93472 0.03505
C 17.16557 4.20862 -0.02815
C 17.17835 2.8071 -0.04147
C 18.45231 2.06543 -0.05302
C 18.52686 0.67251 0.00213
C 9.84975 25.69172 -0.02759
C 10.88926 26.39355 0.03589
C 11.15587 27.68982 -0.00033
C 9.84008 28.41634 -0.01062
C 2.4314 4.32164 -0.00518
C 2.43329 2.86421 0.0086
C 3.69608 2.14302 -0.00643
C 3.61485 0.6687 0.017
C 2.35763 0.0358 -0.03113
C 4.88284 32.70709 -0.02566
C 6.15455 32.03969 -0.00094
C 6.12963 30.6069 0.02322
C 4.92277 29.83478 -0.00725
C 3.66677 5.02463 -0.00074
C 5.01079 28.31214 -0.05697
C 6.08899 26.3117 -0.01343
C 4.89368 25.62683 0.00988
C 4.92756 24.23378 0.0276
C 6.16106 23.46965 0.01305
C 6.09162 22.04265 -0.00077
C 4.83288 21.29764 0.03368
C 4.9363 19.87589 -0.02929
C 6.26868 19.16861 -0.00966
C 6.21007 17.79109 -0.03337
C 6.23169 27.66091 0.01087
C 3.65601 6.45572 0.01465
C 2.43329 7.16925 -0.03996
C 2.39613 8.5706 0.01996
C 3.69177 30.52375 -0.03291
C 2.45237 29.78891 -0.04999
C 2.48665 28.36878 0.04505
C 3.7215 27.68187 0.03284
C 3.62685 26.28064 -0.04307
C 2.37929 25.51907 0.03189
C 2.38161 24.12445 0.00031
C 3.64864 23.52464 -0.003
C 3.6329 22.13531 0.01402
C 2.42459 21.3566 0.02379
C 2.50802 19.90019 0.00907
C 3.7376 19.16515 0.00643
C 3.73597 17.72766 -0.01509
C 2.47686 17.10544 0.03267
C 2.44912 15.63768 0.02374
C 3.66139 14.9172 0.00402
C 3.61571 13.47923 0.0073
C 2.43322 12.74158 0.0174
C 2.48305 11.35718 0.03828
C 3.70933 10.71893 0.01226
C 3.69359 9.26089 -0.00279
C 4.95382 17.05111 0.01227
C 19.60206 4.29397 0.00143
C 4.93274 15.60963 0.00873
C 6.11736 13.47153 0.00848
C 7.54309 15.76173 0.01745
C 8.39742 14.7256 0.00488
C 8.62282 13.40318 -0.01004
C 7.33363 12.66397 -0.02896
C 7.34829 11.31211 -0.00131
C 8.58724 10.70419 -0.01118
C 8.60238 9.24638 -0.014
C 7.3791 8.50169 0.02147
C 7.39128 7.08629 0.00373
C 7.29252 17.05837 0.03693
C 8.68239 6.40704 -0.00191
C 7.419 4.29545 0.01291
C 7.38702 2.86824 0.00093
C 8.62574 2.17379 0.00057
C 8.67619 0.72526 -0.01634
C 7.37169 0.06546 -0.00334
C 9.85934 32.65945 0.02339
C 11.05222 31.96907 0.01641
C 11.03058 30.5707 -0.00719
C 9.83818 29.88356 0.01364
C 8.6251 5.01426 0.00438
C 7.26036 20.12585 -0.01384
C 7.23742 21.37813 -0.00482
C 7.33768 24.16595 0.02888
C 4.84532 12.78126 -0.01303
C 4.92721 11.34546 -0.01378
C 6.10743 10.63727 0.02635
C 6.11118 9.22011 0.0127
C 4.88591 8.60016 0.01396
C 4.89172 7.16208 0.01849
C 6.09417 6.40125 -0.01142
C 6.1116 5.00534 -0.00562
C 4.85491 4.27339 -0.00494
C 4.90913 2.81065 0.00054
C 6.15783 2.16724 0.03007
C 6.09418 0.73489 -0.00095
C 4.87118 0.0262 0.01572
C 7.45391 32.72194 -0.04848
C 8.60808 31.99698 -0.00892
C 8.58318 30.52632 -0.01362
C 7.33084 29.83449 -0.0008
C 7.37747 28.46212 0.0288
C 8.60681 27.70827 0.00393
C 8.53944 26.26417 0.00895
C 7.3088 25.49589 0.00685
C 6.17151 14.89024 -0.00049
C 19.62432 2.86776 -0.017
C 20.87796 2.15727 0.00364
C 20.86484 0.7556 -0.00831
C 30.70583 4.97529 0.07705
C 29.49619 4.29504 0.0103
C 29.48828 2.81679 0.02108
C 30.76738 2.22233 0.00716
C 30.7173 0.76091 0.00307
C 29.52693 0.01119 0.00346
C 31.91423 32.65856 0.01713
C 33.15214 32.01186 -0.01694
C 33.12452 30.5651 0.01428
C 30.76174 6.38051 0.01908
C 31.97925 29.74472 -0.02142
C 33.27279 27.66764 0.00026
C 33.17671 26.29084 0.00682
C 31.93383 25.62043 -0.01779
C 32.00492 24.16976 0.03794
C 33.21149 23.43922 0.01927
C 33.20322 22.01679 0.01574
C 31.96413 21.33492 -0.02383
C 32.01293 19.91368 -0.01429
C 33.18102 19.15325 -0.0136
C 32.00178 28.30521 0.0544
C 29.52032 7.12148 0.01518
C 29.48473 8.53519 -0.00971
C 30.74391 9.19081 -0.03735
C 30.68935 31.90181 0.04266
C 30.7442 30.42867 0.01324
C 29.51021 29.79196 0.0014
C 29.45971 28.36978 0.00924
C 30.69243 27.71008 0.02326
C 30.69918 26.25543 0.00261
C 29.49259 25.50958 0.03265
C 29.55019 24.12454 -0.02049
C 30.80533 23.44561 -0.01854
C 30.78535 22.01889 -0.01415
C 29.53606 21.24679 -0.03039
C 29.67554 19.89212 0.01836
C 30.87257 19.14097 0.03531
C 30.7365 17.71646 -0.00669
C 29.49724 17.01181 0.0101
C 29.47368 15.60581 0.01705
C 30.73056 14.92825 -0.0405
C 30.73768 13.56294 -0.01303
C 29.4865 12.83542 -0.01461
C 29.5097 11.40734 -0.02155
C 30.721 10.71576 -0.00944
C 33.20974 17.69272 0.00594
C 29.51047 32.64292 0.01177
C 31.98389 16.94693 -0.02474
C 33.20842 14.88819 0.00455
C 34.37638 21.21939 -0.02213
C 34.4281 19.81464 0.01951
C 1.24976 19.21534 -0.01678
C 1.27481 17.83293 0.01223
C 34.43292 17.1025 0.00648
C 0.05465 15.64221 0.02114
C 1.23326 14.90273 -0.02957
C 1.25236 13.46409 0.00343
C 34.43215 12.81506 -0.02656
C 1.18856 21.94608 0.02712
C 34.40282 11.35341 -0.02442
C 1.12811 9.27525 -0.00583
C 34.3696 8.48651 -0.02302
C 34.35592 7.07607 -0.02849
C 1.19265 6.44686 0.02931
C 1.21457 5.03104 0.00628
C 34.42598 4.2815 -0.0345
C 34.40568 2.80098 -0.00931
C 1.20881 2.14346 -0.00939
C 1.16232 0.74754 -0.00468
C 1.18836 10.63229 -0.00027
C 1.13142 23.33696 0.00723
C 0.00109 24.14253 0.03076
C 34.38161 25.54503 -0.05239
C 33.22533 13.5191 -0.00644
C 31.999 12.85207 -0.01839
C 31.95895 11.49092 0.00137
C 33.14472 10.7094 0.00199
C 33.20088 9.2579 0.04381
C 31.97116 8.54401 0.02806
C 32.02729 7.09067 0.01504
C 33.18494 6.32937 -0.00069
C 33.18947 4.94049 0.04926
C 31.94779 4.302 -0.03838
C 31.99136 2.84519 0.00349
C 33.18705 2.09809 -0.00323
C 33.15232 0.67712 -0.00841
C 31.90886 34.05275 0.0001
C 0.02171 32.68507 -0.02927
C 1.20423 31.89129 -0.01404
C 1.19806 30.48595 0.01027
C 34.35635 29.83986 0.01831
C 0.03361 28.36821 -0.01037
C 1.24609 27.71842 -0.00439
C 1.18257 26.23449 -0.00598
C 31.99774 15.61515 0.00369
C 3.65771 31.90833 0.02769
C 27.02679 34.04476 -0.00416
C 28.27753 2.09787 0.01799
C 22.09538 7.05332 0.01126
C 23.41812 6.3651 0.01852
C 23.31199 4.94374 -0.00381
C 22.05124 4.27216 0.03046
C 22.10562 2.85231 0.0296
C 23.37642 2.1405 0.03374
C 23.26048 0.70549 -0.02845
C 22.05788 34.0769 -0.03213
C 24.61087 32.53591 0.02239
C 22.12961 8.4283 -0.01185
C 25.82173 31.84951 0.01153
C 24.59399 29.80519 -0.0055
C 24.49609 28.37186 0.01515
C 25.72301 27.68113 -0.00225
C 25.84632 26.18381 0.00071
C 24.62836 25.52145 -0.01107
C 24.6634 24.10279 -0.01586
C 25.86181 23.33664 -0.01971
C 25.88242 21.96322 -0.02118
C 24.61856 21.35672 0.00733
C 25.9025 30.47819 0.02734
C 23.31914 9.18863 -0.01662
C 23.37123 10.59134 -0.00478
C 22.15348 11.32876 0.01511
C 19.75611 34.04328 -0.02957
C 22.11135 32.61315 -0.04422
C 23.3585 31.90479 0.00654
C 23.40909 30.55906 -0.00703
C 22.15787 29.82881 -0.04076
C 22.10014 28.38491 -0.00652
C 23.30531 27.66204 0.0058
C 23.4054 26.25585 -0.00865
C 22.16004 25.54627 0.00675
C 22.18127 24.15713 -0.00311
C 23.39857 23.44819 0.00742
C 23.3222 22.0879 -0.01594
C 22.11959 21.31981 0.0106
C 22.1307 19.85598 -0.01154
C 23.37184 19.21964 -0.01721
C 23.37621 17.8018 -0.02422
C 22.07629 17.07399 0.01277
C 22.13662 15.66824 0.00096
C 23.34478 14.91 -0.01527
C 23.35529 13.51307 0.01087
C 22.15922 12.73917 0.00199
C 24.58035 19.9894 -0.00178
C 28.29355 0.67953 0.01699
C 25.86253 19.2518 0.00768
C 24.60865 17.08789 0.03005
C 28.28739 23.36688 -0.00037
C 28.3101 21.93254 -0.0032
C 27.0593 21.24247 0.00622
C 27.13404 19.91544 -0.02815
C 28.32452 19.16158 -0.00942
C 28.29937 17.79141 0.00487
C 27.07246 17.10342 0.00826
C 27.0774 15.68879 -0.00294
C 28.24691 14.90102 0.00152
C 27.07597 24.0719 -0.01654
C 28.209 13.5039 0.01257
C 27.0419 11.35955 0.04185
C 28.26305 10.62309 0.00194
C 28.22421 9.2037 -0.00621
C 26.91429 8.5151 0.02611
C 27.0524 7.11856 0.02198
C 28.23758 6.43441 0.01094
C 28.22084 4.97845 0.00235
C 27.02242 4.26444 0.01495
C 27.04816 2.80461 0.01259
C 27.02001 12.78719 0.02316
C 27.04964 25.50496 -0.00218
C 28.26342 26.20731 -0.00802
C 28.22193 27.67026 0.00195
C 24.6275 15.6974 -0.04078
C 25.8338 14.9544 0.02117
C 25.79949 13.53128 0.02737
C 24.55171 12.7324 -0.00498
C 24.56442 11.32374 0.00135
C 25.79147 10.67264 0.03102
C 25.77456 9.28867 0.02555
C 24.53346 8.50571 0.01423
C 24.61696 7.09366 -0.00285
C 25.84214 6.38869 -0.009
C 25.76615 4.99176 -0.01199
C 24.5819 4.24706 -0.00229
C 24.56759 2.80717 -0.00938
C 25.82544 2.11593 -0.0264
C 25.74943 0.67715 -0.01154
C 24.52872 34.03873 0.00684
C 27.07278 32.66342 -0.01052
C 28.24923 31.92374 -0.01679
C 28.30898 30.49103 0.00367
C 27.07138 29.77986 0.04306
C 27.00084 28.35955 0.00996
C 25.85038 17.79091 -0.0276
C 2.44183 32.66831 0.01707
