303
Graphene
C 34.42271 34.07892 0.01295
C 12.30425 7.06887 0.01452
C 13.47835 6.42785 0.04892
C 13.43984 4.94794 -0.00111
C 12.2745 4.18135 -0.03557
C 12.21438 2.74659 0.03754
C 13.48501 2.03981 0.01739
C 13.4439 0.47204 0.00755
C 12.24536 33.99735 -0.0054
C 15.48778 32.76495 0.00667
C 16.16588 17.7806 0.00143
C 14.8607 17.26353 -0.017
C 14.92458 15.75305 0.00364
C 16.11009 14.97528 -0.00831
C 16.03665 13.54012 -0.02957
C 14.78298 12.83898 -0.04422
C 12.24517 8.55534 -0.01581
C 14.78831 11.37777 0.00654
C 13.51287 9.21618 0.02691
C 12.33412 11.40863 0.02188
C 9.82966 8.545 -0.02815
C 9.89328 7.06423 -0.04147
C 11.16865 6.26951 -0.05302
C 10.99546 4.93033 0.00213
C 9.74756 4.24342 -0.00066
C 9.78499 2.78688 -0.00289
C 10.91673 1.98625 0.00028
C 10.9347 0.48753 -0.02213
C 9.57178 33.96979 0.03698
C 13.57429 17.67501 -0.00109
C 12.39548 16.90474 -0.00491
C 12.32479 15.57364 0.03338
C 13.62316 15.04037 -0.0258
C 13.5266 13.51115 -0.0331
C 12.31145 12.85384 -0.00316
C 13.532 10.64451 -0.01979
C 11.00955 9.27511 0.03505
C 16.02079 10.71558 -0.00703
C 14.79306 8.44553 -0.00652
C 18.48717 10.67904 0.01126
C 18.43606 9.2751 0.01852
C 17.17684 8.45797 -0.00381
C 17.12842 7.02161 0.03046
C 18.37125 6.27895 0.0296
C 18.42244 4.9319 0.03374
C 17.1556 4.30764 -0.02845
C 17.13312 2.96741 -0.03213
C 18.32936 2.18582 0.02239
C 18.32641 0.76555 0.01153
C 17.21241 34.06532 0.02734
C 19.42806 32.54428 -0.0055
C 20.5846 31.91198 0.01515
C 20.64888 30.421 -0.00225
C 19.4769 29.77218 0.00071
C 17.30113 11.35773 -0.01185
C 16.06072 9.17691 -0.04076
C 17.21558 12.76263 -0.01662
C 18.48524 14.84213 0.01511
C 14.76265 7.04383 0.0058
C 15.96021 6.32002 -0.00865
C 15.95979 4.95605 0.00675
C 14.72465 4.26266 -0.00311
C 14.6681 2.79155 0.00742
C 15.97223 2.1288 -0.01594
C 15.91519 0.73794 0.0106
C 14.79037 33.88538 -0.01154
C 17.04744 32.8071 -0.01721
C 18.18311 31.83091 -0.02422
C 18.20751 30.34947 0.01277
C 18.26762 18.8827 0.00096
C 18.84519 17.65818 -0.01527
C 17.4 17.16206 0.01087
C 17.35863 15.70874 0.00199
C 18.34343 13.52285 -0.00478
C 20.26792 17.86488 -0.01107
C 11.06464 10.64288 0.01443
C 9.88271 12.78952 -0.00481
C 2.35773 7.13971 0.00985
C 3.59143 6.4158 -0.02245
C 3.59945 5.0745 -0.00428
C 2.44671 4.24278 0.03101
C 2.41386 2.91067 -0.01536
C 3.62157 2.21641 -0.02689
C 3.6104 0.8005 -0.01046
C 2.458 0.00126 -0.00891
C 4.88333 32.71469 0.02819
C 6.1119 31.73976 0.00165
C 5.76859 30.35401 -0.02971
C 4.77062 29.63754 0.02894
C 6.12073 17.97912 -0.01789
C 4.88003 17.15981 0.00444
C 4.99031 15.68329 -0.00925
C 2.37701 8.5493 -0.01275
C 6.20976 14.96674 0.01877
C 3.67047 9.31824 -0.01111
C 2.38478 11.44733 0.00943
C 3.61135 30.61803 0.00057
C 2.33264 29.98379 -0.01634
C 2.56137 28.59906 -0.00334
C 4.03004 28.54919 0.02339
C 2.23213 25.50158 0.01641
C 2.2531 24.19464 -0.00719
C 2.26882 21.38078 0.01364
C 2.47687 19.97093 -0.01062
C 3.6447 19.22089 -0.00033
C 3.64703 17.85685 0.03589
C 2.3903 17.0702 -0.02759
C 2.43874 15.65233 0.0402
C 3.73165 15.01448 0.00572
C 3.69055 13.57914 0.03592
C 2.48086 12.89299 0.00406
C 3.66776 10.72511 0.02841
C 9.81404 11.38838 0.00979
C 6.21111 13.5141 0.01363
C 4.87704 11.35686 0.00415
C 8.59097 10.65656 -0.01957
C 8.6274 9.26697 -0.0108
C 7.39895 8.52829 -0.00368
C 7.41173 7.05629 -0.02696
C 8.74028 6.3906 -0.00114
C 8.57358 4.97525 0.00228
C 7.3289 4.33611 0.00798
C 7.31956 2.8899 0.00422
C 8.47634 2.13564 0.0351
C 8.45763 0.68907 -0.03113
C 7.27153 33.98886 0.02098
C 9.89219 17.09335 0.01848
C 9.90504 15.70224 -0.00619
C 11.05636 14.93803 -0.02162
C 11.03529 13.54439 0.00889
C 7.37917 11.48726 0.02058
C 4.87132 12.81682 -0.02162
C 7.40923 12.85881 0.01965
C 8.61969 14.99492 0.00052
C 6.15437 10.72947 -0.0014
C 6.14788 9.2164 0.02162
C 4.86745 8.61883 0.0076
C 4.87444 7.11652 0.01241
C 6.11243 6.38726 -0.01454
C 6.08706 5.02661 0.01945
C 4.85277 4.34239 0.01416
C 4.87143 2.9705 0.03542
C 6.05019 2.22662 0.02299
C 6.07923 0.83331 0.00244
C 4.90865 0.12994 -0.01717
C 7.29711 32.57379 0.05265
C 8.58166 17.54005 -0.01952
C 7.30335 17.29947 -0.02813
C 7.36526 15.75507 0.00374
C 8.62945 13.53756 -0.03682
C 3.62131 31.95692 0.00093
C 20.26851 16.63432 -0.01586
C 20.45482 14.10633 -0.02118
C 32.94378 22.05911 0.01574
C 31.66067 21.41615 -0.02383
C 31.70275 19.86281 -0.01429
C 32.97786 19.23521 -0.0136
C 33.07723 17.79993 0.00594
C 31.85604 17.12413 -0.02474
C 31.90449 15.7413 0.00369
C 33.11185 15.04175 0.00455
C 33.14144 13.60176 -0.00644
C 31.84236 12.89931 -0.01839
C 31.82924 11.49266 0.00137
C 33.11463 10.72822 0.00199
C 33.11408 9.27581 0.04381
C 31.83351 8.62793 0.02806
C 31.92376 7.17525 0.01504
C 33.04136 23.45932 0.01927
C 33.07136 6.43559 -0.00069
C 31.85674 24.14003 0.03794
C 33.13805 26.34921 0.00682
C 29.41514 8.66962 -0.00971
C 29.41322 7.13246 0.01518
C 30.65953 6.39844 0.01908
C 30.6045 5.02433 0.07705
C 29.44352 4.31375 0.0103
C 29.48652 2.86607 0.02108
C 30.68933 2.25452 0.00716
C 30.71015 0.82795 0.00307
C 29.464 0.11875 0.00346
C 31.95493 32.73385 0.01713
C 33.08534 32.04124 -0.01694
C 33.08705 30.63782 0.01428
C 31.88804 29.89669 -0.02142
C 31.9485 28.41929 0.0544
C 33.18292 27.77469 0.00026
C 31.82891 25.55651 -0.01779
C 30.65792 9.36337 -0.03735
C 33.21452 5.02211 0.04926
C 31.95427 2.90638 0.00349
C 34.31547 15.68301 0.02114
C 1.16708 14.99434 -0.02957
C 1.2044 13.53992 0.00343
C 34.37434 12.86039 -0.02656
C 34.33419 11.33826 -0.02442
C 1.19398 10.7043 -0.00027
C 1.11016 9.32017 -0.00583
C 34.33223 8.56933 -0.02302
C 34.28946 7.1523 -0.02849
C 1.12999 6.4286 0.02931
C 1.22872 4.98182 0.00628
C 34.4277 4.32688 -0.0345
C 0.01826 2.89515 -0.00931
C 1.19492 2.16791 -0.00939
C 1.25073 0.73435 -0.00468
C 34.30237 17.10513 0.00648
C 31.96669 4.36824 -0.03838
C 1.15986 17.7418 0.01223
C 34.3335 19.99566 0.01951
C 33.22094 2.16433 -0.00323
C 33.22898 0.74479 -0.00841
C 31.94953 0.05235 0.0001
C 34.35462 32.78272 -0.02927
C 1.13845 32.05898 -0.01404
C 1.1123 30.70671 0.01027
C 34.41951 29.91032 0.01831
C 0.10424 28.5266 -0.01037
C 1.40415 27.75161 -0.00439
C 1.21287 26.36206 -0.00598
C 0.0166 25.6268 -0.05239
C 34.34658 24.17632 0.03076
C 1.07455 23.47166 0.00723
C 1.10879 22.01381 0.02712
C 34.24119 21.35891 -0.02213
C 1.17088 19.28094 -0.01678
C 19.90131 15.32932 -0.01971
C 30.66164 10.82404 -0.00944
C 29.4248 12.93884 -0.01461
C 22.0542 7.08483 -0.01154
C 23.22369 6.29396 0.00684
C 23.1853 4.89239 -0.01052
C 22.01625 4.20359 -0.01679
C 22.01994 2.74051 0.00367
C 23.27467 2.12699 0.04306
C 23.15982 0.64185 0.00996
C 21.87695 34.05803 0.00195
C 24.31699 32.48153 -0.00802
C 25.61061 31.86213 -0.00218
C 25.83581 30.44127 -0.01654
C 25.79587 10.56567 -0.00037
C 25.77519 9.19847 -0.0032
C 24.56962 8.50229 0.00622
C 24.49103 7.06762 -0.02815
C 22.19162 8.59077 -0.0264
C 25.76471 6.41422 -0.00942
C 23.37862 9.21663 -0.00938
C 22.2759 11.19806 -0.01199
C 19.62488 12.87286 0.00733
C 19.77476 11.49433 -0.00178
C 20.98209 10.72412 0.00768
C 20.88768 9.3204 -0.0276
C 19.66449 8.59331 0.03005
C 19.57222 7.08915 -0.04078
C 20.78918 6.33383 0.02117
C 20.8417 4.92412 0.02737
C 19.63373 4.21048 -0.00498
C 19.55927 2.78802 0.00135
C 20.70825 1.98596 0.03102
C 20.67273 0.661 0.02555
C 19.46618 34.01797 0.01423
C 21.87036 32.60331 -0.00285
C 23.03637 31.95224 -0.009
C 23.51828 10.68879 -0.00229
C 29.39891 11.56777 -0.02155
C 25.75137 4.96069 0.00487
C 24.47728 2.89654 -0.00294
C 29.3842 32.68198 0.00924
C 30.60847 31.98038 0.02326
C 30.63059 30.5665 0.00261
C 29.43541 29.75691 0.03265
C 29.50264 28.48303 -0.02049
C 30.651 27.67838 -0.01854
C 30.71273 26.27697 -0.01415
C 30.46417 23.61489 -0.03039
C 30.35315 22.33363 0.01836
C 29.31164 21.32112 0.03531
C 29.37794 20.02102 -0.00669
C 30.39458 19.04423 0.0101
C 30.49348 17.69671 0.01705
C 30.67855 15.13536 -0.0405
C 30.57832 13.72668 -0.01303
C 26.8854 0.02717 0.0014
C 24.41348 4.26889 0.00826
C 28.19193 0.77759 0.01324
C 26.95622 2.86752 0.01177
C 25.74511 2.15419 0.00152
C 25.65484 0.65045 0.01257
C 24.41425 33.91893 0.02316
C 26.81526 32.6444 0.04185
C 28.16678 31.95707 0.00194
C 28.26511 30.54944 -0.00621
C 27.09234 29.8584 0.02611
C 26.97079 11.33899 0.02198
C 28.1919 10.70828 0.01094
C 28.19469 9.33194 0.00235
C 26.99684 8.61479 0.01495
C 26.9693 7.16786 0.01259
C 28.19934 6.39042 0.01799
C 28.18592 4.99677 0.01699
C 26.98585 4.24738 -0.00416
C 28.22617 2.21262 0.04266
C 2.40211 32.65925 0.01291
