445
Graphene
C 0.00205 34.04688 0.01295
C 13.44298 15.00696 0.01291
C 13.47127 13.50585 0.00093
C 12.21184 12.84744 0.00057
C 12.2867 11.4395 -0.01634
C 13.51593 10.60472 -0.00334
C 13.52941 9.19702 0.02339
C 12.32039 8.53308 0.01641
C 12.335 7.09804 -0.00719
C 13.52386 6.38285 0.01364
C 13.53671 4.89979 -0.01062
C 12.2421 4.20082 -0.00033
C 12.36392 2.85556 0.03589
C 13.57289 2.12249 -0.02759
C 13.54193 0.70223 0.0402
C 12.31962 34.07456 0.00572
C 14.74501 32.54798 0.03592
C 15.97571 31.89308 0.00406
C 15.98479 30.4766 0.00943
C 14.69852 29.78504 0.02841
C 14.78065 28.32646 -0.01111
C 15.96851 27.63094 -0.01275
C 15.90087 26.28882 0.00985
C 14.70998 25.51341 -0.02245
C 12.30881 15.74286 0.00438
C 12.27555 17.15876 -0.00191
C 13.58635 17.7741 0.00373
C 13.53488 19.16604 0.02147
C 11.08065 10.69608 -0.00494
C 11.05547 9.27192 0.00054
C 9.77141 8.60138 0.03007
C 9.80407 7.17389 -0.00095
C 11.0186 6.3815 0.01572
C 11.09292 5.01942 -0.04848
C 9.82165 4.28144 -0.00892
C 9.87162 2.92038 -0.01362
C 11.14633 2.20046 -0.0008
C 11.07518 0.74592 0.0288
C 9.81694 0.04961 0.00393
C 14.67283 24.16115 -0.00428
C 12.24701 32.65712 0.00895
C 13.46983 30.46759 0.02888
C 12.28974 29.79023 -0.00482
C 12.27612 28.38927 -0.01384
C 13.46503 27.72375 0.03693
C 13.50631 26.31408 0.01745
C 12.22089 25.74887 0.00488
C 12.19469 24.2139 -0.01004
C 13.40885 23.39134 -0.02896
C 13.52342 22.03097 -0.00131
C 12.26967 21.31454 -0.01118
C 12.30406 19.85507 -0.014
C 13.4737 31.89448 0.00685
C 15.99771 23.46971 0.03101
C 16.00777 22.0376 -0.01536
C 14.77233 21.31454 -0.02689
C 17.20424 24.11831 0.00052
C 18.47332 23.43039 -0.03682
C 18.42504 21.95068 0.01965
C 17.18944 21.2927 0.02058
C 17.12262 19.89119 -0.01957
C 18.41147 19.08918 -0.0108
C 18.42489 17.70419 -0.00368
C 17.18537 16.99717 -0.02696
C 17.16932 15.58031 -0.00114
C 18.44311 14.89591 0.00228
C 18.41101 13.54284 0.00798
C 17.22134 25.61891 0.00374
C 17.17836 12.79536 0.00422
C 18.43778 10.68265 -0.03113
C 18.45176 9.2754 0.02098
C 17.24528 8.51922 0.01848
C 17.21104 7.07643 -0.00619
C 18.4525 6.35776 -0.02162
C 18.50898 4.9512 0.00889
C 17.24952 4.28051 -0.00481
C 17.25713 2.86012 0.00979
C 18.41904 2.09939 0.01443
C 18.39562 0.66876 0.03505
C 17.13714 34.04843 -0.02815
C 17.19605 11.41567 0.0351
C 9.87548 11.39223 -0.00562
C 18.42929 26.34632 -0.02813
C 17.15392 28.44859 0.05265
C 14.7573 19.90867 -0.01046
C 15.98867 19.1397 -0.00891
C 16.0194 17.70736 0.02819
C 14.7799 17.02998 0.00165
C 14.79673 15.61619 -0.02971
C 15.95158 14.87167 0.02894
C 15.90802 13.45618 -0.01789
C 14.63298 12.76934 0.00444
C 14.841 11.3436 -0.00925
C 16.04766 10.67112 0.01877
C 16.02444 9.20379 0.01363
C 18.39745 27.75212 -0.01952
C 14.79394 8.55996 -0.02162
C 15.99104 6.37556 -0.0014
C 16.02788 4.97545 0.02162
C 14.78676 4.21172 0.0076
C 14.78585 2.90738 0.01241
C 16.0286 2.1583 -0.01454
C 15.95433 0.69298 0.01945
C 14.78119 33.96766 0.01416
C 17.13818 32.63139 0.03542
C 18.40901 31.95452 0.02299
C 18.44082 30.62284 0.00244
C 17.18692 29.85648 -0.01717
C 14.70723 7.06005 0.00415
C 9.82291 12.79553 -0.01142
C 11.0406 13.54924 0.01849
C 10.97154 15.03697 0.01396
C 3.71325 0.69194 -0.01299
C 2.4967 0.00274 -0.00407
C 4.98785 32.62574 0.01138
C 6.14163 32.00148 0.03278
C 6.18334 30.49261 -0.00177
C 5.05504 29.81635 0.04421
C 4.95966 28.43336 0.00088
C 6.17237 27.69035 0.00828
C 6.08166 26.31873 -0.02375
C 4.82617 25.59099 0.00558
C 4.90924 24.23952 -0.0059
C 3.68523 2.09911 -0.0154
C 6.21924 23.55082 -0.01386
C 4.90425 21.24344 0.00081
C 4.95317 19.82985 0.00245
C 6.13449 19.11625 0.02728
C 6.19863 17.74049 -0.00039
C 4.86695 17.01652 0.0064
C 4.88021 15.65818 0.00211
C 6.09517 14.98523 -0.00449
C 6.11943 13.53986 -0.01979
C 4.97143 12.83314 0.02784
C 4.94228 11.34385 -0.01977
C 6.17021 10.69758 -0.00561
C 6.14917 22.07067 -0.02805
C 6.10474 9.36201 0.00208
C 2.39122 2.70328 0.00662
C 3.61762 4.97128 0.03345
C 3.74352 30.47324 -0.02419
C 2.49254 29.84811 -0.03951
C 2.54997 28.4138 -0.00141
C 3.76297 27.75784 -0.00374
C 3.66813 26.40221 -0.0213
C 2.45261 25.52948 0.01116
C 2.49582 24.05277 -0.0005
C 3.75962 23.30984 -0.00018
C 3.70703 21.97358 0.01073
C 2.36495 21.2373 0.01984
C 2.35675 19.79356 0.00535
C 2.45696 4.16159 0.00748
C 3.60166 19.17172 -0.00198
C 2.41952 17.0449 -0.04306
C 2.45805 15.63953 -0.03672
C 3.63524 14.97108 0.01913
C 3.7175 13.42702 0.00267
C 2.45404 12.76611 0.00787
C 2.45027 11.34992 0.02426
C 3.72085 10.70946 0.01218
C 3.68127 9.27394 -0.01471
C 2.45088 8.50509 -0.02827
C 2.46147 7.13066 0.01078
C 3.68587 6.373 -0.00112
C 3.57875 17.79421 -0.00012
C 19.63826 32.63763 -0.04147
C 4.91437 8.57729 0.01707
C 6.12137 6.44963 -0.03291
C 7.33508 8.58509 -0.03113
C 7.37813 7.21431 -0.02566
C 8.58961 6.50168 -0.00094
C 8.59775 5.06287 0.02322
C 7.33433 4.26351 -0.00725
C 7.42529 2.87231 -0.05697
C 8.66307 2.14842 0.01087
C 8.6502 0.67805 -0.01343
C 7.38365 0.03845 0.00988
C 9.82899 32.69992 0.0276
C 11.07107 31.90866 0.01305
C 8.58697 9.26863 0.017
C 10.97119 30.46936 -0.00077
C 9.71406 28.35681 -0.02929
C 11.06037 27.69262 -0.00966
C 11.05058 26.36243 -0.03337
C 10.98557 23.37976 0.01227
C 11.02634 22.0707 0.00873
C 9.82795 21.3167 -0.00049
C 9.85853 19.95814 0.00848
C 11.04273 19.21669 -0.01303
C 11.01716 17.78166 -0.01378
C 9.856 17.05576 0.02635
C 9.77601 15.67669 0.0127
C 9.73308 29.83302 0.03368
C 4.89029 7.11253 0.02769
C 8.66681 10.68828 -0.00643
C 7.38114 12.82028 -0.00518
C 6.08832 5.05064 -0.04999
C 4.85999 4.29408 0.04505
C 4.9401 2.84666 0.03284
C 6.15501 2.21712 -0.04307
C 6.11859 0.75634 0.03189
C 4.96122 0.01148 0.00031
C 7.35769 32.73268 -0.003
C 8.60967 32.04547 0.01402
C 8.61873 30.53405 0.02379
C 7.39006 29.77373 0.00907
C 7.38819 28.3729 0.00643
C 7.37661 11.46748 0.0086
C 8.55612 27.58166 -0.01509
C 7.56557 24.29286 0.02374
C 8.70877 23.44617 0.00402
C 8.62356 22.06202 0.0073
C 7.37563 21.38103 0.0174
C 7.37217 19.8757 0.03828
C 8.55358 19.15488 0.01226
C 8.50437 17.81489 -0.00279
C 7.32162 17.01186 0.01996
C 7.31614 15.57912 -0.03996
C 8.5894 14.87518 0.01465
C 8.61316 13.54327 -0.00074
C 7.34772 25.66807 0.03267
C 3.75015 31.92952 0.02438
C 20.91365 32.02546 -0.05302
C 19.73795 29.82036 -0.00066
C 29.49142 15.69254 0.01705
C 30.68627 14.89565 -0.0405
C 30.72494 13.48469 -0.01303
C 29.51799 12.80388 -0.01461
C 29.48736 11.3314 -0.02155
C 30.76289 10.60177 -0.00944
C 30.70859 9.21306 -0.03735
C 29.57275 8.48133 -0.00971
C 29.50201 6.98497 0.01518
C 30.72294 6.33316 0.01908
C 30.78125 4.92958 0.07705
C 29.48557 4.26868 0.0103
C 29.47849 2.87055 0.02108
C 30.71455 2.17575 0.00716
C 30.75841 0.73976 0.00307
C 29.5412 0.06153 0.00346
C 31.95707 32.73203 0.01713
C 33.25294 32.01434 -0.01694
C 33.17329 30.6072 0.01428
C 31.96059 29.89103 -0.02142
C 31.99623 28.41231 0.0544
C 33.23746 27.65684 0.00026
C 33.21228 26.26571 0.00682
C 29.58025 17.05058 0.0101
C 30.81968 17.7455 -0.00669
C 30.73903 19.11427 0.03531
C 29.50671 19.86591 0.01836
C 27.08405 11.33425 0.04185
C 28.28246 10.57867 0.00194
C 28.28586 9.14841 -0.00621
C 27.12248 8.51734 0.02611
C 27.05129 7.05137 0.02198
C 28.23808 6.38486 0.01094
C 28.2804 4.95155 0.00235
C 27.02242 4.31792 0.01495
C 27.08281 2.8336 0.01259
C 28.26293 2.11164 0.01799
C 28.25521 0.74407 0.01699
C 31.92688 25.54882 -0.01779
C 27.08402 0.00814 -0.00416
C 30.80025 31.98821 0.04266
C 30.71742 30.55075 0.01324
C 29.49539 29.81218 0.0014
C 29.45967 28.38836 0.00924
C 30.80379 27.72542 0.02326
C 30.74167 26.31311 0.00261
C 29.45943 25.62431 0.03265
C 29.41972 24.21747 -0.02049
C 30.64317 23.43869 -0.01854
C 30.63947 21.93912 -0.01415
C 29.43577 21.19653 -0.03039
C 29.45182 32.67678 0.01177
C 31.89616 24.12811 0.03794
C 33.15476 23.42073 0.01927
C 33.11145 21.98633 0.01574
C 0.02365 25.47236 -0.05239
C 34.43257 24.15077 0.03076
C 1.25522 23.4253 0.00723
C 1.21827 22.00022 0.02712
C 34.35295 21.28605 -0.02213
C 34.36269 19.86723 0.01951
C 1.1812 19.12765 -0.01678
C 1.20417 17.69235 0.01223
C 0.00742 16.94011 0.00648
C 34.39759 15.58222 0.02114
C 1.24892 14.90504 -0.02957
C 1.26037 26.24391 -0.00598
C 1.18907 13.51107 0.00343
C 0.03102 11.29408 -0.02442
C 1.29531 10.59363 -0.00027
C 1.22628 9.21124 -0.00583
C 0.01609 8.44605 -0.02302
C 0.0334 7.03568 -0.02849
C 1.23668 6.36048 0.02931
C 1.2116 4.96023 0.00628
C 0.00764 4.26456 -0.0345
C 34.37687 2.88183 -0.00931
C 1.10054 2.06899 -0.00939
C 1.19886 0.70288 -0.00468
C 0.00947 12.74372 -0.02656
C 27.11423 12.75713 0.02316
C 1.33788 27.64754 -0.00439
C 0.05767 29.78437 0.01831
C 31.9464 21.30303 -0.02383
C 31.99239 19.83981 -0.01429
C 33.23622 19.11939 -0.0136
C 33.23708 17.71175 0.00594
C 32.01127 17.02817 -0.02474
C 31.91152 15.5621 0.00369
C 33.16698 14.80941 0.00455
C 33.12784 13.46701 -0.00644
C 31.94662 12.77955 -0.01839
C 32.02077 11.30864 0.00137
C 33.22176 10.6335 0.00199
C 0.04183 28.362 -0.01037
C 33.24059 9.19049 0.04381
C 31.97581 7.05812 0.01504
C 33.19765 6.35262 -0.00069
C 33.19136 4.99495 0.04926
C 31.94426 4.22484 -0.03838
C 31.9472 2.86843 0.00349
C 33.12826 2.15107 -0.00323
C 33.24114 0.78586 -0.00841
C 32.00788 0.10257 0.0001
C 0.04204 32.65418 -0.02927
C 1.31846 31.92367 -0.01404
C 1.20847 30.5796 0.01027
C 32.00573 8.44466 0.02806
C 28.32042 13.50672 0.01257
C 28.25063 14.93996 0.00152
C 27.05126 15.71219 -0.00294
C 22.09641 32.69574 -0.04422
C 23.35596 32.01628 0.00654
C 23.34543 30.63729 -0.00703
C 22.11327 29.87101 -0.04076
C 22.06411 28.37691 -0.00652
C 23.28168 27.76203 0.0058
C 23.37975 26.27664 -0.00865
C 22.20856 25.55582 0.00675
C 22.21903 24.18161 -0.00311
C 23.50574 23.44676 0.00742
C 23.47122 21.97057 -0.01594
C 19.66062 0.02401 -0.02957
C 22.1244 21.30713 0.0106
C 23.34278 19.10279 -0.01721
C 23.37289 17.72079 -0.02422
C 22.11219 17.11459 0.01277
C 22.10669 15.64842 0.00096
C 23.36309 14.9274 -0.01527
C 23.34296 13.47705 0.01087
C 22.08744 12.76973 0.00199
C 22.06946 11.36158 0.01511
C 23.3907 10.59541 -0.00478
C 23.34181 9.15741 -0.01662
C 22.06226 8.52655 -0.01185
C 22.15087 19.93069 -0.01154
C 22.04202 7.12705 0.01126
C 20.88779 0.67946 -0.00831
C 19.65969 2.78856 -0.017
C 19.67743 28.3928 -0.00289
C 20.85323 27.692 0.00028
C 20.92122 26.19118 -0.02213
C 19.67011 25.58898 0.03698
C 19.71356 24.14362 -0.00109
C 20.95655 23.4378 -0.00491
C 21.00179 22.04238 0.03338
C 19.71547 21.30254 -0.0258
C 19.60579 19.84267 -0.0331
C 20.8886 19.21271 -0.00316
C 20.94041 17.82225 0.02188
C 20.91233 2.11652 0.00364
C 19.64036 17.09295 -0.01979
C 20.79659 14.91211 -0.01581
C 20.80559 13.46863 0.01452
C 19.58005 12.84037 0.04892
C 19.66032 11.35385 -0.00111
C 20.84198 10.61786 -0.03557
C 20.83123 9.24302 0.03754
C 19.62351 8.51624 0.01739
C 19.643 7.10064 0.00755
C 20.87534 6.34661 -0.0054
C 20.91386 4.91398 0.00667
C 19.6876 4.23443 0.00143
C 19.64141 15.65408 0.02691
C 20.89093 30.5327 0.00213
C 23.30171 6.47658 0.01852
C 22.15332 4.24671 0.03046
C 24.54517 7.09499 -0.00285
C 25.75562 6.34994 -0.009
C 25.79277 5.0159 -0.01199
C 24.58913 4.2926 -0.00229
C 24.57821 2.84029 -0.00938
C 25.88037 2.11076 -0.0264
C 25.839 0.74128 -0.01154
C 24.60916 34.07548 0.00684
C 27.04436 32.63532 -0.01052
C 28.25699 31.8758 -0.01679
C 28.26912 30.40207 0.00367
C 24.55979 8.51785 0.01423
C 26.94901 29.77985 0.04306
C 28.22445 27.68787 0.00195
C 28.16881 26.30958 -0.00802
C 27.01067 25.53835 -0.00218
C 26.99148 24.12538 -0.01654
C 28.27031 23.47098 -0.00037
C 28.28513 21.96481 -0.0032
C 27.04316 21.28969 0.00622
C 27.04568 19.88715 -0.02815
C 28.25309 19.20517 -0.00942
C 28.27376 17.72338 0.00487
C 27.03575 17.06473 0.00826
C 26.91967 28.37318 0.00996
C 23.37223 4.98556 -0.00381
C 25.82711 9.22095 0.02555
C 24.53067 11.27235 0.00135
C 22.16214 2.80421 0.0296
C 23.40295 2.13865 0.03374
C 23.41708 0.76753 -0.02845
C 22.10962 0.03045 -0.03213
C 24.57987 32.68971 0.02239
C 25.7792 31.93296 0.01153
C 25.77056 30.56207 0.02734
C 24.56866 29.83839 -0.0055
C 24.50421 28.47722 0.01515
C 25.76143 27.69565 -0.00225
C 25.8306 26.28356 0.00071
C 25.8267 10.59896 0.03102
C 24.56334 25.49905 -0.01107
C 25.82739 23.41684 -0.01971
C 25.85012 21.94957 -0.02118
C 24.66745 21.28638 0.00733
C 24.54759 19.89479 -0.00178
C 25.83725 19.22527 0.00768
C 25.85739 17.80991 -0.0276
C 24.60282 17.04472 0.03005
C 24.58666 15.61659 -0.04078
C 25.8339 14.86675 0.02117
C 25.9146 13.45455 0.02737
C 24.53566 12.71106 -0.00498
C 24.5754 24.1898 -0.01586
C 2.51192 32.58157 0.00297
