423
Graphene
C 34.39587 34.00877 0.01295
C 13.50341 9.32191 0.03592
C 12.33458 8.63306 0.00406
C 12.11444 7.31111 0.00943
C 13.39645 6.46701 0.02841
C 13.43155 4.99553 -0.01111
C 12.24362 4.30593 -0.01275
C 12.27949 2.84135 0.00985
C 13.49983 2.17009 -0.02245
C 13.54521 0.70633 -0.00428
C 12.32507 0.00954 0.03101
C 13.53422 10.7496 0.00572
C 14.83882 32.5957 -0.01536
C 16.0028 30.5048 -0.01046
C 14.75012 29.78336 -0.00891
C 14.7166 28.35878 0.02819
C 16.01791 27.66324 0.00165
C 16.01629 26.22185 -0.02971
C 14.72237 25.54421 0.02894
C 14.78399 24.05889 -0.01789
C 15.94872 23.3279 0.00444
C 16.01768 21.97342 -0.00925
C 14.7413 21.26734 0.01877
C 16.05489 31.97434 -0.02689
C 12.2234 12.91967 0.0402
C 13.56612 13.56709 -0.02759
C 13.46864 14.99297 0.03589
C 11.10438 5.07599 0.03693
C 9.86339 4.35998 0.01745
C 9.79548 2.98558 0.00488
C 11.03985 2.20349 -0.01004
C 10.99447 0.78773 -0.02896
C 9.72896 0.12869 -0.00131
C 12.27796 32.60993 -0.01118
C 13.53734 32.02326 -0.014
C 13.50466 30.57222 0.02147
C 12.2976 29.88078 0.00373
C 12.26174 28.49566 -0.00191
C 13.50081 27.67219 0.00438
C 13.49895 26.27023 0.01291
C 12.29981 25.64637 0.00093
C 12.29631 24.14248 0.00057
C 13.41975 23.3829 -0.01634
C 13.45405 21.95446 -0.00334
C 12.22209 21.29712 0.02339
C 12.22779 19.90719 0.01641
C 13.46738 19.15258 -0.00719
C 13.49507 17.76865 0.01364
C 12.27096 17.14269 -0.01062
C 12.31179 15.69361 -0.00033
C 14.69646 19.86271 0.01363
C 11.01963 6.458 -0.01384
C 15.98692 19.14764 -0.02162
C 14.78325 17.05506 -0.0014
C 18.43096 19.15612 -0.03113
C 18.46807 17.71457 0.02098
C 17.28201 17.02918 0.01848
C 17.26458 15.59386 -0.00619
C 18.50333 14.92292 -0.02162
C 18.81302 13.42975 0.00889
C 17.4655 12.66099 -0.00481
C 17.3345 11.13602 0.00979
C 18.2839 9.46441 0.01443
C 17.12054 8.44155 0.03505
C 17.24361 19.83518 0.0351
C 17.13976 7.0915 -0.02815
C 18.35653 5.00818 -0.05302
C 17.12684 4.23704 0.00213
C 17.1033 2.80447 -0.00066
C 18.36988 2.09904 -0.00289
C 18.37956 0.71994 0.00028
C 17.19146 34.05417 -0.02213
C 19.66133 28.40651 0.03698
C 20.90227 27.67062 -0.00109
C 20.8354 26.24609 -0.00491
C 19.60717 25.55697 0.03338
C 18.41295 6.44881 -0.04147
C 17.26607 21.25364 0.00422
C 18.42438 22.00572 0.00798
C 18.45182 23.40966 0.00228
C 14.75716 15.64539 0.02162
C 16.00687 14.92046 0.0076
C 16.13816 13.50133 0.01241
C 14.81655 12.84788 -0.01454
C 14.71565 11.38218 0.01945
C 15.95273 10.64957 0.01416
C 15.82789 9.17286 0.03542
C 14.66711 8.51447 0.02299
C 14.63668 7.14064 0.00244
C 15.92262 6.37894 -0.01717
C 15.8878 4.95743 0.05265
C 14.6642 4.18802 -0.01952
C 14.69677 2.78398 -0.02813
C 15.93478 2.06906 0.00374
C 15.96412 0.67363 0.00052
C 14.7738 0.00739 -0.03682
C 17.32927 32.65864 0.01965
C 17.24216 29.76464 0.02058
C 17.24396 28.38459 -0.01957
C 18.46266 27.68462 -0.0108
C 18.42759 26.2719 -0.00368
C 17.20293 25.53338 -0.02696
C 17.20043 24.10433 -0.00114
C 15.99597 17.74007 0.00415
C 19.64892 24.12476 -0.0258
C 11.07276 13.49162 -0.00482
C 9.88496 15.68612 0.00685
C 3.52814 2.22694 0.02784
C 3.60243 0.79909 -0.01977
C 2.42985 34.05986 -0.00561
C 4.93865 32.70236 0.00208
C 6.18525 31.94102 0.01707
C 6.13925 30.58135 0.02769
C 4.95509 29.81458 -0.03291
C 4.90769 28.40326 -0.04999
C 6.21502 27.69868 0.04505
C 6.17396 26.32085 0.03284
C 2.31865 2.8553 -0.01979
C 4.95686 25.58727 -0.04307
C 6.18706 23.46682 0.00031
C 6.17145 21.99206 -0.003
C 4.90093 21.36866 0.01402
C 4.93435 19.88847 0.02379
C 6.14488 19.1227 0.00907
C 6.18165 17.69985 0.00643
C 4.94024 17.02338 -0.01509
C 4.94314 15.58841 0.03267
C 6.15511 14.92306 0.02374
C 6.0312 13.42977 0.00402
C 4.87652 24.23477 0.03189
C 2.39901 4.29301 -0.00449
C 3.62924 5.05702 0.00211
C 3.64088 6.51683 0.0064
C 3.71186 30.4897 0.01078
C 2.51034 29.7827 -0.00112
C 2.50047 28.30314 0.03345
C 3.73057 27.64816 0.00748
C 3.7357 26.28265 0.00662
C 2.5074 25.57027 -0.0154
C 2.42394 24.18955 -0.01299
C 3.72234 23.48685 -0.00407
C 3.70108 22.00738 0.01138
C 2.42939 21.30139 0.03278
C 2.49381 19.86621 -0.00177
C 3.71276 19.16693 0.04421
C 3.71524 17.74314 0.00088
C 2.48162 17.04461 0.00828
C 2.44922 15.65737 -0.02375
C 3.73596 14.84699 0.00558
C 3.63558 13.46113 -0.0059
C 2.35437 12.79963 -0.01386
C 2.35174 11.30319 -0.02805
C 3.54391 10.60235 0.00081
C 3.5538 9.24117 0.00245
C 2.39601 8.53608 0.02728
C 2.42357 7.14197 -0.00039
C 4.92006 12.61492 0.0073
C 11.14529 14.99036 0.02888
C 4.80171 11.17716 0.0174
C 4.97563 7.2004 0.01226
C 8.63545 4.99157 -0.00049
C 7.36285 4.35344 0.00848
C 7.34449 2.96625 -0.01303
C 8.54309 2.33668 -0.01378
C 8.53054 0.80656 0.02635
C 7.29482 0.08998 0.0127
C 9.78714 32.74472 0.01396
C 11.05737 31.96677 0.01849
C 11.0866 30.58022 -0.01142
C 9.77788 29.9579 -0.00562
C 8.63048 6.42388 0.00873
C 9.87091 28.52057 -0.00494
C 11.06251 26.32757 0.03007
C 9.83015 25.64168 -0.00095
C 9.83391 24.21845 0.01572
C 11.01053 23.45944 -0.04848
C 10.98136 22.02993 -0.00892
C 9.79838 21.33389 -0.01362
C 9.82946 19.93676 -0.0008
C 11.07702 19.17321 0.0288
C 11.0728 17.78947 0.00393
C 9.8239 17.16384 0.00895
C 11.06184 27.78087 0.00054
C 7.44198 7.08861 0.01227
C 8.64845 14.89627 -0.03337
C 7.37493 15.56436 -0.00966
C 6.17408 6.56961 -0.00279
C 6.14617 5.09701 0.01996
C 4.91909 4.36353 -0.03996
C 4.82014 2.93757 0.01465
C 6.06599 2.24877 -0.00074
C 6.11165 0.84181 -0.00518
C 4.94098 0.03093 0.0086
C 7.32605 32.74524 -0.00643
C 8.52903 32.10706 0.017
C 8.55471 30.68364 -0.03113
C 7.35296 29.8939 -0.02566
C 7.39534 28.49734 -0.00094
C 8.66432 27.80493 0.02322
C 8.62746 26.32221 -0.00725
C 7.40333 25.61551 -0.05697
C 7.40257 24.16144 0.01087
C 8.62939 23.47878 -0.01343
C 8.59937 22.0358 0.00988
C 7.38741 21.29871 0.0276
C 7.35416 19.84948 0.01305
C 8.59918 19.20626 -0.00077
C 8.60727 17.78459 0.03368
C 7.43811 16.94887 -0.02929
C 4.84045 8.65976 0.03828
C 3.70859 31.97868 -0.02827
C 20.84214 23.38266 -0.0331
C 19.6507 21.30462 0.02188
C 29.47147 11.33722 -0.02155
C 30.74076 10.63832 -0.00944
C 30.76649 9.23219 -0.03735
C 29.52076 8.48211 -0.00971
C 29.51166 7.03236 0.01518
C 30.70877 6.33382 0.01908
C 30.74769 4.85951 0.07705
C 29.47061 4.25847 0.0103
C 29.49946 2.83128 0.02108
C 30.67627 2.09863 0.00716
C 29.51226 12.79272 -0.01461
C 30.72086 0.67185 0.00307
C 32.0142 32.55381 0.01713
C 33.29554 31.886 -0.01694
C 33.29454 30.44827 0.01428
C 32.05367 29.76922 -0.02142
C 31.98081 28.33895 0.0544
C 33.20024 27.64955 0.00026
C 33.24231 26.14043 0.00682
C 31.9455 25.50622 -0.01779
C 31.89492 24.07505 0.03794
C 33.10262 23.4223 0.01927
C 29.47616 34.06857 0.00346
C 30.74401 13.54269 -0.01303
C 30.74085 14.96418 -0.0405
C 29.52338 15.69589 0.01705
C 28.25289 6.33851 0.01094
C 28.34872 4.96136 0.00235
C 27.04496 4.26456 0.01495
C 27.04509 2.87005 0.01259
C 28.21625 2.08994 0.01799
C 28.23313 0.68251 0.01699
C 27.02201 0.01123 -0.00416
C 29.46207 32.64276 0.01177
C 30.79635 31.8869 0.04266
C 30.75931 30.45811 0.01324
C 29.50453 29.82458 0.0014
C 29.53509 28.37187 0.00924
C 30.76496 27.63341 0.02326
C 30.68373 26.25092 0.00261
C 29.47852 25.52074 0.03265
C 29.45727 24.05501 -0.02049
C 30.62273 23.37459 -0.01854
C 30.60989 21.9623 -0.01415
C 29.38354 21.33892 -0.03039
C 29.46151 19.83513 0.01836
C 30.73392 19.17844 0.03531
C 30.78208 17.75756 -0.00669
C 29.51207 17.05168 0.0101
C 33.13505 22.02009 0.01574
C 27.00882 7.1633 0.02198
C 31.87372 21.34554 -0.02383
C 33.16743 19.18823 -0.0136
C 1.22549 23.4279 0.00723
C 1.13947 22.02925 0.02712
C 34.2975 21.30215 -0.02213
C 34.40367 19.87553 0.01951
C 1.24246 19.22964 -0.01678
C 1.29348 17.80359 0.01223
C 0.06157 17.09127 0.00648
C 0.00353 15.71568 0.02114
C 1.18544 14.88736 -0.02957
C 1.15468 13.50582 0.00343
C 34.3775 24.0651 0.03076
C 34.3639 12.78922 -0.02656
C 1.18868 10.58712 -0.00027
C 1.15736 9.13685 -0.00583
C 34.36852 8.43532 -0.02302
C 34.41015 7.07031 -0.02849
C 1.16731 6.40793 0.02931
C 1.16196 4.94547 0.00628
C 34.33221 4.21877 -0.0345
C 34.36699 2.81651 -0.00931
C 1.14559 2.13916 -0.00939
C 1.19685 0.6569 -0.00468
C 34.40226 11.3308 -0.02442
C 0.05178 25.49153 -0.05239
C 1.31495 26.16761 -0.00598
C 1.21174 27.57487 -0.00439
C 33.22109 17.79699 0.00594
C 31.97642 17.10534 -0.02474
C 31.95776 15.66786 0.00369
C 33.1741 14.99494 0.00455
C 33.17503 13.56322 -0.00644
C 31.95213 12.83944 -0.01839
C 31.93748 11.29934 0.00137
C 33.13789 10.64249 0.00199
C 33.14009 9.19464 0.04381
C 31.96353 8.47735 0.02806
C 31.93118 6.99444 0.01504
C 33.162 6.30866 -0.00069
C 33.07895 4.83784 0.04926
C 31.89935 4.13598 -0.03838
C 31.92317 2.76496 0.00349
C 33.20192 2.05021 -0.00323
C 33.18273 0.64057 -0.00841
C 31.97131 33.98786 0.0001
C 0.03123 32.60546 -0.02927
C 1.2505 31.96327 -0.01404
C 1.27488 30.50209 0.01027
C 0.05356 29.75553 0.01831
C 0.0115 28.33447 -0.01037
C 31.93233 19.88466 -0.01429
C 20.84563 22.0253 -0.00316
C 27.07217 8.53395 0.02611
C 28.31355 10.64361 0.00194
C 23.32742 21.93979 -0.01594
C 22.11499 21.28621 0.0106
C 22.1492 19.93475 -0.01154
C 23.3821 19.17791 -0.01721
C 23.41788 17.76136 -0.02422
C 22.09151 16.97529 0.01277
C 22.09575 15.59476 0.00096
C 23.33448 14.83357 -0.01527
C 23.16323 13.38089 0.01087
C 21.76233 12.61546 0.00199
C 23.2698 23.43711 0.00742
C 22.04081 11.22617 0.01511
C 23.37746 9.20545 -0.01662
C 22.13292 8.57199 -0.01185
C 22.05027 7.17995 0.01126
C 23.25103 6.44018 0.01852
C 23.28145 5.00934 -0.00381
C 22.04028 4.32604 0.03046
C 22.02329 2.8808 0.0296
C 23.29231 2.14477 0.03374
C 23.36707 0.76103 -0.02845
C 22.14878 34.0476 -0.03213
C 23.35679 10.6125 -0.00478
C 22.06977 24.15177 -0.00311
C 22.16828 25.5669 0.00675
C 23.36124 26.20031 -0.00865
C 19.72778 19.91775 -0.01979
C 20.87556 19.1695 0.02691
C 20.9779 17.75292 -0.01581
C 19.63407 17.05949 0.01452
C 19.67469 15.62786 0.04892
C 20.902 14.90528 -0.00111
C 20.60374 13.46039 -0.03557
C 20.99507 9.53017 0.03754
C 19.65272 8.81387 0.01739
C 19.51726 7.28773 0.00755
C 20.80439 6.5089 -0.0054
C 20.77784 5.05826 0.00667
C 19.63 4.28166 0.00143
C 19.56585 2.82755 -0.017
C 20.81422 2.15189 0.00364
C 20.848 0.69282 -0.00831
C 19.60747 0.05817 -0.02957
C 22.17888 32.72814 -0.04422
C 23.3071 31.9391 0.00654
C 23.39274 30.46857 -0.00703
C 22.22462 29.85307 -0.04076
C 22.1656 28.4212 -0.00652
C 23.36706 27.63219 0.0058
C 24.536 32.69385 0.02239
C 28.22889 9.25923 -0.00621
C 25.81675 31.99617 0.01153
C 24.62827 29.76433 -0.0055
C 24.58209 34.05419 0.00684
C 27.0287 32.69717 -0.01052
C 28.28938 31.8983 -0.01679
C 28.25171 30.48295 0.00367
C 27.04705 29.75028 0.04306
C 27.04665 28.30505 0.00996
C 28.30457 27.64125 0.00195
C 28.19384 26.2277 -0.00802
C 27.0127 25.45513 -0.00218
C 26.98251 24.0217 -0.01654
C 25.82916 0.77889 -0.01154
C 28.28221 23.36887 -0.00037
C 26.95773 21.20133 0.00622
C 26.95739 19.82266 -0.02815
C 28.21594 19.16137 -0.00942
C 28.2443 17.78209 0.00487
C 27.08544 17.04871 0.00826
C 27.04247 15.64661 -0.00294
C 28.31715 14.95511 0.00152
C 28.33233 13.55026 0.01257
C 27.0911 12.84166 0.02316
C 27.11208 11.38846 0.04185
C 28.17361 21.98825 -0.0032
C 25.8498 2.22409 -0.0264
C 24.53332 2.88776 -0.00938
C 24.52265 4.30373 -0.00229
C 24.6023 28.32339 0.01515
C 25.8138 27.59626 -0.00225
C 25.85909 26.20817 0.00071
C 24.61234 25.52272 -0.01107
C 24.56715 24.09603 -0.01586
C 25.73923 23.351 -0.01971
C 25.71672 21.96501 -0.02118
C 24.54098 21.27941 0.00733
C 24.56551 19.8455 -0.00178
C 25.78532 19.15895 0.00768
C 25.84236 17.76107 -0.0276
C 24.68237 17.0365 0.03005
C 24.63641 15.55008 -0.04078
C 25.92362 14.93905 0.02117
C 25.8277 13.47456 0.02737
C 24.52733 12.82219 -0.00498
C 24.65344 11.32929 0.00135
C 25.9266 10.60821 0.03102
C 25.84095 9.25667 0.02555
C 24.6605 8.56484 0.01423
C 24.55092 7.16689 -0.00285
C 25.79282 6.44363 -0.009
C 25.80638 4.97391 -0.01199
C 25.83353 30.5585 0.02734
C 2.46941 32.65874 -0.01471
