442
Graphene
C 0.009 0.02824 0.01295
C 13.58913 19.16066 0.00057
C 13.48737 17.82232 -0.01634
C 12.30058 17.08795 -0.00334
C 12.33204 15.61056 0.02339
C 13.58782 14.9678 0.01641
C 13.55949 13.5343 -0.00719
C 12.25397 12.76894 0.01364
C 12.27069 11.36978 -0.01062
C 13.49521 10.55277 -0.00033
C 13.51546 9.19798 0.03589
C 12.33809 8.54 -0.02759
C 12.34002 7.07282 0.0402
C 13.5606 6.37633 0.00572
C 13.56302 4.95464 0.03592
C 12.26621 4.34478 0.00406
C 12.29674 2.81025 0.00943
C 13.51828 2.06397 0.02841
C 13.47395 0.67151 -0.01111
C 12.34344 34.01145 -0.01275
C 14.70703 32.63827 0.00985
C 15.95278 31.99071 -0.02245
C 15.97989 30.49842 -0.00428
C 14.71001 29.86506 0.03101
C 12.23299 19.94748 0.00093
C 12.31578 21.35459 0.01291
C 13.56683 22.03868 0.00438
C 13.55388 23.46563 -0.00191
C 11.09245 14.90961 0.03007
C 11.04684 13.49627 -0.00095
C 9.83158 12.77817 0.01572
C 9.8457 11.38344 -0.04848
C 11.08081 10.7343 -0.00892
C 11.03741 9.25265 -0.01362
C 9.8089 8.59973 -0.0008
C 9.866 7.05065 0.0288
C 11.09726 6.39573 0.00393
C 11.09658 5.01884 0.00895
C 9.91621 4.26114 0.00685
C 14.72227 28.33545 -0.01536
C 9.83657 2.87048 0.02888
C 11.07568 0.65055 -0.01384
C 9.76658 34.05685 0.03693
C 12.31233 32.63892 0.01745
C 13.58521 31.958 0.00488
C 13.5114 30.57041 -0.01004
C 12.29747 29.86821 -0.02896
C 12.26317 28.50968 -0.00131
C 13.5018 27.69885 -0.01118
C 13.50947 26.1985 -0.014
C 12.28757 25.5352 0.02147
C 12.3111 24.19416 0.00373
C 11.06497 2.08696 -0.00482
C 9.8189 15.62166 0.00054
C 15.9777 27.72997 -0.02689
C 14.80136 25.53969 -0.00891
C 17.27944 28.46991 0.01965
C 18.44801 27.64277 0.02058
C 18.4553 26.26997 -0.01957
C 17.23734 25.55256 -0.0108
C 17.25597 24.09688 -0.00368
C 18.40673 23.41742 -0.02696
C 18.42424 21.98012 -0.00114
C 17.22575 21.26211 0.00228
C 17.21292 19.85086 0.00798
C 18.41743 19.21328 0.00422
C 18.39999 17.73107 0.0351
C 17.16879 17.03299 -0.03113
C 17.14439 15.64661 0.02098
C 18.4315 14.94647 0.01848
C 18.43625 13.50862 -0.00619
C 17.24214 12.76086 -0.02162
C 17.22294 11.36444 0.00889
C 18.43837 10.68422 -0.00481
C 18.44498 9.27718 0.00979
C 17.25802 8.54242 0.01443
C 17.21331 7.10388 0.03505
C 18.44969 6.35201 -0.02815
C 18.4133 4.95621 -0.04147
C 17.21777 29.83045 -0.03682
C 18.49126 30.54955 0.00052
C 18.41943 31.94301 0.00374
C 17.18069 32.6685 -0.02813
C 14.73542 24.1632 0.02819
C 15.98939 23.42459 0.00165
C 15.93551 22.02341 -0.02971
C 14.76157 21.3214 0.02894
C 14.79853 19.86897 -0.01789
C 15.95556 19.14811 0.00444
C 15.95936 17.68822 -0.00925
C 14.71308 17.02199 0.01877
C 14.78276 15.60348 0.01363
C 15.94503 14.87513 -0.02162
C 16.00508 13.47178 0.00415
C 16.0599 26.30085 -0.01046
C 14.73239 12.83801 -0.0014
C 16.00817 10.60448 0.0076
C 15.96123 9.22561 0.01241
C 14.73951 8.52377 -0.01454
C 14.7596 7.14588 0.01945
C 15.98599 6.35221 0.01416
C 15.96226 4.99733 0.03542
C 14.73398 4.27717 0.02299
C 14.72834 2.83545 0.00244
C 15.98049 2.1308 -0.01717
C 15.99141 0.75039 0.05265
C 14.76839 34.01898 -0.01952
C 14.77061 11.38836 0.02162
C 9.85892 17.03566 -0.00494
C 11.0733 17.758 -0.00562
C 11.01866 19.24615 -0.01142
C 3.7239 0.73124 0.03278
C 2.45501 34.04075 -0.00177
C 4.88727 32.66416 0.04421
C 6.10796 31.99077 0.00088
C 6.18248 30.49344 0.00828
C 4.96718 29.85534 -0.02375
C 4.91748 28.39145 0.00558
C 6.23309 27.66637 -0.0059
C 6.16452 26.25285 -0.01386
C 4.85099 25.54512 -0.02805
C 4.89565 24.22592 0.00081
C 6.15235 23.4341 0.00245
C 6.17962 21.98731 0.02728
C 4.90412 21.31034 -0.00039
C 4.95046 19.85991 0.0064
C 6.12107 19.11539 0.00211
C 6.20756 17.70651 -0.00449
C 4.83713 16.99587 -0.01979
C 4.87625 15.68063 0.02784
C 6.09437 14.95756 -0.01977
C 6.13649 13.50106 -0.00561
C 4.95668 12.82342 0.00208
C 4.92449 11.29326 0.01707
C 3.75072 2.13028 0.01138
C 2.51676 2.87863 -0.00407
C 2.44484 4.2861 -0.01299
C 3.66339 4.96084 -0.0154
C 3.64783 30.46874 -0.00374
C 2.44033 29.78988 -0.0213
C 2.50512 28.39732 0.01116
C 3.71292 27.66508 -0.0005
C 3.67782 26.29727 -0.00018
C 2.46865 25.60971 0.01073
C 2.43152 24.14 0.01984
C 3.75525 23.42296 0.00535
C 3.75015 22.02111 -0.00198
C 2.4856 21.3692 -0.00012
C 2.42359 19.77999 -0.04306
C 6.14852 10.64626 0.02769
C 3.64162 19.16639 -0.03672
C 2.40474 16.99296 0.00267
C 2.45511 15.62029 0.00787
C 3.65652 14.94287 0.02426
C 3.68074 13.52545 0.01218
C 2.4904 12.72881 -0.01471
C 2.43484 11.38655 -0.02827
C 3.67936 10.67073 0.01078
C 3.7331 9.24364 -0.00112
C 2.46351 8.48624 0.03345
C 2.47407 7.06815 0.00748
C 3.73258 6.40722 0.00662
C 3.67623 17.74377 0.01913
C 6.13816 9.2716 -0.03291
C 4.98304 8.50627 -0.04999
C 4.93797 7.1372 0.04505
C 8.59787 10.67602 -0.00094
C 8.62592 9.27704 0.02322
C 7.34679 8.58561 -0.00725
C 7.34642 7.13988 -0.05697
C 8.62153 6.41606 0.01087
C 8.55091 4.97316 -0.01343
C 7.37401 4.30476 0.00988
C 7.37853 2.8517 0.0276
C 8.6162 2.13368 0.01305
C 8.57501 0.76572 -0.00077
C 7.34511 0.06849 0.03368
C 7.40093 11.37407 -0.02566
C 9.77737 32.64976 -0.02929
C 11.00451 30.57749 -0.03337
C 9.82685 29.80341 0.01227
C 9.8821 28.40091 0.00873
C 11.03861 27.74805 -0.00049
C 11.04974 26.3017 0.00848
C 9.89928 25.61962 -0.01303
C 9.87179 24.10911 -0.01378
C 11.07111 23.45632 0.02635
C 11.01601 22.01571 0.0127
C 9.83477 21.31618 0.01396
C 9.82636 19.93681 0.01849
C 10.98425 31.95131 -0.00966
C 17.16393 4.27601 -0.05302
C 7.36433 12.72924 -0.03113
C 8.62184 14.96224 -0.00643
C 6.0906 6.37624 0.03284
C 6.13522 4.99572 -0.04307
C 4.89956 4.21791 0.03189
C 4.91601 2.8362 0.00031
C 6.13961 2.17389 -0.003
C 6.17649 0.73511 0.01402
C 4.94897 0.05761 0.02379
C 7.35784 32.67248 0.00907
C 8.58746 31.95949 0.00643
C 8.57603 30.53354 -0.01509
C 7.32926 29.86527 0.03267
C 8.64157 13.50378 0.017
C 7.40998 28.36618 0.02374
C 8.67891 26.25122 0.0073
C 7.38201 25.58113 0.0174
C 7.36702 24.16032 0.03828
C 8.62802 23.44322 0.01226
C 8.5743 22.01924 -0.00279
C 7.36755 21.28756 0.01996
C 7.3623 19.90311 -0.03996
C 8.65736 19.21664 0.01465
C 8.62769 17.6813 -0.00074
C 7.43045 17.00312 -0.00518
C 7.40241 15.63575 0.0086
C 8.63673 27.72926 0.00402
C 17.20866 2.79919 0.00213
C 18.38972 2.13211 -0.00066
C 18.50301 0.66243 -0.00289
C 29.48276 15.57129 0.01705
C 30.73412 14.93597 -0.0405
C 30.71136 13.47299 -0.01303
C 29.46753 12.81566 -0.01461
C 29.50641 11.3652 -0.02155
C 30.75785 10.59218 -0.00944
C 30.77565 9.21599 -0.03735
C 29.51116 8.55536 -0.00971
C 29.58031 7.08573 0.01518
C 30.75337 6.3291 0.01908
C 30.75825 4.97668 0.07705
C 29.54436 4.23588 0.0103
C 29.48421 2.8227 0.02108
C 30.75947 2.10445 0.00716
C 30.74159 0.7096 0.00307
C 29.4956 0.00011 0.00346
C 31.9856 32.72252 0.01713
C 33.19207 31.95869 -0.01694
C 33.24454 30.58064 0.01428
C 31.93932 29.84134 -0.02142
C 31.99313 28.4011 0.0544
C 33.20997 27.69549 0.00026
C 33.24035 26.32538 0.00682
C 29.53518 17.02195 0.0101
C 30.71936 17.68979 -0.00669
C 30.7319 19.1876 0.03531
C 29.51279 19.89432 0.01836
C 27.08772 11.39844 0.04185
C 28.25251 10.57629 0.00194
C 28.2488 9.20867 -0.00621
C 27.05362 8.51227 0.02611
C 27.12116 7.09921 0.02198
C 28.24316 6.34832 0.01094
C 28.23127 4.96984 0.00235
C 27.03898 4.21961 0.01495
C 27.03533 2.83738 0.01259
C 28.27511 2.07835 0.01799
C 28.27698 0.75266 0.01699
C 31.97927 25.60021 -0.01779
C 27.05189 34.0684 -0.00416
C 30.74978 31.92826 0.04266
C 30.69613 30.49209 0.01324
C 29.45811 29.82072 0.0014
C 29.52516 28.40328 0.00924
C 30.7982 27.63086 0.02326
C 30.73834 26.24012 0.00261
C 29.46289 25.56848 0.03265
C 29.51901 24.13909 -0.02049
C 30.73364 23.50762 -0.01854
C 30.71498 22.04564 -0.01415
C 29.52089 21.30152 -0.03039
C 29.49753 32.69054 0.01177
C 32.00594 24.15747 0.03794
C 33.23023 23.42356 0.01927
C 33.19885 21.97375 0.01574
C 34.40757 25.56957 -0.05239
C 34.40763 24.17276 0.03076
C 1.20283 23.51832 0.00723
C 1.22557 21.97706 0.02712
C 34.42655 21.26266 -0.02213
C 34.36713 19.86706 0.01951
C 1.21983 19.19141 -0.01678
C 1.25616 17.74255 0.01223
C 34.36103 16.96842 0.00648
C 34.39903 15.59802 0.02114
C 1.24425 14.92049 -0.02957
C 1.21916 26.22114 -0.00598
C 1.20086 13.5094 0.00343
C 0.00736 11.31473 -0.02442
C 1.23252 10.65636 -0.00027
C 1.26853 9.24329 -0.00583
C 34.41236 8.5016 -0.02302
C 0.01087 7.04072 -0.02849
C 1.2061 6.34541 0.02931
C 1.18159 4.93634 0.00628
C 0.00202 4.23631 -0.0345
C 0.05576 2.79975 -0.00931
C 1.25357 2.17285 -0.00939
C 1.17452 0.71342 -0.00468
C 34.37679 12.74065 -0.02656
C 27.0475 12.71412 0.02316
C 1.19619 27.69397 -0.00439
C 0.04426 29.81995 0.01831
C 32.00774 21.29603 -0.02383
C 31.87757 19.89953 -0.01429
C 33.13006 19.11931 -0.0136
C 33.20454 17.73928 0.00594
C 31.98028 17.01372 -0.02474
C 32.03594 15.55821 0.00369
C 33.25793 14.83631 0.00455
C 33.24273 13.45637 -0.00644
C 31.95062 12.78076 -0.01839
C 31.98476 11.28061 0.00137
C 33.15696 10.60719 0.00199
C 34.41867 28.43497 -0.01037
C 33.23573 9.17674 0.04381
C 32.04281 7.07612 0.01504
C 33.17588 6.35002 -0.00069
C 33.20026 4.95261 0.04926
C 31.98921 4.27555 -0.03838
C 31.98093 2.82682 0.00349
C 33.24614 2.13253 -0.00323
C 33.17395 0.69177 -0.00841
C 31.97175 0.01903 0.0001
C 0.04519 32.65197 -0.02927
C 1.28707 31.96681 -0.01404
C 1.26375 30.56497 0.01027
C 31.98112 8.55089 0.02806
C 3.72177 31.87029 -0.00141
C 28.25818 13.49677 0.01257
C 27.07245 15.64069 -0.00294
C 19.64053 4.32564 0.00654
C 19.6313 2.82883 -0.00703
C 20.90395 2.15361 -0.04076
C 20.8888 0.74536 -0.00652
C 19.68595 34.06475 0.0058
C 22.1626 32.67784 -0.00865
C 23.34904 32.02511 0.00675
C 23.36022 30.50614 -0.00311
C 22.1637 29.85857 0.00742
C 22.19685 28.37804 -0.01594
C 23.42313 27.64688 0.0106
C 23.28661 26.23465 -0.01154
C 22.14355 25.57457 -0.01721
C 22.11159 24.11612 -0.02422
C 23.5135 23.46176 0.01277
C 23.33055 22.02512 0.00096
C 22.1224 21.2836 -0.01527
C 22.14109 19.85057 0.01087
C 23.27225 19.15997 0.00199
C 23.29522 17.75342 0.01511
C 22.0962 17.02751 -0.00478
C 22.09617 15.60407 -0.01662
C 23.388 14.87176 -0.01185
C 20.82466 4.94161 -0.04422
C 20.90015 6.40096 -0.02957
C 19.64302 7.13126 -0.00831
C 19.64024 8.51302 0.00364
C 17.20393 0.02523 0.00028
C 19.67767 32.66046 -0.02213
C 20.90311 31.92428 0.03698
C 20.88751 30.5102 -0.00109
C 19.68051 29.71589 -0.00491
C 19.6934 28.36915 0.03338
C 20.91041 27.66302 -0.0258
C 20.90469 26.26852 -0.0331
C 19.73849 25.64472 -0.00316
C 19.67674 24.15658 0.02188
C 20.86707 23.38518 -0.01979
C 23.36168 13.44308 0.01126
C 20.8992 22.04601 0.02691
C 19.6285 19.90566 0.01452
C 20.90852 19.14498 0.04892
C 20.96226 17.78549 -0.00111
C 19.70667 17.05056 -0.03557
C 19.67245 15.62847 0.03754
C 20.88511 14.85186 0.01739
C 20.89834 13.509 0.00755
C 19.68444 12.78149 -0.0054
C 19.64142 11.34382 0.00667
C 20.8795 10.61466 0.00143
C 20.91085 9.19672 -0.017
C 19.65742 21.298 -0.01581
C 22.14031 12.7583 0.01852
C 22.15349 11.32077 -0.00381
C 23.36733 10.69913 0.03046
C 24.64554 11.38349 -0.00285
C 25.79421 10.63686 -0.009
C 25.84273 9.19301 -0.01199
C 24.59639 8.55773 -0.00229
C 24.61337 7.17225 -0.00938
C 25.84546 6.37564 -0.0264
C 25.82103 4.93453 -0.01154
C 24.67013 4.26461 0.00684
C 24.55673 2.87284 -0.01052
C 25.85025 2.14344 -0.01679
C 25.83959 0.74892 0.00367
C 24.60357 12.75674 0.01423
C 24.61364 34.05128 0.04306
C 28.22847 31.91348 0.00195
C 28.33653 30.5288 -0.00802
C 27.05563 29.81635 -0.00218
C 26.99945 28.43417 -0.01654
C 28.2717 27.68339 -0.00037
C 28.2396 26.27404 -0.0032
C 27.0661 25.55912 0.00622
C 26.99134 19.76189 -0.02815
C 28.24955 19.16485 -0.00942
C 28.27566 17.77262 0.00487
C 27.07122 17.09582 0.00826
C 27.01201 32.56143 0.00996
C 28.30762 14.90315 0.00152
C 25.81112 13.52615 0.02555
C 24.58535 15.6357 0.00135
C 23.35269 9.28726 0.0296
C 22.14928 8.47597 0.03374
C 22.15404 7.05954 -0.02845
C 23.3876 6.39233 -0.03213
C 23.37352 4.98616 0.02239
C 22.14795 4.23272 0.01153
C 22.15836 2.85868 0.02734
C 23.34648 2.1164 -0.0055
C 23.37515 0.74223 0.01515
C 22.10754 34.0714 -0.00225
C 24.54671 32.72249 0.00071
C 25.80513 14.87832 0.03102
C 25.74507 31.93355 -0.01107
C 24.53765 29.82867 -0.01971
C 24.57505 28.40929 -0.02118
C 25.84191 27.77191 0.00733
C 25.80634 26.23171 -0.00178
C 24.58569 25.58739 0.00768
C 24.57206 24.14514 -0.0276
C 24.59709 21.2334 0.03005
C 24.55651 19.90149 -0.04078
C 25.7932 19.22815 0.02117
C 25.89061 17.77607 0.02737
C 24.68322 17.06234 -0.00498
C 25.8649 30.55153 -0.01586
C 2.46321 32.62082 -0.03951
