362
Graphene
C 0.04381 0.02969 0.01295
C 13.46636 31.95934 0.01965
C 13.54334 30.46328 0.02058
C 12.2885 29.80495 -0.01957
C 12.23448 28.46431 -0.0108
C 13.46068 27.71777 -0.00368
C 13.47019 26.28721 -0.02696
C 12.3031 25.63469 -0.00114
C 12.30137 24.149 0.00228
C 12.26549 32.66189 -0.03682
C 13.47395 23.39118 0.00798
C 12.29724 21.28627 0.0351
C 12.36967 19.94557 -0.03113
C 13.55113 19.22612 0.02098
C 13.4964 17.77235 0.01848
C 12.28501 17.03964 -0.00619
C 12.34227 15.67553 -0.02162
C 13.50627 14.91186 0.00889
C 13.47486 13.41475 -0.00481
C 13.46965 22.05128 0.00422
C 9.82362 34.07503 0.00052
C 11.08996 0.6382 0.00374
C 11.07304 2.12754 -0.02813
C 9.73581 28.43023 0.00444
C 11.0512 27.76454 -0.00925
C 11.02453 26.35924 0.01877
C 9.81112 25.60667 0.01363
C 9.82292 24.17147 -0.02162
C 11.0111 23.4082 0.00415
C 11.08984 21.98084 -0.0014
C 9.82579 21.3424 0.02162
C 9.87781 19.93022 0.0076
C 11.12789 19.24096 0.01241
C 11.05024 17.84882 -0.01454
C 9.83913 17.03903 0.01945
C 9.87018 15.69472 0.01416
C 11.10826 14.95946 0.03542
C 10.95292 13.50619 0.02299
C 11.22089 6.26059 0.00244
C 11.09564 4.92268 -0.01717
C 9.80782 4.17741 0.05265
C 9.832 2.83095 -0.01952
C 12.08395 12.63508 0.00979
C 9.73037 29.89033 -0.01789
C 12.45856 11.35427 0.01443
C 13.5276 9.19802 -0.02815
C 16.08412 17.72579 0.01739
C 14.83107 16.94732 0.00755
C 14.77954 15.57286 -0.0054
C 15.8743 14.79981 0.00667
C 15.96956 13.4574 0.00143
C 14.70895 12.70341 -0.017
C 14.84689 11.41926 0.00364
C 16.09218 10.65767 -0.00831
C 15.94624 19.12389 0.03754
C 15.94553 9.23153 -0.02957
C 14.77179 7.02883 0.00654
C 16.01987 6.31206 -0.00703
C 16.05478 4.88668 -0.04076
C 14.81665 4.24413 -0.00652
C 14.75991 2.81905 0.0058
C 16.03258 2.05817 -0.00865
C 15.99137 0.67199 0.00675
C 14.7452 34.02714 -0.00311
C 14.7212 8.49493 -0.04422
C 14.7931 19.83761 -0.03557
C 14.81241 21.29339 -0.00111
C 15.95555 22.01376 0.04892
C 12.21761 8.73462 -0.04147
C 12.15116 7.26231 -0.05302
C 13.55043 6.43054 0.00213
C 13.54856 5.02703 -0.00066
C 12.35177 4.24355 -0.00289
C 12.32444 2.78389 0.00028
C 13.54878 2.06613 -0.02213
C 13.51989 0.65089 0.03698
C 12.29722 34.00144 -0.00109
C 14.77027 32.61201 -0.00491
C 16.00971 31.90555 0.03338
C 16.02853 30.49446 -0.0258
C 14.72469 29.83127 -0.0331
C 14.73064 28.46469 -0.00316
C 15.953 27.67726 0.02188
C 15.94674 26.24235 -0.01979
C 14.68766 25.5591 0.02691
C 14.69106 24.12362 -0.01581
C 15.87546 23.42942 0.01452
C 13.65351 10.61273 0.03505
C 11.04099 30.45873 0.02894
C 11.00046 31.90673 -0.02971
C 9.81568 32.66176 0.00165
C 3.71197 6.51465 0.02635
C 3.65283 5.09817 0.0127
C 2.37542 4.33005 0.01396
C 2.42338 2.87166 0.01849
C 3.72553 2.11457 -0.01142
C 3.73016 0.75105 -0.00562
C 2.49489 0.05063 -0.00494
C 4.94346 32.65551 0.00054
C 2.46327 7.20628 -0.01378
C 6.11573 31.98699 0.03007
C 4.87503 29.8703 0.01572
C 4.92477 28.45218 -0.04848
C 6.13452 27.74953 -0.00892
C 6.17782 26.31078 -0.01362
C 4.99135 25.53724 -0.0008
C 4.89429 24.19194 0.0288
C 6.14569 23.44919 0.00393
C 6.1376 22.02349 0.00895
C 6.12009 30.54283 -0.00095
C 2.46869 8.60107 -0.01303
C 3.64432 9.36709 0.00848
C 3.69964 10.77391 -0.00049
C 3.60781 30.57605 0.017
C 2.4 29.78696 -0.03113
C 2.4612 28.43905 -0.02566
C 3.72013 27.71614 -0.00094
C 3.77183 26.28426 0.02322
C 2.44693 25.5828 -0.00725
C 2.4427 24.16388 -0.05697
C 3.73169 23.47248 0.01087
C 3.71229 21.96005 -0.01343
C 2.45369 21.32873 0.00988
C 2.49408 19.91392 0.0276
C 3.76997 19.12603 0.01305
C 3.6791 17.71516 -0.00077
C 2.48675 17.06136 0.03368
C 2.36898 15.62325 -0.02929
C 3.69177 15.01967 -0.00966
C 3.66954 13.44197 -0.03337
C 2.40162 12.74678 0.01227
C 2.47338 11.40462 0.00873
C 4.87909 21.3104 0.00685
C 4.96749 19.9836 0.02888
C 6.17545 19.21978 -0.00482
C 6.14629 17.75011 -0.01384
C 7.39601 24.12378 0.03589
C 8.6382 23.42824 -0.02759
C 8.63217 22.04881 0.0402
C 7.38926 21.28756 0.00572
C 7.41107 19.87976 0.03592
C 8.69853 19.25171 0.00406
C 8.63627 17.76629 0.00943
C 7.41619 17.07695 0.02841
C 7.48982 15.64774 -0.01111
C 8.66731 14.93028 -0.01275
C 8.73216 13.51838 0.00985
C 7.46675 13.05482 -0.02245
C 8.36004 6.25144 -0.00428
C 8.47774 4.80397 0.03101
C 7.21455 4.21506 -0.01536
C 7.30751 2.87392 -0.02689
C 8.54507 2.16114 -0.01046
C 8.5423 0.69238 -0.00891
C 7.29085 0.00052 0.02819
C 7.36399 25.62946 -0.00033
C 17.17083 32.65034 0.00742
C 8.62077 26.291 -0.01062
C 7.30351 28.43194 -0.00719
C 4.96606 17.08027 0.03693
C 4.91449 15.63696 0.01745
C 6.16718 14.93408 0.00488
C 6.20968 13.51056 -0.01004
C 4.97545 12.7502 -0.02896
C 4.90783 11.41017 -0.00131
C 4.89194 8.64721 -0.01118
C 5.16119 7.31046 -0.014
C 6.34372 6.49126 0.02147
C 6.10016 5.03431 0.00373
C 4.85368 4.36111 -0.00191
C 4.8642 2.90913 0.00438
C 6.07265 2.17865 0.01291
C 6.08395 0.70645 0.00093
C 4.90595 34.06035 0.00057
C 7.28918 32.73888 -0.01634
C 8.55593 31.97227 -0.00334
C 8.5672 30.5661 0.02339
C 7.32083 29.8502 0.01641
C 8.54693 27.70948 0.01364
C 18.42937 31.94007 -0.01594
C 18.45109 30.55972 0.0106
C 17.19593 29.77532 -0.01154
C 29.45926 2.8765 0.00346
C 30.66344 2.18713 0.01713
C 30.73724 0.77471 -0.01694
C 29.6086 0.05158 0.01428
C 31.94764 32.74869 -0.02142
C 33.18743 32.03478 0.0544
C 33.11866 30.59568 0.00026
C 31.91935 29.84949 0.00682
C 29.40709 4.35323 0.00307
C 31.99609 28.45706 -0.01779
C 33.19996 26.38208 0.01927
C 31.95141 25.53674 0.01574
C 31.98572 24.12739 -0.02383
C 33.19607 23.4539 -0.01429
C 33.2158 22.0566 -0.0136
C 31.96009 21.27538 0.00594
C 32.06927 19.91346 -0.02474
C 33.06793 19.06166 0.00369
C 33.17462 27.73733 0.03794
C 30.62331 4.97115 0.00716
C 30.68773 6.36581 0.02108
C 29.47062 7.12183 0.0103
C 26.98879 4.28529 -0.02049
C 27.0221 2.84546 -0.01854
C 28.26131 2.09646 -0.01415
C 28.35227 0.67999 -0.03039
C 27.09161 34.07759 0.01836
C 29.58524 32.68827 0.03531
C 30.76948 31.97573 -0.00669
C 30.7078 30.60155 0.0101
C 29.50426 29.87219 0.01705
C 29.5176 28.42416 -0.0405
C 30.69984 27.68326 -0.01303
C 30.69599 26.34233 -0.01461
C 29.46236 25.60178 -0.02155
C 29.43684 24.09004 -0.00944
C 30.67186 23.32795 -0.03735
C 30.66912 21.94684 -0.00971
C 29.41806 21.47452 0.01518
C 30.75703 9.06318 0.01908
C 29.56224 8.435 0.07705
C 33.31522 17.70213 0.00455
C 33.20505 14.84621 -0.00644
C 33.14917 13.4457 -0.01839
C 31.89449 11.31138 0.00137
C 0.00826 19.84832 0.01951
C 1.28763 19.13949 -0.01678
C 1.28774 17.68882 0.01223
C 34.40882 17.00949 0.00648
C 34.37868 15.61972 0.02114
C 1.14689 14.84415 -0.02957
C 1.08022 13.46345 0.00343
C 34.32714 12.73154 -0.02656
C 34.32624 11.37215 -0.02442
C 1.16592 10.73762 -0.00027
C 1.18877 9.30066 -0.00583
C 34.38076 8.49692 -0.02302
C 34.42621 7.13748 -0.02849
C 1.20224 6.4561 0.02931
C 1.20041 5.07797 0.00628
C 34.38506 4.29273 -0.0345
C 0.01008 2.91449 -0.00931
C 1.22245 2.15881 -0.00939
C 1.25112 0.78735 -0.00468
C 0.01788 21.27175 -0.02213
C 28.17239 5.10202 0.03265
C 1.18818 22.00864 0.02712
C 34.40314 24.16466 0.03076
C 33.10578 10.66355 0.00199
C 33.15596 9.19538 0.04381
C 31.96811 8.45928 0.02806
C 31.87424 7.04654 0.01504
C 33.23842 6.38519 -0.00069
C 33.13152 4.90948 0.04926
C 31.84569 4.23291 -0.03838
C 31.94974 2.85049 0.00349
C 33.22273 2.21247 -0.00323
C 33.25932 0.71937 -0.00841
C 32.00633 0.06517 0.0001
C 34.40696 32.70081 -0.02927
C 1.1492 31.95896 -0.01404
C 1.16263 30.53395 0.01027
C 34.37263 29.79003 0.01831
C 0.03814 28.37498 -0.01037
C 1.246 27.69762 -0.00439
C 1.26039 26.28681 -0.00598
C 0.01381 25.62875 -0.05239
C 1.20338 23.43489 0.00723
C 3.63536 31.93978 -0.00643
C 28.22451 6.53914 0.00261
C 28.24196 22.14748 0.00924
C 20.92321 30.48215 0.01515
C 19.67263 29.79192 -0.00225
C 19.66892 28.37889 0.00071
C 20.96428 27.71088 -0.01107
C 20.87661 26.26429 -0.01586
C 19.63426 25.54194 -0.01971
C 19.63898 24.03746 -0.02118
C 20.96456 23.39869 0.00733
C 20.87755 31.91021 -0.0055
C 20.65237 22.06974 -0.00178
C 19.40602 8.55015 -0.0276
C 19.63349 7.23188 0.03005
C 20.90597 6.54282 -0.04078
C 20.86055 4.99271 0.02117
C 19.65356 4.15005 0.02737
C 19.64127 2.73987 -0.00498
C 20.86508 2.03208 0.00135
C 20.94918 0.65882 0.03102
C 19.50012 21.34091 0.00768
C 19.62862 32.60967 0.02734
C 17.19213 34.03447 0.01153
C 18.45911 0.61526 0.02239
C 17.19566 28.35297 -0.01721
C 18.44825 27.71227 -0.02422
C 18.44061 26.3047 0.01277
C 17.12594 25.6261 0.00096
C 17.11828 24.16212 -0.01527
C 18.41266 23.3985 0.01087
C 18.36935 21.96338 0.00199
C 17.09294 21.29086 0.01511
C 17.12833 19.84358 -0.00478
C 17.18787 16.98076 -0.01662
C 17.22659 11.32788 -0.01185
C 18.27123 9.13382 0.01126
C 17.13747 8.47946 0.01852
C 17.24782 7.04193 -0.00381
C 18.50388 6.376 0.03046
C 18.47992 4.95478 0.0296
C 17.23585 4.21301 0.03374
C 17.23041 2.74299 -0.02845
C 18.41848 1.94524 -0.03213
C 19.72475 34.03638 0.02555
C 22.1258 32.62263 0.01423
C 23.34778 31.88831 -0.00285
C 23.33199 30.55385 -0.009
C 24.72419 24.0432 0.00152
C 26.01542 23.3172 0.01257
C 25.85341 6.34387 0.02316
C 25.68725 5.03874 0.04185
C 24.52796 4.275 0.00194
C 24.50348 2.81486 -0.00621
C 25.84008 2.1276 0.02611
C 25.84656 0.69376 0.02198
C 24.57627 0.01283 0.01094
C 27.01394 32.68147 0.00235
C 28.29336 31.9724 0.01495
C 28.25816 30.558 0.01259
C 27.03098 29.89217 0.01799
C 27.06636 28.43086 0.01699
C 28.27163 27.70269 -0.00416
C 28.27094 26.27535 0.01177
C 27.03008 25.66228 0.04266
C 27.0181 24.2124 0.01324
C 28.22589 23.47944 0.0014
C 24.61523 25.51876 -0.00294
C 27.0141 7.10975 0.02326
C 25.77597 26.27998 0.00826
C 24.55866 28.40092 -0.00942
C 22.16337 29.75295 -0.01199
C 22.11724 28.39408 -0.00229
C 23.32198 27.61665 -0.00938
C 23.35128 26.15628 -0.0264
C 22.05597 25.4412 -0.01154
C 22.21044 24.03181 0.00684
C 23.42461 23.62925 -0.01052
C 22.11385 6.93147 -0.01679
C 23.19658 6.29221 0.00367
C 23.31479 4.96947 0.04306
C 22.13161 4.28307 0.00996
C 22.06995 2.82296 0.00195
C 23.29944 2.14507 -0.00802
C 23.3617 0.6919 -0.00218
C 22.14261 34.02476 -0.01654
C 24.59968 32.68033 -0.00037
C 25.79572 31.948 -0.0032
C 25.84973 30.48669 0.00622
C 24.63582 29.8004 -0.02815
C 25.84088 27.70692 0.00487
C 2.40908 32.6953 0.0086
