340
Graphene
C 0.0192 0.0291 0.01295
C 12.33957 28.38107 -0.00619
C 13.4847 27.75312 -0.02162
C 13.51819 26.30979 0.00889
C 12.30463 25.55247 -0.00481
C 12.33764 24.17447 0.00979
C 13.55214 23.47833 0.01443
C 13.45993 4.90701 0.03505
C 12.2658 4.24411 -0.02815
C 12.28061 2.75743 -0.04147
C 13.52495 2.13231 -0.05302
C 13.56395 0.72919 0.00213
C 12.31921 34.04071 -0.00066
C 14.79059 32.64109 -0.00289
C 16.05756 31.92898 0.00028
C 15.97569 30.59307 -0.02213
C 14.76417 29.79599 0.03698
C 14.75834 28.30572 -0.00109
C 12.2493 29.77052 0.01848
C 16.03511 27.60905 -0.00491
C 13.47667 30.49206 0.02098
C 12.28864 32.67301 0.0351
C 9.8586 29.78527 -0.01717
C 9.82097 28.43266 0.05265
C 10.98991 27.71804 -0.01952
C 11.07343 26.29336 -0.02813
C 9.85992 25.5667 0.00374
C 9.83812 24.14102 0.00052
C 11.10627 23.44466 -0.03682
C 11.01829 22.01425 0.01965
C 9.89023 21.29097 0.02058
C 9.88364 7.0952 -0.01957
C 11.03458 6.48561 -0.0108
C 11.05861 4.99215 -0.00368
C 9.82746 4.29733 -0.02696
C 9.85742 2.77982 -0.00114
C 11.08711 2.12765 0.00228
C 11.08947 0.72813 0.00798
C 9.87781 0.01342 0.00422
C 13.5011 31.87881 -0.03113
C 15.96526 26.28296 0.03338
C 14.77187 25.52903 -0.0258
C 14.68595 24.11192 -0.0331
C 19.70779 29.79922 -0.04076
C 19.77232 28.41242 -0.00652
C 20.91377 27.69911 0.0058
C 20.92404 26.27577 -0.00865
C 19.65951 25.63882 0.00675
C 19.66103 24.16744 -0.00311
C 20.89602 23.36531 0.00742
C 20.93379 21.94296 -0.01594
C 19.67256 21.32741 0.0106
C 19.71628 19.84887 -0.01154
C 20.83084 19.21071 -0.01721
C 20.87379 0.72461 -0.02422
C 19.68901 34.0639 0.01277
C 22.1555 32.69696 0.00096
C 23.3579 31.91953 -0.01527
C 23.39136 30.51251 0.01087
C 22.14863 29.79685 0.00199
C 20.9312 30.47223 -0.00703
C 20.85512 31.96821 0.00654
C 19.65874 32.64948 -0.04422
C 17.24089 34.05725 -0.02957
C 15.98543 23.4091 -0.00316
C 15.97602 22.05755 0.02188
C 14.76374 2.81163 -0.01979
C 15.92867 2.18108 0.02691
C 15.94524 0.76148 -0.01581
C 14.74377 0.03328 0.01452
C 17.22089 32.66097 0.04892
C 18.49138 31.92282 -0.00111
C 11.09103 30.51529 0.00244
C 18.45499 30.53355 -0.03557
C 17.22933 28.41571 0.01739
C 18.48252 27.70172 0.00755
C 18.45555 26.276 -0.0054
C 17.21914 25.52142 0.00667
C 17.19751 24.11114 0.00143
C 18.44447 23.41861 -0.017
C 18.50007 22.0743 0.00364
C 18.43195 0.70718 -0.00831
C 17.20422 29.83089 0.03754
C 22.08907 28.40937 0.01511
C 11.09198 31.93416 0.02299
C 7.31249 0.02048 0.01416
C 2.45821 8.53099 -0.00482
C 2.47735 7.05857 -0.01384
C 3.66856 6.36783 0.03693
C 3.66839 4.90399 0.01745
C 2.40487 4.2502 0.00488
C 2.44411 2.83559 -0.01004
C 3.64163 2.14336 -0.02896
C 3.71776 0.71961 -0.00131
C 2.52486 34.07957 -0.01118
C 4.88002 32.7157 -0.014
C 6.15312 31.91535 0.02147
C 6.13672 30.54197 0.00373
C 4.91099 29.85389 -0.00191
C 4.9467 28.44577 0.00438
C 6.14703 27.64429 0.01291
C 6.14222 26.28491 0.00093
C 4.8985 25.58318 0.00057
C 3.66506 9.22148 0.02888
C 4.91764 24.15814 -0.01634
C 3.67721 10.70972 0.00685
C 2.48741 12.75567 0.00393
C 3.70432 30.58413 -0.01378
C 2.49138 29.83762 0.02635
C 2.46881 28.41728 0.0127
C 3.64284 27.74929 0.01396
C 3.71356 26.31266 0.01849
C 2.4796 25.54413 -0.01142
C 2.42943 24.11981 -0.00562
C 3.6562 23.43059 -0.00494
C 3.73504 21.95413 0.00054
C 2.5076 21.3039 0.03007
C 2.4513 19.86153 -0.00095
C 3.74043 19.15567 0.01572
C 3.66805 17.73879 -0.04848
C 2.40693 17.01723 -0.00892
C 2.41438 15.70035 -0.01362
C 3.68108 14.94214 -0.0008
C 3.73479 13.47558 0.0288
C 2.44349 11.3937 0.00895
C 6.2114 23.4371 -0.00334
C 6.13416 21.99743 0.02339
C 4.9761 21.29655 0.01641
C 7.31567 28.35547 0.02819
C 8.5944 27.76624 0.00165
C 8.57849 26.32374 -0.02971
C 7.36289 25.57541 0.02894
C 7.40691 24.1894 -0.01789
C 8.60421 23.36099 0.00444
C 8.6424 22.00838 -0.00925
C 7.40314 21.33113 0.01877
C 7.38592 19.92391 0.01363
C 7.35944 8.4904 -0.02162
C 7.32151 7.06546 0.00415
C 8.60165 6.38803 -0.0014
C 8.65485 4.97793 0.02162
C 7.38767 4.21835 0.0076
C 7.38131 2.85818 0.01241
C 8.62258 2.16475 -0.01454
C 8.55863 0.7228 0.01945
C 7.45946 29.80713 -0.00891
C 8.68631 30.54455 -0.01046
C 8.62345 31.99059 -0.02689
C 7.32958 32.56038 -0.01536
C 4.91965 19.88007 -0.00719
C 6.12486 19.19495 0.01364
C 6.10186 17.74529 -0.01062
C 4.92952 17.03086 -0.00033
C 4.87916 15.64458 0.03589
C 4.88837 12.79458 -0.02759
C 4.96463 11.32822 0.0402
C 6.11149 10.66511 0.00572
C 9.823 32.6868 0.03542
C 6.17092 9.28115 0.03592
C 4.89684 7.08424 0.00943
C 6.13746 6.4014 0.02841
C 6.17623 4.99622 -0.01111
C 4.91687 4.29106 -0.01275
C 4.89015 2.88749 0.00985
C 6.17882 2.13609 -0.02245
C 6.14177 0.76852 -0.00428
C 4.9115 0.0356 0.03101
C 4.93472 8.56198 0.00406
C 23.32099 27.75623 -0.00478
C 23.32682 26.30913 -0.01662
C 22.14126 25.56082 -0.01185
C 31.92748 29.80715 -0.02142
C 32.00412 28.42534 0.0544
C 33.22311 27.68991 0.00026
C 33.20798 26.25798 0.00682
C 31.94552 25.58402 -0.01779
C 31.95519 24.18988 0.03794
C 33.22557 23.42693 0.01927
C 33.16342 21.99409 0.01574
C 31.95155 21.33992 -0.02383
C 31.97358 19.86278 -0.01429
C 33.2224 19.16081 -0.0136
C 33.14686 17.8008 0.00594
C 31.95289 17.06082 -0.02474
C 32.04266 15.65356 0.00369
C 33.23319 14.84492 0.00455
C 33.21431 13.48528 -0.00644
C 31.91748 12.77407 -0.01839
C 33.21471 30.52469 0.01428
C 31.94873 11.37521 0.00137
C 33.13136 31.94795 -0.01694
C 29.47246 34.06779 0.00346
C 30.72404 17.68388 -0.00669
C 29.50906 17.07464 0.0101
C 29.47176 15.61038 0.01705
C 30.78384 14.95626 -0.0405
C 30.74293 13.47003 -0.01303
C 29.50139 12.78803 -0.01461
C 29.51833 11.38157 -0.02155
C 30.78383 10.63946 -0.00944
C 30.76303 9.28833 -0.03735
C 29.49679 8.50703 -0.00971
C 29.51117 7.10615 0.01518
C 30.73289 6.40523 0.01908
C 30.69656 5.0297 0.07705
C 29.53286 4.25363 0.0103
C 29.53365 2.80695 0.02108
C 30.79522 2.09633 0.00716
C 30.73802 0.71528 0.00307
C 31.94347 32.67529 0.01713
C 33.19643 10.64813 0.00199
C 33.17032 9.22783 0.04381
C 31.96869 8.50304 0.02806
C 1.20691 17.76799 0.01223
C 0.03476 17.05609 0.00648
C 34.43213 15.54431 0.02114
C 1.25164 14.87738 -0.02957
C 1.24893 13.50745 0.00343
C 34.43099 12.79023 -0.02656
C 34.41861 11.32595 -0.02442
C 1.17751 10.68645 -0.00027
C 1.26907 9.18887 -0.00583
C 34.38845 8.48646 -0.02302
C 34.39582 7.12077 -0.02849
C 1.1854 6.34915 0.02931
C 1.17907 4.98044 0.00628
C 34.41842 4.23756 -0.0345
C 0.0167 2.77778 -0.00931
C 1.27393 2.12298 -0.00939
C 1.25783 0.73712 -0.00468
C 1.28866 19.16425 -0.01678
C 34.43257 19.82265 0.01951
C 0.00201 21.30124 -0.02213
C 1.2528 21.99872 0.02712
C 31.93137 7.1048 0.01504
C 33.205 6.37907 -0.00069
C 33.2016 4.97997 0.04926
C 31.95929 4.28356 -0.03838
C 31.99901 2.91794 0.00349
C 33.18655 2.12387 -0.00323
C 33.23384 0.73706 -0.00841
C 31.94101 0.0229 0.0001
C 30.74828 19.15821 0.03531
C 34.42006 32.64826 -0.02927
C 1.2765 30.56289 0.01027
C 0.02547 29.8143 0.01831
C 34.41511 28.37646 -0.01037
C 1.22937 27.6999 -0.00439
C 1.25065 26.28272 -0.00598
C 0.02375 25.63349 -0.05239
C 34.38883 24.08588 0.03076
C 1.18918 23.42185 0.00723
C 1.21844 31.96095 -0.01404
C 29.57671 19.86291 0.01836
C 29.49219 21.27917 -0.03039
C 30.69929 22.0401 -0.01415
C 24.57717 24.1271 -0.0276
C 25.79235 23.44046 0.03005
C 25.79463 21.95192 -0.04078
C 24.57439 21.35981 0.02117
C 24.60994 19.92858 0.02737
C 25.85152 19.19378 -0.00498
C 25.82558 17.75707 0.00135
C 24.55798 17.00348 0.03102
C 24.53536 15.61449 0.02555
C 25.82429 14.93425 0.01423
C 25.85901 13.43021 -0.00285
C 24.57237 12.79561 -0.009
C 25.81902 10.66171 -0.01199
C 25.80672 5.01395 -0.00229
C 24.58561 2.90417 -0.00938
C 25.79009 2.15775 -0.0264
C 25.81647 0.71507 -0.01154
C 24.5697 25.59531 0.00768
C 25.83159 26.25109 -0.00178
C 25.81994 27.69763 0.00733
C 24.56062 28.3701 -0.02118
C 22.13673 24.1124 0.01126
C 23.3455 23.42391 0.01852
C 23.35045 22.06106 -0.00381
C 22.14678 21.23628 0.03046
C 22.14124 19.83856 0.0296
C 23.31952 19.1481 0.03374
C 23.35962 17.76209 -0.02845
C 22.17803 16.99807 -0.03213
C 24.53039 34.04411 0.00684
C 22.12274 15.70979 0.02239
C 23.38414 13.45013 0.02734
C 23.37889 2.09812 -0.0055
C 23.32268 0.73863 0.01515
C 22.14033 34.0562 -0.00225
C 24.58603 32.6736 0.00071
C 25.84747 31.95131 -0.01107
C 25.81265 30.51021 -0.01586
C 24.61397 29.7775 -0.01971
C 23.34353 14.86789 0.01153
C 3.67402 31.95508 -0.01303
C 27.05847 32.62974 -0.01052
C 28.32442 30.5144 0.00367
C 28.28393 6.41549 0.01094
C 28.22357 4.96626 0.00235
C 26.96738 4.24752 0.01495
C 27.05974 2.78896 0.01259
C 28.25456 2.13318 0.01799
C 28.31396 0.68674 0.01699
C 27.08286 34.06082 -0.00416
C 29.42033 32.67049 0.01177
C 30.69908 31.88739 0.04266
C 30.75078 30.51489 0.01324
C 29.51709 29.79118 0.0014
C 29.55452 28.34462 0.00924
C 30.80109 27.63102 0.02326
C 30.75256 26.24634 0.00261
C 29.49556 25.54076 0.03265
C 29.53021 24.04318 -0.02049
C 30.72076 23.41564 -0.01854
C 27.03719 7.14866 0.02198
C 27.11044 8.46307 0.02611
C 28.34923 9.20708 -0.00621
C 28.27882 10.61779 0.00194
C 27.06638 29.82353 0.04306
C 27.05625 28.4102 0.00996
C 28.28697 27.67297 0.00195
C 28.32839 26.29037 -0.00802
C 27.03627 25.57007 -0.00218
C 27.05389 24.16357 -0.01654
C 28.31817 23.40697 -0.00037
C 28.34834 22.02856 -0.0032
C 28.32314 31.96529 -0.01679
C 27.05141 21.32921 0.00622
C 28.32199 19.09455 -0.00942
C 28.2632 17.74326 0.00487
C 27.06026 17.05796 0.00826
C 27.02073 15.68475 -0.00294
C 28.25386 14.90351 0.00152
C 28.28744 13.51498 0.01257
C 27.02515 12.78797 0.02316
C 27.04562 11.32431 0.04185
C 27.1014 19.88518 -0.02815
C 2.44101 32.71149 0.00848
