356
Graphene
C 34.42081 0.04568 0.01295
C 14.67247 8.58368 -0.0108
C 14.74933 7.15679 -0.00368
C 15.95932 6.4724 -0.02696
C 15.92149 5.01285 -0.00114
C 14.65799 4.23682 0.00228
C 14.76301 2.87702 0.00798
C 16.04164 2.19062 0.00422
C 16.01594 0.7669 0.0351
C 15.95328 9.29611 -0.01957
C 14.84497 0.01328 -0.03113
C 18.46008 31.90343 0.01848
C 18.52592 30.53048 -0.00619
C 17.31258 29.75989 -0.02162
C 17.27652 28.29122 0.00889
C 18.59868 27.5865 -0.00481
C 18.92295 26.203 0.00979
C 17.08929 15.29593 0.01443
C 18.50304 14.93812 0.03505
C 17.23027 32.6408 0.02098
C 18.44893 13.50197 -0.02815
C 15.89893 10.65885 0.02058
C 14.64531 12.69001 -0.03682
C 12.29073 7.11024 -0.02162
C 13.58219 6.40808 0.00415
C 13.43512 4.96018 -0.0014
C 12.19382 4.31966 0.02162
C 12.28462 2.89591 0.0076
C 13.59926 2.12418 0.01241
C 13.68024 0.71542 -0.01454
C 12.41266 0.02118 0.01945
C 14.58932 11.27633 0.01965
C 14.77893 32.58813 0.01416
C 15.98484 30.49014 0.02299
C 14.91739 29.70361 0.00244
C 16.04655 27.5783 -0.01717
C 15.95873 26.2638 0.05265
C 14.61757 17.22793 -0.01952
C 15.01612 16.00737 -0.02813
C 15.84595 14.86679 0.00374
C 15.85863 13.3537 0.00052
C 15.96381 31.93073 0.03542
C 17.1563 12.82069 -0.04147
C 17.08973 11.39655 -0.05302
C 18.36103 10.57714 0.00213
C 20.85654 9.20681 0.00667
C 19.63499 8.5467 0.00143
C 19.62455 7.07461 -0.017
C 20.86983 6.31859 0.00364
C 20.82502 4.95551 -0.00831
C 19.6033 4.23111 -0.02957
C 19.64094 2.82495 -0.04422
C 20.85554 2.1665 0.00654
C 20.78279 10.62809 -0.0054
C 20.89802 0.7207 -0.00703
C 22.17433 32.53508 -0.00652
C 23.42187 31.82627 0.0058
C 23.43701 30.48648 -0.00865
C 22.12117 29.78614 0.00675
C 22.20174 28.30933 -0.00311
C 23.40026 27.614 0.00742
C 23.25706 26.21462 -0.01594
C 21.82573 25.69755 0.0106
C 19.68366 34.00505 -0.04076
C 19.58059 11.385 0.00755
C 19.60278 12.74396 0.01739
C 20.83104 13.40924 0.03754
C 18.41649 9.18795 -0.00066
C 17.16 8.55095 -0.00289
C 17.14662 7.17686 0.00028
C 18.37089 6.39702 -0.02213
C 18.3907 4.97263 0.03698
C 17.14857 4.32843 -0.00109
C 17.22089 2.89255 -0.00491
C 18.48972 2.16112 0.03338
C 18.47415 0.65315 -0.0258
C 17.2556 34.07097 -0.0331
C 19.70918 32.61107 -0.00316
C 20.93902 31.91953 0.02188
C 20.92845 30.55123 -0.01979
C 19.72829 29.82072 0.02691
C 19.73081 28.46694 -0.01581
C 20.87356 27.64444 0.01452
C 20.57206 26.14667 0.04892
C 19.72074 15.67608 -0.00111
C 20.90344 14.86042 -0.03557
C 12.20939 8.52657 0.01363
C 23.70977 22.81056 -0.01154
C 13.47048 9.26357 0.01877
C 12.15935 11.43666 0.00444
C 2.4431 4.31729 -0.00562
C 2.45625 2.88277 -0.00494
C 3.67015 2.16518 0.00054
C 3.63417 0.81486 0.03007
C 2.44285 0.11272 -0.00095
C 4.91963 32.73542 0.01572
C 6.14936 32.02005 -0.04848
C 6.1739 30.58064 -0.00892
C 3.66149 5.00359 -0.01142
C 4.98274 29.87027 -0.01362
C 5.03826 12.77503 0.0288
C 4.86811 11.31073 0.00393
C 6.11142 10.65588 0.00895
C 6.09097 9.23013 0.00685
C 4.8302 8.57935 0.02888
C 4.88531 7.12712 -0.00482
C 6.14293 6.50803 -0.01384
C 6.15156 5.03484 0.03693
C 5.32241 28.5335 -0.0008
C 4.94197 4.3847 0.01745
C 3.69366 6.34712 0.01849
C 2.40553 8.49314 0.0127
C 3.74864 30.51333 -0.05697
C 2.54589 29.77726 0.01087
C 2.5915 28.39916 -0.01343
C 4.01841 27.68216 0.00988
C 3.7725 26.27695 0.0276
C 2.70707 25.41935 0.01305
C 2.41313 24.04736 -0.00077
C 2.33006 21.19631 0.03368
C 2.46516 7.10337 0.01396
C 2.40348 19.91977 -0.02929
C 2.51269 17.47959 -0.03337
C 2.56611 15.89399 0.01227
C 3.63005 14.95092 0.00873
C 3.79054 13.60785 -0.00049
C 2.49465 12.84584 0.00848
C 2.38932 11.42631 -0.01303
C 3.64963 10.71427 -0.01378
C 3.62205 9.217 0.02635
C 3.33524 18.64861 -0.00966
C 4.90385 2.94876 0.00488
C 6.14848 2.20111 -0.01004
C 6.17027 0.74457 -0.02896
C 10.90312 10.66698 0.00406
C 10.91393 9.23568 0.00943
C 9.67917 8.66209 0.02841
C 9.73356 7.2611 -0.01111
C 11.00835 6.57924 -0.01275
C 10.99969 5.15892 0.00985
C 9.81138 4.35159 -0.02245
C 9.85013 2.91344 -0.00428
C 9.78042 11.51244 0.03592
C 11.05783 2.16776 0.03101
C 9.91256 0.02371 -0.02689
C 12.31647 32.60784 -0.01046
C 13.51515 31.86104 -0.00891
C 13.72078 30.32057 0.02819
C 12.31137 29.65545 0.00165
C 12.04015 28.32819 -0.02971
C 13.38148 13.4602 0.02894
C 12.21176 12.7925 -0.01789
C 11.12019 0.77722 -0.01536
C 9.85761 29.81042 0.00572
C 11.01496 30.47521 0.0402
C 11.10311 31.9533 -0.02759
C 4.86331 0.05293 -0.00131
C 7.40133 32.75698 -0.01118
C 8.61869 31.96783 -0.014
C 8.65166 30.44708 0.02147
C 7.33078 29.7566 0.00373
C 6.72265 28.46069 -0.00191
C 7.14856 11.50872 0.00438
C 8.51612 10.96681 0.01291
C 8.4494 9.49439 0.00093
C 7.32252 8.64584 0.00057
C 7.36212 7.16735 -0.01634
C 8.49866 6.44111 -0.00334
C 8.52787 4.9879 0.02339
C 7.31265 4.30264 0.01641
C 7.35909 2.9017 -0.00719
C 8.66192 2.17653 0.01364
C 8.68852 0.76852 -0.01062
C 7.45029 0.101 -0.00033
C 9.87394 32.64951 0.03589
C 13.38044 10.61983 -0.00925
C 23.25084 19.31799 -0.01721
C 23.08508 17.90178 -0.02422
C 21.90912 16.93688 0.01277
C 31.96985 32.67893 0.01713
C 33.17305 32.002 -0.01694
C 33.23379 30.56164 0.01428
C 31.99571 29.90901 -0.02142
C 32.01951 28.48996 0.0544
C 33.29341 27.65886 0.00026
C 33.2888 26.26694 0.00682
C 31.99022 25.55749 -0.01779
C 29.57199 0.04235 0.00346
C 31.93321 24.12027 0.03794
C 33.10798 22.06041 0.01574
C 31.89216 21.31323 -0.02383
C 31.87092 19.86384 -0.01429
C 33.10476 19.16156 -0.0136
C 33.11942 17.74055 0.00594
C 31.9178 17.00753 -0.02474
C 31.87539 15.61041 0.00369
C 33.18777 14.92105 0.00455
C 33.19345 23.47486 0.01927
C 33.2317 13.48599 -0.00644
C 30.72962 0.74953 0.00307
C 29.4825 2.7766 0.02108
C 30.69288 22.04444 -0.01415
C 29.44644 21.30928 -0.03039
C 29.34622 19.94868 0.01836
C 30.65296 19.17996 0.03531
C 30.58821 17.73029 -0.00669
C 29.39181 17.02808 0.0101
C 29.42521 15.60821 0.01705
C 30.66844 14.90538 -0.0405
C 30.79461 2.10826 0.00716
C 30.68138 13.49822 -0.01303
C 29.53227 11.31677 -0.02155
C 30.70333 10.63931 -0.00944
C 30.74868 9.16276 -0.03735
C 29.47421 8.5154 -0.00971
C 29.49102 7.11339 0.01518
C 30.67785 6.375 0.01908
C 30.67983 4.94965 0.07705
C 29.49225 4.22558 0.0103
C 29.48432 12.74556 -0.01461
C 31.99663 12.77913 -0.01839
C 31.82277 11.40988 0.00137
C 33.17965 10.69427 0.00199
C 1.07061 19.26509 -0.01678
C 1.13894 17.89171 0.01223
C 34.35172 17.14524 0.00648
C 34.40672 15.65909 0.02114
C 1.2589 15.07726 -0.02957
C 1.309 13.63692 0.00343
C 0.13932 12.90977 -0.02656
C 34.39879 11.43229 -0.02442
C 34.26573 19.9264 0.01951
C 1.22961 10.6901 -0.00027
C 34.35062 8.56402 -0.02302
C 34.41571 7.12802 -0.02849
C 1.15478 6.41643 0.02931
C 1.16404 5.01266 0.00628
C 0.04528 4.25604 -0.0345
C 0.01323 2.782 -0.00931
C 1.24849 2.14827 -0.00939
C 1.15847 0.76583 -0.00468
C 1.21612 9.25917 -0.00583
C 34.31179 21.31529 -0.02213
C 1.16401 21.99013 0.02712
C 1.1383 23.40387 0.00723
C 33.13071 9.24764 0.04381
C 31.96121 8.51848 0.02806
C 31.95305 7.0386 0.01504
C 33.21198 6.38606 -0.00069
C 33.23393 4.92523 0.04926
C 31.98016 4.32944 -0.03838
C 31.98027 2.86655 0.00349
C 33.24341 2.15672 -0.00323
C 33.16375 0.75274 -0.00841
C 31.97202 0.03568 0.0001
C 0.02197 32.66353 -0.02927
C 1.2408 31.92665 -0.01404
C 1.27092 30.47236 0.01027
C 0.05916 29.82667 0.01831
C 0.15372 28.33529 -0.01037
C 1.44016 27.6423 -0.00439
C 1.46989 26.16781 -0.00598
C 0.10931 25.51998 -0.05239
C 34.42909 24.19887 0.03076
C 30.71801 23.45027 -0.01854
C 29.50578 24.21276 -0.02049
C 29.51482 25.57956 0.03265
C 30.7466 26.26027 0.00261
C 24.51871 25.3763 -0.01107
C 24.46555 24.00649 -0.01586
C 25.85255 23.52175 -0.01971
C 25.75041 22.12833 -0.02118
C 24.30229 21.73375 0.00733
C 24.25958 20.24058 -0.00178
C 25.56037 19.40255 0.00768
C 25.54623 17.9354 -0.0276
C 25.76812 26.21395 0.00071
C 24.39057 17.08909 0.03005
C 25.72692 14.93125 0.02117
C 25.72897 13.49598 0.02737
C 24.53298 12.75633 -0.00498
C 24.59709 11.28928 0.00135
C 25.82652 10.56546 0.03102
C 25.84682 9.194 0.02555
C 24.54043 8.4487 0.01423
C 24.48887 7.07711 -0.00285
C 24.48502 15.66689 -0.04078
C 25.73329 27.6454 -0.00225
C 24.56081 28.38711 0.01515
C 24.6414 29.76808 -0.0055
C 22.08343 15.57338 0.00096
C 23.31388 14.91256 -0.01527
C 23.29046 13.49201 0.01087
C 22.12363 12.71391 0.00199
C 22.09349 11.31881 0.01511
C 23.37422 10.62383 -0.00478
C 23.34484 9.2046 -0.01662
C 22.08584 8.46234 -0.01185
C 22.09934 7.06133 0.01126
C 23.31343 6.34938 0.01852
C 23.35291 4.99886 -0.00381
C 22.11766 4.27474 0.03046
C 22.09948 2.85954 0.0296
C 23.32835 2.10593 0.03374
C 23.32973 0.70017 -0.02845
C 22.11795 34.02174 -0.03213
C 24.68894 32.60236 0.02239
C 25.8203 31.92423 0.01153
C 25.86893 30.57561 0.02734
C 25.70697 6.31741 -0.009
C 3.69786 32.04558 -0.00725
C 25.80615 4.93894 -0.01199
C 24.5002 2.79879 -0.00938
C 27.02603 11.22928 0.04185
C 28.29161 10.62921 0.00194
C 28.31557 9.24547 -0.00621
C 27.05552 8.46818 0.02611
C 27.00625 7.05285 0.02198
C 28.20106 6.29878 0.01094
C 28.23832 4.90264 0.00235
C 27.06288 4.24672 0.01495
C 26.97129 12.73963 0.02316
C 26.98007 2.87298 0.01259
C 28.21007 0.73377 0.01699
C 27.05919 0.0025 -0.00416
C 29.5547 32.66412 0.01177
C 30.73631 31.99314 0.04266
C 30.71042 30.583 0.01324
C 29.48897 29.86875 0.0014
C 29.50934 28.47062 0.00924
C 30.73216 27.7942 0.02326
C 28.21097 2.13713 0.01799
C 28.18542 13.44949 0.01257
C 28.16678 14.93113 0.00152
C 26.94559 15.64314 -0.00294
C 25.78699 2.10076 -0.0264
C 25.76374 0.66813 -0.01154
C 24.56362 34.06195 0.00684
C 27.07309 32.67933 -0.01052
C 28.32371 31.92688 -0.01679
C 28.25041 30.55776 0.00367
C 27.05117 29.78563 0.04306
C 26.98626 28.42748 0.00996
C 28.24615 27.74763 0.00195
C 28.36581 26.30528 -0.00802
C 27.04059 25.66573 -0.00218
C 27.11968 24.32738 -0.01654
C 28.17202 23.49033 -0.00037
C 28.2297 22.00666 -0.0032
C 26.90673 21.31981 0.00622
C 26.81843 19.93352 -0.02815
C 28.06058 19.26106 -0.00942
C 28.03083 17.84079 0.00487
C 26.8052 17.1426 0.00826
C 24.60256 4.18432 -0.00229
C 2.50576 32.74696 0.02322
