429
Graphene
C 34.35065 33.96317 0.01295
C 12.22734 2.9159 0.03589
C 13.47171 2.11844 -0.02759
C 13.54015 0.72062 0.0402
C 12.33598 0.05265 0.00572
C 14.70188 32.65752 0.03592
C 15.96901 31.9698 0.00406
C 16.03972 30.56916 0.00943
C 14.7792 29.82353 0.02841
C 14.7355 28.45555 -0.01111
C 15.92482 27.70197 -0.01275
C 12.27959 4.36083 -0.00033
C 16.01925 26.32796 0.00985
C 14.80027 24.08743 -0.00428
C 16.03744 23.35568 0.03101
C 16.0274 21.93044 -0.01536
C 14.74023 21.34608 -0.02689
C 14.63002 19.90579 -0.01046
C 15.86904 19.16968 -0.00891
C 15.85192 17.75318 0.02819
C 14.67523 17.03349 0.00165
C 14.75132 15.5407 -0.02971
C 15.99958 14.8585 0.02894
C 14.80724 25.63895 -0.02245
C 13.49967 5.08801 -0.01062
C 13.33571 6.52244 0.01364
C 12.06735 7.24355 -0.00719
C 13.43763 31.9421 0.00685
C 13.48164 30.57079 0.02888
C 12.25848 29.79501 -0.00482
C 12.2687 28.3905 -0.01384
C 13.50334 27.71508 0.03693
C 13.49947 26.30496 0.01745
C 12.29195 25.5999 0.00488
C 12.24833 24.18032 -0.01004
C 13.5012 23.46292 -0.02896
C 13.528 22.05227 -0.00131
C 12.30722 21.37089 -0.01118
C 12.35057 19.90281 -0.014
C 13.51799 19.18696 0.02147
C 13.47593 17.78086 0.00373
C 12.27843 17.06551 -0.00191
C 12.22863 15.649 0.00438
C 13.51244 14.85629 0.01291
C 13.3823 13.47698 0.00093
C 12.12625 12.79496 0.00057
C 12.26574 11.41563 -0.01634
C 13.52481 10.69356 -0.00334
C 13.48516 9.28582 0.02339
C 12.24446 8.5958 0.01641
C 15.87302 13.45508 -0.01789
C 14.64007 12.75456 0.00444
C 14.69172 11.42693 -0.00925
C 15.89621 10.60961 0.01877
C 18.42762 14.86673 0.00228
C 18.44815 13.48089 0.00798
C 17.14382 12.70115 0.00422
C 17.19255 11.35741 0.0351
C 18.45659 10.59253 -0.03113
C 18.40297 9.1364 0.02098
C 17.11901 8.53349 0.01848
C 17.17841 7.09729 -0.00619
C 18.40717 6.35116 -0.02162
C 18.38459 4.95078 0.00889
C 17.19978 4.25884 -0.00481
C 17.20223 2.84667 0.00979
C 18.4957 2.08755 0.01443
C 18.4017 0.69876 0.03505
C 17.19446 0.04316 -0.02815
C 19.66895 32.62844 -0.04147
C 20.93991 31.95934 -0.05302
C 20.84223 30.60782 0.00213
C 19.60313 29.93467 -0.00066
C 19.66149 28.45739 -0.00289
C 20.84118 27.72887 0.00028
C 20.85273 26.29917 -0.02213
C 19.62265 25.50868 0.03698
C 17.1902 15.61892 -0.00114
C 12.22673 32.69918 0.00895
C 17.18744 17.06295 -0.02696
C 18.49945 19.09722 -0.0108
C 15.88447 9.20392 0.01363
C 14.66901 8.54379 -0.02162
C 14.69391 7.08726 0.00415
C 15.91453 6.4421 -0.0014
C 15.96788 5.03261 0.02162
C 14.70913 4.32807 0.0076
C 14.67718 2.84166 0.01241
C 15.9517 2.14516 -0.01454
C 15.97294 0.71664 0.01945
C 14.78946 34.06248 0.01416
C 17.20827 32.71031 0.03542
C 18.36742 31.93866 0.02299
C 18.36403 30.56191 0.00244
C 17.22195 29.79523 -0.01717
C 17.18617 28.40166 0.05265
C 18.46677 27.7065 -0.01952
C 18.41406 26.23911 -0.02813
C 17.18636 25.57686 0.00374
C 17.22107 24.13524 0.00052
C 18.40064 23.44825 -0.03682
C 18.47349 22.00059 0.01965
C 17.26378 21.32933 0.02058
C 17.27404 19.83127 -0.01957
C 18.43474 17.73705 -0.00368
C 9.85141 0.03067 0.00393
C 11.03765 0.81722 0.0288
C 10.99698 2.18812 -0.0008
C 6.08062 30.58477 0.02728
C 4.89473 29.90155 -0.00039
C 4.9245 28.46418 0.0064
C 6.11748 27.78025 0.00211
C 6.06894 26.33088 -0.00449
C 4.8328 25.59792 -0.01979
C 4.87148 24.17482 0.02784
C 6.13088 23.51109 -0.01977
C 6.16644 22.101 -0.00561
C 4.97366 21.31672 0.00208
C 4.77581 19.87505 0.01707
C 6.07755 19.18386 0.02769
C 6.1309 17.80696 -0.03291
C 4.93482 17.02738 -0.04999
C 4.93339 15.44841 0.04505
C 6.25101 14.92934 0.03284
C 6.21501 5.08786 -0.04307
C 4.85007 4.54266 0.03189
C 4.87917 3.02639 0.00031
C 6.0617 2.24153 -0.003
C 6.19778 0.86707 0.01402
C 4.93997 0.04504 0.02379
C 7.3906 32.74278 0.00907
C 6.13067 32.01889 0.00245
C 8.62504 31.94146 0.00643
C 4.91163 32.73439 0.00081
C 3.67368 0.81511 -0.01386
C 3.62072 30.53968 0.00267
C 2.41288 29.77353 0.00787
C 2.47202 28.38381 0.02426
C 3.66371 27.67968 0.01218
C 3.66696 26.30892 -0.01471
C 2.44344 25.55051 -0.02827
C 2.47272 24.14552 0.01078
C 3.68455 23.44285 -0.00112
C 3.71469 22.00685 0.03345
C 2.46685 21.2418 0.00748
C 2.40769 19.79339 0.00662
C 3.65093 19.06856 -0.0154
C 3.71533 17.69881 -0.01299
C 2.41709 16.97072 -0.00407
C 2.40968 15.53438 0.01138
C 3.5626 14.81556 0.03278
C 3.4252 13.43393 -0.00177
C 2.27039 12.74647 0.04421
C 2.53397 6.91689 0.00088
C 3.47134 5.18786 0.00828
C 2.4622 4.26716 -0.02375
C 2.51196 2.8778 0.00558
C 3.72668 2.20999 -0.0059
C 2.46365 34.05217 -0.02805
C 19.68432 24.15077 -0.00109
C 8.52718 30.52919 -0.01509
C 7.30611 28.44956 0.02374
C 11.03694 26.33066 -0.02929
C 9.86231 25.62745 -0.00966
C 9.87695 24.23912 -0.03337
C 11.01492 23.48367 0.01227
C 11.08322 22.06426 0.00873
C 9.85338 21.35609 -0.00049
C 9.86054 19.93384 0.00848
C 11.07207 19.20871 -0.01303
C 11.04848 17.73574 -0.01378
C 9.83318 17.16381 0.02635
C 9.8331 15.71554 0.0127
C 11.00359 14.98898 0.01396
C 10.90679 13.496 0.01849
C 9.60853 12.84329 -0.01142
C 9.74751 11.36096 -0.00562
C 11.02953 10.80621 -0.00494
C 10.96532 9.3355 0.00054
C 9.71506 8.81014 0.03007
C 9.47095 7.32531 -0.00095
C 10.80941 6.63492 0.01572
C 11.00101 5.15969 -0.04848
C 9.84707 4.31963 -0.00892
C 9.76041 2.86394 -0.01362
C 10.9591 27.73652 0.03368
C 7.26542 29.87965 0.03267
C 9.72006 28.50788 -0.00077
C 11.07744 30.59895 0.0276
C 8.49464 27.81133 0.00402
C 8.59844 26.41124 0.0073
C 7.3614 25.65038 0.0174
C 7.34945 24.26706 0.03828
C 8.53538 23.52382 0.01226
C 8.66236 22.06645 -0.00279
C 7.38149 21.38794 0.01996
C 7.40865 19.98025 -0.03996
C 8.62584 19.231 0.01465
C 8.63251 17.83965 -0.00074
C 7.39626 17.1922 -0.00518
C 7.36554 15.76244 0.0086
C 8.58152 15.02765 -0.00643
C 8.45083 13.64909 0.017
C 8.40388 6.36939 -0.03113
C 8.64518 4.99786 -0.02566
C 7.39124 4.36792 -0.00094
C 7.3884 2.92085 0.02322
C 8.54497 2.17574 -0.00725
C 8.6423 0.75349 -0.05697
C 7.37861 0.08374 0.01087
C 9.8365 32.734 -0.01343
C 11.05751 32.02353 0.00988
C 9.78888 29.90961 0.01305
C 3.70582 31.89535 0.01913
C 20.90726 23.45135 -0.00491
C 19.65341 21.28224 -0.0258
C 29.44752 12.70688 -0.01461
C 29.47747 11.29507 -0.02155
C 30.69091 10.61181 -0.00944
C 30.68885 9.1184 -0.03735
C 29.52361 8.43044 -0.00971
C 29.44457 7.0217 0.01518
C 30.72122 6.35961 0.01908
C 30.67351 4.96654 0.07705
C 29.55899 4.22857 0.0103
C 29.57011 2.70164 0.02108
C 30.64752 13.42653 -0.01303
C 30.78443 2.00995 0.00716
C 29.54628 34.008 0.00346
C 32.02373 32.57078 0.01713
C 33.19204 31.85317 -0.01694
C 33.09661 30.46149 0.01428
C 31.88545 29.7489 -0.02142
C 31.99167 28.36673 0.0544
C 33.25104 27.60386 0.00026
C 33.14893 26.21273 0.00682
C 31.90575 25.51001 -0.01779
C 31.91643 24.08021 0.03794
C 30.76314 0.57104 0.00307
C 30.67367 14.90461 -0.0405
C 29.50876 15.66488 0.01705
C 29.46599 17.10016 0.0101
C 27.02498 7.09081 0.02198
C 28.26121 6.32897 0.01094
C 28.25959 4.86812 0.00235
C 27.07622 4.21277 0.01495
C 27.16214 2.81612 0.01259
C 28.33169 2.05852 0.01799
C 28.30527 0.63178 0.01699
C 27.00148 33.93349 -0.00416
C 29.58249 32.55316 0.01177
C 30.69081 31.85378 0.04266
C 30.67966 30.42378 0.01324
C 29.43526 29.75735 0.0014
C 29.41025 28.35426 0.00924
C 30.71868 27.68992 0.02326
C 30.70492 26.28852 0.00261
C 29.48935 25.5508 0.03265
C 29.49611 24.21914 -0.02049
C 30.70245 23.39581 -0.01854
C 30.76032 22.01804 -0.01415
C 29.46367 21.34008 -0.03039
C 29.51953 19.92567 0.01836
C 30.80405 19.26944 0.03531
C 30.66029 17.8076 -0.00669
C 33.15571 23.38134 0.01927
C 33.18838 21.97922 0.01574
C 31.96276 21.33088 -0.02383
C 32.04002 19.90507 -0.01429
C 34.42089 24.12427 0.03076
C 1.26005 23.36055 0.00723
C 1.22309 21.92637 0.02712
C 34.42219 21.2853 -0.02213
C 34.40386 19.91528 0.01951
C 1.16187 19.2016 -0.01678
C 1.20242 17.75616 0.01223
C 34.39021 17.06192 0.00648
C 34.42465 15.60899 0.02114
C 1.19948 14.90504 -0.02957
C 1.05686 13.4218 0.00343
C 34.27115 12.70794 -0.02656
C 34.36591 11.13237 -0.02442
C 1.16902 10.44481 -0.00027
C 1.09875 9.22936 -0.00583
C 34.37529 8.38229 -0.02302
C 34.39953 6.99266 -0.02849
C 1.26926 6.36177 0.02931
C 1.15438 4.89215 0.00628
C 34.37914 4.23232 -0.0345
C 34.40962 2.76587 -0.00931
C 1.2232 2.16036 -0.00939
C 1.19043 0.67642 -0.00468
C 34.35135 25.48488 -0.05239
C 27.00567 8.57821 0.02611
C 1.14905 26.25089 -0.00598
C 34.42626 28.3981 -0.01037
C 33.23755 19.20207 -0.0136
C 33.20002 17.70037 0.00594
C 31.92841 17.02613 -0.02474
C 31.92775 15.65537 0.00369
C 33.15249 14.96529 0.00455
C 33.06224 13.47869 -0.00644
C 31.88239 12.73797 -0.01839
C 31.89622 11.35948 0.00137
C 33.10079 10.56287 0.00199
C 33.16038 9.16618 0.04381
C 31.89813 8.39864 0.02806
C 32.00149 7.0252 0.01504
C 33.17287 6.28423 -0.00069
C 33.20744 4.90025 0.04926
C 31.95184 4.25355 -0.03838
C 31.97339 2.69267 0.00349
C 33.19852 2.05772 -0.00323
C 33.17987 0.60363 -0.00841
C 31.96461 33.97945 0.0001
C 0.06798 32.53567 -0.02927
C 1.23779 31.80822 -0.01404
C 1.1492 30.50796 0.01027
C 34.36848 29.80708 0.01831
C 1.18603 27.71614 -0.00439
C 28.27063 9.25274 -0.00621
C 28.2274 10.66219 0.00194
C 26.98146 11.36748 0.04185
C 22.10334 25.57055 0.00675
C 22.14898 24.1885 -0.00311
C 23.30612 23.42 0.00742
C 23.32205 22.03243 -0.01594
C 22.10155 21.31357 0.0106
C 22.09813 19.87214 -0.01154
C 23.3884 19.27271 -0.01721
C 23.33423 17.75644 -0.02422
C 22.13546 17.00966 0.01277
C 22.16725 15.61642 0.00096
C 23.36207 14.893 -0.01527
C 23.37308 13.52898 0.01087
C 22.11274 12.83874 0.00199
C 22.0769 11.35135 0.01511
C 23.3112 10.67116 -0.00478
C 23.30379 9.19659 -0.01662
C 22.09784 8.46328 -0.01185
C 22.1384 7.07087 0.01126
C 23.37891 6.38571 0.01852
C 23.34396 5.03373 -0.00381
C 22.05432 4.25307 0.03046
C 22.18453 2.7993 0.0296
C 23.43807 2.07705 0.03374
C 23.37952 26.30596 -0.00865
C 23.29945 0.70431 -0.02845
C 23.30838 27.68571 0.0058
C 22.02291 29.85547 -0.04076
C 19.62929 19.87727 -0.0331
C 20.87499 19.14247 -0.00316
C 20.90204 17.76374 0.02188
C 19.6395 17.08683 -0.01979
C 19.64196 15.62978 0.02691
C 20.85595 14.9412 -0.01581
C 20.91435 13.55217 0.01452
C 19.66174 12.74972 0.04892
C 19.68659 11.30627 -0.00111
C 20.85843 10.60572 -0.03557
C 20.80842 9.16113 0.03754
C 19.58333 8.50011 0.01739
C 19.66628 7.1406 0.00755
C 20.88737 6.39555 -0.0054
C 20.85061 5.00688 0.00667
C 19.63829 4.26997 0.00143
C 19.75474 2.84394 -0.017
C 20.95249 2.13426 0.00364
C 20.82707 0.73208 -0.00831
C 19.63654 34.06752 -0.02957
C 22.14728 32.63596 -0.04422
C 23.40449 31.94582 0.00654
C 23.34033 30.57014 -0.00703
C 22.07392 28.39126 -0.00652
C 20.91412 21.97037 0.03338
C 22.02883 0.02146 -0.03213
C 25.78399 31.86392 0.01153
C 25.91985 2.12662 -0.0264
C 25.81888 0.73623 -0.01154
C 24.61338 0.04028 0.00684
C 27.12282 32.58279 -0.01052
C 28.29892 31.90601 -0.01679
C 28.31128 30.54002 0.00367
C 27.00934 29.84005 0.04306
C 27.03002 28.44009 0.00996
C 28.16268 27.62562 0.00195
C 28.22342 26.26339 -0.00802
C 27.00528 25.53393 -0.00218
C 27.06724 24.17576 -0.01654
C 28.32996 23.47388 -0.00037
C 28.22895 22.07574 -0.0032
C 27.02421 21.38073 0.00622
C 27.04443 19.94504 -0.02815
C 28.26946 19.19248 -0.00942
C 28.27815 17.7705 0.00487
C 27.04515 17.04579 0.00826
C 27.02556 15.61775 -0.00294
C 28.24386 14.95859 0.00152
C 28.20881 13.42394 0.01257
C 26.97506 12.80323 0.02316
C 24.64802 2.88377 -0.00938
C 24.65855 32.6661 0.02239
C 24.53689 4.26526 -0.00229
C 25.76451 6.44871 -0.009
C 25.80569 30.4593 0.02734
C 24.49646 29.84661 -0.0055
C 24.54086 28.41506 0.01515
C 25.77069 27.70292 -0.00225
C 25.79713 26.25309 0.00071
C 24.53446 25.59929 -0.01107
C 24.5541 24.20436 -0.01586
C 25.79955 23.40856 -0.01971
C 25.75852 21.99759 -0.02118
C 24.56071 21.23903 0.00733
C 24.59929 19.95143 -0.00178
C 25.80796 19.18988 0.00768
C 25.81081 17.67985 -0.0276
C 24.53748 17.0225 0.03005
C 24.52332 15.67086 -0.04078
C 25.74477 14.96966 0.02117
C 25.79825 13.54357 0.02737
C 24.59723 12.80254 -0.00498
C 24.53788 11.38037 0.00135
C 25.75431 10.72776 0.03102
C 25.76396 9.29678 0.02555
C 24.53478 8.51417 0.01423
C 24.53441 7.15275 -0.00285
C 25.8219 5.0251 -0.01199
C 2.4687 32.63611 -0.03672
