398
Graphene
C 34.41372 0.00387 0.01295
C 13.57438 2.19561 0.02894
C 13.58075 0.78409 -0.01789
C 12.34847 0.05443 0.00444
C 14.81124 32.7086 -0.00925
C 15.98986 31.94637 0.01877
C 16.04361 30.48824 0.01363
C 14.74025 29.7993 -0.02162
C 14.70976 28.44081 0.00415
C 15.97596 27.61837 -0.0014
C 12.3051 2.96322 -0.02971
C 16.00257 26.24214 0.02162
C 14.78057 24.09984 0.01241
C 16.00107 23.41593 -0.01454
C 16.0438 21.97696 0.01945
C 14.77327 21.30972 0.01416
C 14.77297 19.88211 0.03542
C 15.89927 19.07241 0.02299
C 15.96644 17.62684 0.00244
C 16.05776 4.80662 -0.01717
C 14.69547 4.551 0.05265
C 14.68664 25.53252 0.0076
C 12.28128 4.34398 0.00165
C 13.48136 5.0243 0.02819
C 13.45847 19.36124 -0.00891
C 9.74794 19.93894 -0.00719
C 10.92898 19.2065 0.01364
C 11.03139 4.96974 -0.01062
C 9.85764 4.27332 -0.00033
C 9.86314 2.90274 0.03589
C 11.12295 2.22612 -0.02759
C 11.0632 0.78547 0.0402
C 9.79295 0.05609 0.00572
C 12.3181 32.68926 0.03592
C 13.59644 32.04859 0.00406
C 13.56695 30.54301 0.00943
C 12.2772 29.89528 0.02841
C 12.26632 28.45433 -0.01111
C 13.55258 27.70946 -0.01275
C 13.49217 26.20535 0.00985
C 12.24417 25.63842 -0.02245
C 12.25728 24.17329 -0.00428
C 13.49089 23.45947 0.03101
C 13.56944 21.96243 -0.01536
C 12.31908 21.29261 -0.02689
C 12.22278 19.83232 -0.01046
C 14.79118 2.93917 -0.01952
C 15.97035 2.15773 -0.02813
C 16.05682 0.74919 0.00374
C 14.85312 0.0231 0.00052
C 20.89806 30.53086 0.00213
C 19.63848 29.86272 -0.00066
C 19.58982 28.36236 -0.00289
C 20.86947 27.74539 0.00028
C 20.89414 26.32071 -0.02213
C 19.65218 25.5589 0.03698
C 19.66024 24.1634 -0.00109
C 20.84185 23.41766 -0.00491
C 20.88958 21.99101 0.03338
C 19.71348 21.24057 -0.0258
C 19.6976 19.74862 -0.0331
C 20.85344 19.12195 -0.00316
C 20.82862 17.66075 0.02188
C 19.59749 16.90385 -0.01979
C 19.57537 15.49392 0.02691
C 20.86671 14.94897 -0.01581
C 20.84377 13.51981 0.01452
C 19.62526 12.74817 0.04892
C 19.51057 11.57247 -0.00111
C 20.74847 10.67468 -0.03557
C 20.79798 9.25004 0.03754
C 20.95166 32.01714 -0.05302
C 9.84423 21.33555 0.01641
C 19.71256 32.68331 -0.04147
C 18.54833 0.70435 0.03505
C 17.23743 32.73542 -0.03682
C 18.46055 32.01436 0.01965
C 18.44927 30.53812 0.02058
C 17.24552 29.82932 -0.01957
C 17.22441 28.44662 -0.0108
C 18.42575 27.69569 -0.00368
C 18.42698 26.26428 -0.02696
C 17.2182 25.51839 -0.00114
C 17.25488 24.11206 0.00228
C 18.49221 23.34604 0.00798
C 18.45066 21.95861 0.00422
C 17.26743 21.20154 0.0351
C 17.12811 19.67344 -0.03113
C 18.37585 19.04996 0.02098
C 18.40356 17.62805 0.01848
C 17.0193 17.09537 -0.00619
C 18.4793 6.32147 -0.02162
C 18.49437 4.95684 0.00889
C 17.22502 4.23815 -0.00481
C 17.31609 2.7584 0.00979
C 18.54262 2.15194 0.01443
C 17.26987 0.05913 -0.02815
C 11.03695 22.03992 0.02339
C 11.04983 23.47394 -0.00334
C 9.79584 24.23459 -0.01634
C 2.37956 4.3292 0.0174
C 2.38933 2.91014 0.03828
C 3.67604 2.16332 0.01226
C 3.67274 0.7481 -0.00279
C 2.46576 0.06104 0.01996
C 4.8901 32.73995 -0.03996
C 6.14126 31.98689 0.01465
C 6.08475 30.60835 -0.00074
C 4.81493 29.89954 -0.00518
C 4.93906 28.42662 0.0086
C 6.08158 27.72222 -0.00643
C 6.11462 26.28133 0.017
C 4.87186 25.51006 -0.03113
C 4.90013 24.13781 -0.02566
C 6.13037 23.49381 -0.00094
C 6.15399 21.98035 0.02322
C 4.93783 21.32546 -0.00725
C 4.86663 19.89716 -0.05697
C 6.1829 19.11951 0.01087
C 6.14119 17.64061 -0.01343
C 4.87158 16.92264 0.00988
C 3.70807 5.05095 0.0073
C 4.87045 15.54551 0.0276
C 3.63477 6.44061 0.00402
C 2.37735 8.60415 0.03267
C 3.64667 30.63 -0.00449
C 2.42414 29.85091 -0.01979
C 2.46275 28.45474 0.02784
C 3.5577 27.67247 -0.01977
C 3.60404 26.2854 -0.00561
C 2.39518 25.48568 0.00208
C 2.41872 24.07726 0.01707
C 3.69947 23.49867 0.02769
C 3.65819 21.94481 -0.03291
C 2.45367 21.26768 -0.04999
C 2.36894 19.8017 0.04505
C 3.63694 19.12133 0.03284
C 3.67419 17.7057 -0.04307
C 2.42823 17.0308 0.03189
C 2.42614 15.66393 0.00031
C 3.6311 14.93511 -0.003
C 3.55536 13.4795 0.01402
C 2.3849 12.74717 0.02379
C 2.37402 11.36766 0.00907
C 3.5585 10.63369 0.00643
C 3.67689 9.2566 -0.01509
C 2.371 7.19757 0.02374
C 19.67208 8.5352 0.01739
C 6.10321 14.69551 0.01305
C 4.7866 12.75992 0.03368
C 8.57094 19.1836 0.00393
C 8.55432 17.73959 0.00895
C 7.44315 17.00741 0.00685
C 7.25235 15.63328 0.02888
C 7.19654 8.60003 -0.00482
C 7.4795 7.15777 -0.01384
C 8.69953 6.42883 0.03693
C 8.59468 4.9945 0.01745
C 7.35315 4.33645 0.00488
C 7.34235 2.8935 -0.01004
C 8.65701 2.20797 -0.02896
C 8.6041 0.76431 -0.00131
C 7.32267 0.11706 -0.01118
C 9.80224 32.7092 -0.014
C 11.10569 32.01519 0.02147
C 11.03516 30.63651 0.00373
C 9.80367 29.90257 -0.00191
C 9.82828 28.50714 0.00438
C 10.98122 27.76985 0.01291
C 11.03319 26.32551 0.00093
C 9.78457 25.63476 0.00057
C 7.35321 19.83605 0.0288
C 6.16464 13.28685 -0.00077
C 7.41102 21.3504 -0.0008
C 8.61126 23.48201 -0.00892
C 4.79859 11.37133 -0.02929
C 6.0274 10.79829 -0.00966
C 6.19863 9.42533 -0.03337
C 4.97317 8.64562 0.01227
C 4.95308 7.22569 0.00873
C 6.21776 6.46279 -0.00049
C 6.16724 5.04506 0.00848
C 4.97114 4.28352 -0.01303
C 4.90382 2.87049 -0.01378
C 6.14966 2.25391 0.02635
C 6.10549 0.81019 0.0127
C 4.93018 0.04665 0.01396
C 7.33396 32.80557 0.01849
C 8.63015 32.06951 -0.01142
C 8.60638 30.67517 -0.00562
C 7.33568 29.91177 -0.00494
C 7.31047 28.51992 0.00054
C 8.52008 27.80235 0.03007
C 8.55311 26.44123 -0.00095
C 7.32125 25.6076 0.01572
C 7.37905 24.21073 -0.04848
C 8.63072 22.08302 -0.01362
C 19.51689 7.14802 0.00755
C 20.7855 6.42863 -0.0054
C 20.91426 5.01611 0.00667
C 29.53805 7.10988 0.01518
C 30.76654 6.34647 0.01908
C 30.76968 4.92643 0.07705
C 29.50292 4.24134 0.0103
C 29.47728 2.85407 0.02108
C 30.81522 2.11806 0.00716
C 30.76216 0.65236 0.00307
C 29.54971 34.02513 0.00346
C 32.06926 32.62642 0.01713
C 33.29531 31.89576 -0.01694
C 33.26026 30.49912 0.01428
C 31.99767 29.80499 -0.02142
C 32.00334 28.35151 0.0544
C 33.18003 27.64554 0.00026
C 33.23557 26.21512 0.00682
C 31.94556 25.48026 -0.01779
C 31.95118 24.12447 0.03794
C 33.16787 23.35299 0.01927
C 33.22607 21.93626 0.01574
C 31.9601 21.2866 -0.02383
C 31.95216 19.94018 -0.01429
C 29.52539 8.46961 -0.00971
C 33.17869 19.15011 -0.0136
C 30.70455 9.26111 -0.03735
C 29.45735 11.36681 -0.02155
C 27.13658 0.00422 -0.00416
C 29.4604 32.63904 0.01177
C 30.80833 31.89796 0.04266
C 30.78081 30.49579 0.01324
C 29.50775 29.75653 0.0014
C 29.51452 28.30256 0.00924
C 30.73151 27.60319 0.02326
C 30.71579 26.26507 0.00261
C 29.50264 25.50519 0.03265
C 29.46909 24.08453 -0.02049
C 30.67836 23.41695 -0.01854
C 30.6286 22.02385 -0.01415
C 29.40673 21.30209 -0.03039
C 29.44648 19.93053 0.01836
C 30.66105 19.21327 0.03531
C 30.66345 17.83916 -0.00669
C 29.40273 17.07823 0.0101
C 29.44185 15.67095 0.01705
C 30.62386 14.92552 -0.0405
C 30.67027 13.53816 -0.01303
C 29.45047 12.80528 -0.01461
C 30.75264 10.63717 -0.00944
C 28.32759 0.73388 0.01699
C 33.14038 17.76591 0.00594
C 31.85486 15.6753 0.00369
C 1.20094 22.00707 0.02712
C 0.02929 21.26108 -0.02213
C 34.39205 19.89193 0.01951
C 1.15579 19.13528 -0.01678
C 1.18617 17.71764 0.01223
C 34.40136 17.0312 0.00648
C 34.35626 15.6238 0.02114
C 1.1814 14.96962 -0.02957
C 1.19222 13.45554 0.00343
C 34.38984 12.76853 -0.02656
C 34.34756 11.341 -0.02442
C 1.13774 10.67878 -0.00027
C 1.18778 9.26338 -0.00583
C 34.39931 8.53337 -0.02302
C 34.41298 7.09239 -0.02849
C 1.17172 6.45521 0.02931
C 1.15845 5.0383 0.00628
C 34.36488 4.30159 -0.0345
C 34.38416 2.92713 -0.00931
C 1.21654 2.15467 -0.00939
C 1.21929 0.70323 -0.00468
C 1.21531 23.41919 0.00723
C 31.81213 17.0827 -0.02474
C 34.42522 24.08485 0.03076
C 1.25752 26.27913 -0.00598
C 33.11929 14.99 0.00455
C 33.18242 13.53852 -0.00644
C 31.91121 12.83315 -0.01839
C 31.99335 11.3581 0.00137
C 33.14395 10.65017 0.00199
C 33.17012 9.21935 0.04381
C 31.99722 8.50169 0.02806
C 31.97471 7.0928 0.01504
C 33.21498 6.37191 -0.00069
C 33.1517 4.95741 0.04926
C 31.9401 4.19498 -0.03838
C 31.95807 2.85677 0.00349
C 33.18492 2.16054 -0.00323
C 33.19351 0.68362 -0.00841
C 31.99809 0.01885 0.0001
C 0.03212 32.64233 -0.02927
C 1.24172 31.9723 -0.01404
C 1.2649 30.53873 0.01027
C 34.42 29.83732 0.01831
C 34.38934 28.42284 -0.01037
C 1.15675 27.73019 -0.00439
C 34.41797 25.50328 -0.05239
C 3.65225 32.01222 0.00211
C 28.29238 2.12907 0.01799
C 27.03879 4.34624 0.01495
C 21.97897 11.33823 0.01511
C 23.24001 10.65521 -0.00478
C 23.30608 9.23181 -0.01662
C 22.04258 8.58384 -0.01185
C 22.05518 7.09345 0.01126
C 23.29982 6.40209 0.01852
C 23.40385 5.00124 -0.00381
C 22.18813 4.28244 0.03046
C 22.1735 2.82512 0.0296
C 23.47031 2.11944 0.03374
C 23.45112 0.68519 -0.02845
C 22.21951 34.06548 -0.03213
C 24.69547 32.67333 0.02239
C 25.91949 32.0013 0.01153
C 25.9033 30.46989 0.02734
C 24.61035 29.76889 -0.0055
C 24.54767 28.40863 0.01515
C 25.8021 27.66797 -0.00225
C 25.83165 26.28655 0.00071
C 24.52477 25.59161 -0.01107
C 24.54662 24.19514 -0.01586
C 22.00726 12.72879 0.00199
C 25.76157 23.41722 -0.01971
C 23.25611 13.45004 0.01087
C 22.08316 15.56992 0.00096
C 19.73736 4.20915 0.00143
C 19.77824 2.81263 -0.017
C 20.94849 2.09401 0.00364
C 20.95574 0.64409 -0.00831
C 19.72143 34.01116 -0.02957
C 22.21397 32.67931 -0.04422
C 23.3806 31.92229 0.00654
C 23.39227 30.43263 -0.00703
C 22.1089 29.82653 -0.04076
C 22.11718 28.39534 -0.00652
C 23.32612 27.68459 0.0058
C 23.29091 26.30208 -0.00865
C 22.1138 25.58642 0.00675
C 22.11143 24.20558 -0.00311
C 23.30782 23.50333 0.00742
C 23.34735 21.92866 -0.01594
C 22.12003 21.26852 0.0106
C 22.1269 19.85382 -0.01154
C 23.37739 19.1763 -0.01721
C 23.2929 17.74845 -0.02422
C 22.13175 17.02694 0.01277
C 23.33566 14.89757 -0.01527
C 27.08538 2.90888 0.01259
C 25.70494 22.03294 -0.02118
C 24.54903 19.86064 -0.00178
C 28.30041 26.24426 -0.00802
C 27.00681 25.53822 -0.00218
C 27.01626 24.07553 -0.01654
C 28.30002 23.39269 -0.00037
C 28.23778 22.06087 -0.0032
C 27.03676 21.3261 0.00622
C 26.95901 19.87213 -0.02815
C 28.24991 19.18277 -0.00942
C 28.24217 17.80092 0.00487
C 27.01669 17.039 0.00826
C 27.00825 15.61137 -0.00294
C 28.28009 14.90173 0.00152
C 28.26184 13.51582 0.01257
C 27.02706 12.77081 0.02316
C 26.964 11.34413 0.04185
C 28.23481 10.7183 0.00194
C 28.26104 9.2562 -0.00621
C 27.06899 8.49355 0.02611
C 27.03967 7.13616 0.02198
C 28.26576 6.44994 0.01094
C 28.29084 5.0023 0.00235
C 28.27421 27.59701 0.00195
C 24.54611 21.32449 0.00733
C 27.07738 28.29599 0.00996
C 28.29438 30.47571 0.00367
C 25.79231 19.15852 0.00768
C 25.76929 17.72001 -0.0276
C 24.54159 17.01881 0.03005
C 24.58266 15.52874 -0.04078
C 25.7846 14.8215 0.02117
C 25.76016 13.36131 0.02737
C 24.45437 12.70006 -0.00498
C 24.49355 11.3077 0.00135
C 25.73272 10.62302 0.03102
C 25.80049 9.20317 0.02555
C 24.57457 8.54419 0.01423
C 24.57707 7.08257 -0.00285
C 25.7612 6.35602 -0.009
C 25.85274 4.93917 -0.01199
C 24.6389 4.29121 -0.00229
C 24.70815 2.88871 -0.00938
C 25.81026 2.09982 -0.0264
C 25.96606 0.69825 -0.01154
C 24.66666 34.05629 0.00684
C 27.08602 32.65668 -0.01052
C 28.31813 31.93343 -0.01679
C 27.10784 29.74186 0.04306
C 2.44694 32.71553 0.0064
