346
Graphene
C 34.39488 34.03496 0.01295
C 13.55835 30.58976 -0.03113
C 12.23855 29.88689 0.02098
C 12.31301 28.48285 0.01848
C 13.58461 27.69786 -0.00619
C 13.54883 26.31058 -0.02162
C 12.27261 25.6741 0.00889
C 12.27654 24.23522 -0.00481
C 13.35293 23.37211 0.00979
C 13.48399 4.71721 0.01443
C 12.11656 4.39917 0.03505
C 12.18394 2.92375 -0.02815
C 13.45908 2.12684 -0.04147
C 13.55132 0.68655 -0.05302
C 12.32996 0.0547 0.00213
C 14.79003 32.67299 -0.00066
C 16.08578 31.88544 -0.00289
C 16.04279 30.48959 0.00028
C 13.47409 31.98221 0.0351
C 12.33972 32.63517 0.00422
C 9.75997 0.01927 0.00798
C 11.03864 0.72529 0.00228
C 7.38085 0.02822 0.01416
C 9.81659 32.68485 0.03542
C 11.01298 31.95007 0.02299
C 11.05066 30.53026 0.00244
C 9.79624 29.8623 -0.01717
C 9.79276 28.49778 0.05265
C 11.07977 27.81252 -0.01952
C 11.04214 26.39211 -0.02813
C 14.79952 29.88841 -0.02213
C 9.83358 25.68542 0.00374
C 11.01122 23.58775 -0.03682
C 10.88018 22.10854 0.01965
C 9.82296 21.45766 0.02058
C 10.44546 6.43662 -0.01957
C 10.7692 5.23079 -0.0108
C 9.75658 4.19715 -0.00368
C 9.85698 2.7657 -0.02696
C 10.98311 2.03779 -0.00114
C 9.79864 24.24299 0.00052
C 8.5868 0.76466 0.01945
C 14.77318 28.42221 0.03698
C 15.94797 26.14037 -0.00491
C 18.45667 0.73594 -0.04422
C 17.17827 34.04665 0.00654
C 19.70393 32.6551 -0.00703
C 20.90926 31.91744 -0.04076
C 21.20057 30.43144 -0.00652
C 19.93961 29.53631 0.0058
C 19.9496 27.97622 -0.00865
C 20.67443 26.69402 0.00675
C 19.58258 25.60444 -0.00311
C 19.60215 24.19688 0.00742
C 20.82515 23.53467 -0.01594
C 21.00897 22.03457 0.0106
C 21.14418 5.08576 -0.01154
C 19.7996 4.39298 -0.01721
C 19.71303 2.96105 -0.02422
C 20.87118 2.22336 0.01277
C 20.87213 0.79795 0.00096
C 18.49192 2.14064 -0.02957
C 17.29854 2.75291 -0.00831
C 17.34177 4.18813 0.00364
C 18.44591 4.78608 -0.017
C 14.66315 25.5358 0.03338
C 14.57257 24.10187 -0.0258
C 15.88261 23.60066 -0.0331
C 14.7169 4.24361 -0.00316
C 14.76508 2.76779 0.02188
C 16.01649 2.07922 -0.01979
C 15.97234 0.61283 0.02691
C 14.74952 34.03943 -0.01581
C 16.05573 27.64662 -0.00109
C 17.25147 32.60208 0.01452
C 18.62342 30.35932 -0.00111
C 17.27435 29.82296 -0.03557
C 17.29045 28.33923 0.03754
C 18.51678 27.59447 0.01739
C 18.29769 26.16618 0.00755
C 17.14026 25.42809 -0.0054
C 17.17019 24.02055 0.00667
C 18.42975 23.41382 0.00143
C 18.47924 31.79592 0.04892
C 8.57885 2.18124 -0.01454
C 7.34541 2.85816 0.01241
C 7.34267 4.29213 0.0076
C 2.4988 7.07921 0.0288
C 3.7726 6.49463 0.00393
C 3.73386 5.01427 0.00895
C 2.4772 4.26302 0.00685
C 2.44299 2.84948 0.02888
C 3.67524 2.1216 -0.00482
C 3.66212 0.73503 -0.01384
C 2.44754 34.03718 0.03693
C 4.82455 32.77672 0.01745
C 6.11292 31.87749 0.00488
C 6.15886 30.46647 -0.01004
C 4.84211 29.81777 -0.02896
C 4.87044 28.42329 -0.00131
C 6.12366 27.69554 -0.01118
C 6.10415 26.32499 -0.014
C 4.86675 25.60531 0.02147
C 4.85953 24.17225 0.00373
C 2.50714 8.51636 -0.0008
C 3.75921 9.27417 -0.01362
C 3.73036 10.63191 -0.00892
C 2.43555 11.39454 -0.04848
C 3.65228 30.55831 -0.03337
C 2.41142 29.81346 0.01227
C 2.31175 28.39086 0.00873
C 3.64569 27.67189 -0.00049
C 3.67047 26.19832 0.00848
C 2.41413 25.58061 -0.01303
C 2.35293 24.19776 -0.01378
C 3.68926 23.46824 0.02635
C 6.11509 23.39794 -0.00191
C 3.71569 22.04818 0.0127
C 2.39111 19.92015 0.01849
C 3.58419 19.19087 -0.01142
C 3.6343 17.69329 -0.00562
C 2.44637 17.04539 -0.00494
C 2.41122 15.5834 0.00054
C 3.68536 14.91137 0.03007
C 3.59862 13.52408 -0.00095
C 2.41025 12.79907 0.01572
C 2.42684 21.37073 0.01396
C 6.15268 21.96823 0.00438
C 4.87638 21.24588 0.01291
C 4.89596 19.91095 0.00093
C 7.37695 29.82847 0.03101
C 7.36818 28.42097 -0.01536
C 8.59695 27.8172 -0.02689
C 8.60007 26.30587 -0.01046
C 7.3953 25.59149 -0.00891
C 7.2971 24.16723 0.02819
C 8.52862 23.46841 0.00165
C 8.4977 22.06628 -0.02971
C 8.55069 30.57115 -0.00428
C 7.30429 21.31672 0.02894
C 8.70363 19.13924 0.00444
C 7.36247 17.07235 -0.00925
C 7.22376 15.85757 0.01877
C 7.10635 12.16694 0.01363
C 7.35956 8.58149 -0.02162
C 7.58509 7.14115 0.00415
C 8.91881 6.35548 -0.0014
C 8.56269 4.95617 0.02162
C 7.43203 19.86422 -0.01789
C 19.62585 0.01318 -0.01527
C 8.49402 32.03928 -0.02245
C 4.85964 0.01481 -0.01275
C 6.18768 19.1701 0.00057
C 6.10724 17.78438 -0.01634
C 4.90549 17.0083 -0.00334
C 4.9761 15.48784 0.02339
C 6.34391 14.67625 0.01641
C 6.33373 13.12266 -0.00719
C 4.89331 12.82828 0.01364
C 4.86955 11.37903 -0.01062
C 7.3138 32.72013 0.00985
C 6.21779 10.90499 -0.00033
C 5.00913 8.5687 -0.02759
C 5.01898 7.21061 0.0402
C 6.27854 6.4217 0.00572
C 6.17728 5.05274 0.03592
C 4.97039 4.31027 0.00406
C 5.04913 2.88307 0.00943
C 6.20986 2.16429 0.02841
C 6.15428 0.77768 -0.01111
C 6.26052 9.39513 0.03589
C 22.06096 32.68084 0.01087
C 23.33488 31.8646 0.00199
C 23.03093 30.45508 0.01511
C 33.20923 30.5173 0.01428
C 31.98642 29.77986 -0.02142
C 31.94681 28.36856 0.0544
C 33.2077 27.67575 0.00026
C 33.20516 26.27655 0.00682
C 31.895 25.63782 -0.01779
C 31.84164 24.14121 0.03794
C 33.118 23.47058 0.01927
C 33.15903 22.07183 0.01574
C 31.92578 21.34319 -0.02383
C 31.97064 19.96477 -0.01429
C 33.17946 19.23516 -0.0136
C 33.21294 17.87986 0.00594
C 31.95667 17.11281 -0.02474
C 31.96625 15.65883 0.00369
C 33.19398 14.95077 0.00455
C 33.19623 13.45691 -0.00644
C 33.15303 31.92448 -0.01694
C 32.02495 32.67905 0.01713
C 29.51865 0.02529 0.00346
C 30.74751 0.70225 0.00307
C 29.45615 19.98556 0.01836
C 30.70338 19.2496 0.03531
C 30.76233 17.88259 -0.00669
C 29.5579 17.1433 0.0101
C 29.46642 15.68134 0.01705
C 30.67142 14.95334 -0.0405
C 30.64932 13.46691 -0.01303
C 29.43764 12.76291 -0.01461
C 31.94405 12.76926 -0.01839
C 29.41297 11.34653 -0.02155
C 30.75793 9.13918 -0.03735
C 29.41024 8.56703 -0.00971
C 29.54378 7.12421 0.01518
C 30.70535 6.32943 0.01908
C 30.7493 4.90176 0.07705
C 29.5078 4.24654 0.0103
C 29.51015 2.80163 0.02108
C 30.73953 2.10754 0.00716
C 30.69863 10.60229 -0.00944
C 31.94373 11.37341 0.00137
C 33.18099 10.69502 0.00199
C 33.2247 9.25374 0.04381
C 1.1113 19.16472 -0.01678
C 1.24269 17.72132 0.01223
C 34.4086 17.035 0.00648
C 34.3695 15.68434 0.02114
C 1.20348 14.92723 -0.02957
C 1.16943 13.52464 0.00343
C 0.04111 12.7849 -0.02656
C 0.01387 11.3427 -0.02442
C 34.34429 19.93616 0.01951
C 1.21461 10.63707 -0.00027
C 0.04452 8.52022 -0.02302
C 0.06447 7.09248 -0.02849
C 1.27212 6.35037 0.02931
C 1.2834 4.89628 0.00628
C 0.00587 4.20234 -0.0345
C 34.38041 2.87026 -0.00931
C 1.19762 2.10669 -0.00939
C 1.13173 0.68962 -0.00468
C 1.28506 9.2049 -0.00583
C 29.42084 21.37908 -0.03039
C 34.37415 21.32356 -0.02213
C 1.16448 23.47272 0.00723
C 31.97049 8.47246 0.02806
C 32.00189 7.03095 0.01504
C 33.21099 6.36637 -0.00069
C 33.25504 4.92623 0.04926
C 32.0269 4.22683 -0.03838
C 32.00513 2.82633 0.00349
C 33.19459 2.13173 -0.00323
C 33.19707 0.67429 -0.00841
C 1.20249 21.99533 0.02712
C 32.0174 0.01988 0.0001
C 1.1837 31.98078 -0.01404
C 1.18375 30.48493 0.01027
C 34.39107 29.89358 0.01831
C 34.31629 28.47699 -0.01037
C 1.14451 27.74526 -0.00439
C 1.22018 26.28709 -0.00598
C 34.42986 25.62268 -0.05239
C 34.38205 24.16147 0.03076
C 34.37937 32.65086 -0.02927
C 3.58638 31.91444 -0.00966
C 30.65978 22.05039 -0.01415
C 29.4366 24.22297 -0.02049
C 24.49437 24.20014 0.00733
C 25.69837 23.46244 -0.00178
C 25.71478 22.03515 0.00768
C 24.54728 21.26778 -0.0276
C 24.59258 19.83666 0.03005
C 25.85869 19.15824 -0.04078
C 25.81183 17.79972 0.02117
C 24.45635 17.45023 0.02737
C 25.91394 14.97039 -0.00498
C 25.8949 13.77123 0.00135
C 25.77945 10.78923 0.03102
C 25.75062 9.28264 0.02555
C 24.65009 8.46962 0.01423
C 24.38927 7.11515 -0.00285
C 25.72105 6.37917 -0.009
C 25.73963 4.89877 -0.01199
C 24.63375 4.1314 -0.00229
C 24.53362 25.65631 -0.02118
C 25.83687 26.28093 -0.01971
C 25.76003 27.63097 -0.01586
C 24.41519 28.1159 -0.01107
C 23.44974 26.59728 -0.00478
C 22.03524 26.02416 -0.01662
C 22.0273 24.37353 -0.01185
C 23.15866 23.50902 0.01126
C 23.32618 21.97661 0.01852
C 21.99353 21.36866 -0.00381
C 23.55831 18.71068 0.03046
C 23.22697 6.2452 0.0296
C 24.59369 2.73823 -0.00938
C 23.44745 4.83393 0.03374
C 22.1338 2.85312 -0.03213
C 23.36486 2.10926 0.02239
C 23.37073 0.6543 0.01153
C 22.08927 34.06145 0.02734
C 24.53759 32.53348 -0.0055
C 25.75547 31.78352 0.01515
C 25.6804 30.374 -0.00225
C 24.27494 29.74169 0.00071
C 22.12993 4.20881 -0.02845
C 25.7655 2.05571 -0.0264
C 25.82882 0.60228 -0.01154
C 24.6219 33.98419 0.00684
C 28.15313 9.27086 -0.00621
C 26.97388 8.50853 0.02611
C 26.91055 7.09667 0.02198
C 28.24968 6.31589 0.01094
C 28.25548 4.94143 0.00235
C 27.00913 4.22559 0.01495
C 27.04038 2.77979 0.01259
C 28.29566 2.11039 0.01799
C 28.24934 10.69787 0.00194
C 28.29594 0.71266 0.01699
C 29.51909 32.56226 0.01177
C 30.72583 31.96003 0.04266
C 30.76116 30.53201 0.01324
C 29.49142 29.80888 0.0014
C 29.50808 28.39562 0.00924
C 30.67798 27.71313 0.02326
C 30.70355 26.33102 0.00261
C 29.46966 25.59208 0.03265
C 27.06022 33.97429 -0.00416
C 30.63635 23.44683 -0.01854
C 26.99794 11.4192 0.04185
C 28.23727 13.57348 0.01257
C 27.02658 32.54544 -0.01052
C 28.23012 31.88461 -0.01679
C 28.22098 30.53072 0.00367
C 26.93045 29.8297 0.04306
C 27.02316 28.34292 0.00996
C 28.16909 27.68665 0.00195
C 28.2163 26.26313 -0.00802
C 26.9723 25.54544 -0.00218
C 27.01898 12.8704 0.02316
C 26.96905 24.0806 -0.01654
C 28.19174 22.12133 -0.0032
C 26.99679 21.37671 0.00622
C 27.03637 19.92002 -0.02815
C 28.26155 19.27585 -0.00942
C 28.31605 17.78769 0.00487
C 27.07862 17.22011 0.00826
C 27.06027 15.79388 -0.00294
C 28.24293 14.96379 0.00152
C 28.18234 23.471 -0.00037
C 2.38044 32.67024 -0.02929
