377
Graphene
C 34.41775 0.04679 0.01295
C 16.03852 10.67893 0.03542
C 15.92732 9.2972 0.02299
C 14.75861 8.56771 0.00244
C 14.82185 7.09237 -0.01717
C 16.03402 6.42122 0.05265
C 15.99818 5.00281 -0.01952
C 14.73322 4.2091 -0.02813
C 14.70493 2.801 0.00374
C 15.9626 2.03447 0.00052
C 16.00376 0.62717 -0.03682
C 14.81858 0.01483 0.01965
C 17.27054 32.63056 0.02058
C 18.52699 31.89431 -0.01957
C 18.51363 30.48954 -0.0108
C 17.24164 29.87309 -0.00368
C 17.21259 28.36169 -0.02696
C 18.41262 27.5621 -0.00114
C 18.33429 26.21297 0.00228
C 18.59723 19.0669 0.00798
C 14.71887 11.35535 0.01416
C 14.7178 12.80447 0.01945
C 15.97766 13.48854 -0.01454
C 15.99336 14.89832 0.01241
C 12.20136 11.43667 -0.00428
C 13.4859 10.70402 0.03101
C 13.58112 9.28969 -0.01536
C 12.36579 8.54344 -0.02689
C 12.31703 7.07376 -0.01046
C 13.53758 6.41345 -0.00891
C 13.54021 4.98705 0.02819
C 12.32886 4.33312 0.00165
C 12.30416 2.95963 -0.02971
C 18.35886 17.75272 0.00422
C 13.48092 2.21624 0.02894
C 12.34545 34.02092 0.00444
C 14.79894 32.67278 -0.00925
C 16.02844 31.96176 0.01877
C 16.02255 30.53728 0.01363
C 14.74207 29.80805 -0.02162
C 14.75023 28.31761 0.00415
C 16.03975 27.6623 -0.0014
C 14.63347 16.97498 0.02162
C 14.79215 15.66773 0.0076
C 13.61559 0.71568 -0.01789
C 12.24426 12.82271 -0.02245
C 17.19923 17.00934 0.0351
C 18.44056 14.97563 0.02098
C 20.83525 22.02915 -0.01979
C 19.71432 21.2242 0.02691
C 19.61902 19.86591 -0.01581
C 20.96137 19.19918 0.01452
C 20.89576 17.75332 0.04892
C 19.61763 17.03755 -0.00111
C 19.66394 15.67546 -0.03557
C 20.91319 14.89958 0.03754
C 20.97501 13.53388 0.01739
C 19.74538 12.75215 0.00755
C 19.69605 11.35189 -0.0054
C 20.94523 10.58851 0.00667
C 20.94768 9.17545 0.00143
C 19.64042 8.52383 -0.017
C 19.63214 7.03344 0.00364
C 20.89304 6.34609 -0.00831
C 20.89467 4.94196 -0.02957
C 19.65099 4.29649 -0.04422
C 19.59455 2.84476 0.00654
C 20.78131 23.46621 0.02188
C 19.60624 24.18191 -0.00316
C 19.56145 25.59738 -0.0331
C 20.8702 26.27275 -0.0258
C 18.49172 13.48045 0.01848
C 17.24651 12.77174 -0.00619
C 17.24315 11.38184 -0.02162
C 18.4637 10.70344 0.00889
C 18.47005 9.27749 -0.00481
C 17.24508 8.55225 0.00979
C 17.24046 7.06779 0.01443
C 18.44061 6.36821 0.03505
C 18.41912 4.97059 -0.02815
C 17.23074 15.70204 -0.03113
C 17.15504 4.22987 -0.04147
C 18.38539 2.16041 0.00213
C 18.38489 0.73864 -0.00066
C 17.22865 34.01749 -0.00289
C 19.60837 32.68338 0.00028
C 20.88365 31.97401 -0.02213
C 20.94199 30.47858 0.03698
C 19.6816 29.76963 -0.00109
C 19.64764 28.30484 -0.00491
C 20.90245 27.65354 0.03338
C 17.16718 2.78914 -0.05302
C 13.47113 13.52316 0.00985
C 13.57096 14.84687 -0.01275
C 12.35876 15.69125 -0.01111
C 4.88441 28.4702 0.00988
C 6.18429 27.6729 0.0276
C 6.07695 26.21349 0.01305
C 4.88626 25.63248 -0.00077
C 4.83351 12.86254 0.03368
C 4.87457 11.33131 -0.02929
C 6.12609 10.65038 -0.00966
C 6.12245 9.26729 -0.03337
C 4.87353 8.53277 0.01227
C 4.90812 7.10556 0.00873
C 6.16284 6.44602 -0.00049
C 6.20867 4.96614 0.00848
C 4.92242 4.31676 -0.01303
C 4.95578 2.87738 -0.01378
C 6.09922 2.17639 0.02635
C 6.07903 0.76349 0.0127
C 4.90351 0.03412 0.01396
C 7.37546 32.63675 0.01849
C 8.5501 31.91207 -0.01142
C 4.94307 29.87317 -0.01343
C 6.20699 30.4656 0.01087
C 6.20716 31.93413 -0.05697
C 4.87844 32.66416 -0.00725
C 3.71947 30.54413 0.03267
C 2.47811 29.79458 0.02374
C 2.36247 28.42022 0.00402
C 3.63818 27.81326 0.0073
C 3.66821 26.23737 0.0174
C 2.43967 25.53204 0.03828
C 3.76494 13.43125 0.01226
C 2.54617 12.77434 -0.00279
C 2.39053 11.32815 0.01996
C 8.68651 30.49485 -0.00562
C 3.58954 10.57351 -0.03996
C 2.39581 8.58284 -0.00074
C 2.37718 7.13406 -0.00518
C 3.65057 6.44399 0.0086
C 3.73015 5.03378 -0.00643
C 2.47597 4.17972 0.017
C 2.50062 2.8357 -0.03113
C 3.75523 2.19826 -0.02566
C 3.68475 0.75457 -0.00094
C 2.45738 0.04025 0.02322
C 3.61896 9.172 0.01465
C 7.40436 29.7974 -0.00494
C 7.40501 28.34019 0.00054
C 8.66635 27.6396 0.03007
C 9.74439 12.88038 0.00438
C 9.80605 11.44188 0.01291
C 10.98023 10.68251 0.00093
C 11.14787 9.2565 0.00057
C 9.93835 8.55056 -0.01634
C 9.86243 7.1501 -0.00334
C 11.04726 6.30706 0.02339
C 11.04741 4.92388 0.01641
C 9.77201 4.28061 -0.00719
C 11.01693 13.49231 -0.00191
C 9.82147 2.84979 0.01364
C 11.07451 0.74888 -0.00033
C 9.80654 0.06873 0.03589
C 12.30067 32.61717 -0.02759
C 13.53974 31.95873 0.0402
C 13.546 30.5609 0.00572
C 12.34165 29.8793 0.03592
C 12.26998 28.32947 0.00406
C 13.50671 27.74322 0.00943
C 12.39976 17.09297 0.02841
C 11.05891 2.15374 -0.01062
C 20.86988 2.20536 -0.00703
C 11.16474 14.88836 0.00373
C 9.85887 28.40075 -0.014
C 8.49735 26.273 -0.00095
C 7.49612 25.75153 0.01572
C 8.44509 13.54918 -0.04848
C 7.4362 12.88486 -0.00892
C 7.34671 11.43387 -0.01362
C 8.53705 10.6885 -0.0008
C 8.62342 9.2936 0.0288
C 7.39236 8.52939 0.00393
C 7.38705 7.12068 0.00895
C 11.0117 27.80088 0.02147
C 8.61959 6.45079 0.00685
C 7.40068 4.25147 -0.00482
C 7.34662 2.86862 -0.01384
C 8.53181 2.16408 0.03693
C 8.57037 0.73217 0.01745
C 7.37301 34.07056 0.00488
C 9.78139 32.743 -0.01004
C 10.99981 32.00677 -0.02896
C 11.10208 30.61226 -0.00131
C 9.88511 29.84194 -0.01118
C 8.59722 5.0455 0.02888
C 3.67057 31.92129 -0.01509
C 20.88794 0.71868 -0.04076
C 22.1035 32.6706 0.0058
C 30.63792 4.97107 0.00716
C 29.42242 4.2241 0.00307
C 29.43848 2.77392 0.00346
C 30.73849 2.16359 0.01713
C 30.71998 0.72911 -0.01694
C 29.50535 0.03712 0.01428
C 31.98955 32.64425 -0.02142
C 33.19683 31.96008 0.0544
C 33.20258 30.56872 0.00026
C 32.03909 29.83365 0.00682
C 32.01059 28.45979 -0.01779
C 33.18983 27.69977 0.03794
C 33.1763 26.30143 0.01927
C 31.95167 25.58903 0.01574
C 31.91441 24.16885 -0.02383
C 33.19372 23.40553 -0.01429
C 33.26221 21.98305 -0.0136
C 32.06117 21.26241 0.00594
C 31.97514 19.86899 -0.02474
C 30.71107 6.38507 0.02108
C 29.53971 7.12454 0.0103
C 29.49258 8.50991 0.07705
C 30.75078 9.19012 0.01908
C 29.50443 32.72826 0.02326
C 30.79192 31.95295 0.00261
C 30.762 30.44845 0.03265
C 29.51868 29.83569 -0.02049
C 29.5153 28.34719 -0.01854
C 30.77221 27.71659 -0.01415
C 30.70596 26.23066 -0.03039
C 29.46767 25.56065 0.01836
C 29.54881 24.1064 0.03531
C 33.16869 19.1239 0.00369
C 30.73866 23.43295 -0.00669
C 29.46547 21.32164 0.01705
C 29.43656 19.89663 -0.0405
C 30.72387 19.16823 -0.01303
C 30.7912 17.73345 -0.01461
C 29.55161 17.00362 -0.02155
C 29.56089 15.70881 -0.00944
C 29.61609 12.69169 -0.03735
C 29.51729 11.32211 -0.00971
C 30.71629 10.6027 0.01518
C 30.79466 21.9743 0.0101
C 27.0087 34.06694 0.00924
C 33.27151 17.70668 0.00455
C 31.9548 15.67428 -0.01839
C 1.19146 23.46484 0.01951
C 0.04735 21.2785 -0.01678
C 34.36918 20.04323 0.01223
C 0.05892 17.11279 0.00648
C 0.00913 15.7014 0.02114
C 1.18696 14.91547 -0.02957
C 1.23775 13.51532 0.00343
C 0.02135 12.83439 -0.02656
C 34.43256 11.36341 -0.02442
C 1.17923 10.60994 -0.00027
C 1.19156 9.29087 -0.00583
C 0.01839 8.58171 -0.02302
C 0.02257 7.16877 -0.02849
C 1.18051 6.32436 0.02931
C 1.1809 4.89179 0.00628
C 34.38168 4.26507 -0.0345
C 0.03136 2.82785 -0.00931
C 1.20502 2.0838 -0.00939
C 1.1608 0.72036 -0.00468
C 0.0333 24.09408 -0.02213
C 34.40058 25.5517 0.02712
C 1.22533 26.19902 0.00723
C 1.18821 27.76867 0.03076
C 33.09506 14.97094 0.00137
C 33.14194 13.47564 0.00199
C 31.94339 12.70874 0.04381
C 31.87219 11.38842 0.02806
C 33.15302 10.67309 0.01504
C 33.19607 9.26778 -0.00069
C 32.02003 8.48554 0.04926
C 31.96023 7.10459 -0.03838
C 33.18318 6.43785 0.00349
C 31.96262 17.02571 -0.00644
C 33.17523 5.04424 -0.00323
C 31.93778 2.83171 0.0001
C 33.18426 2.15753 -0.02927
C 33.19731 0.74231 -0.01404
C 31.98065 0.00137 0.01027
C 0.03215 32.69024 0.01831
C 1.20499 31.89997 -0.01037
C 1.23681 30.54821 -0.00439
C 34.391 29.89217 -0.00598
C 34.39624 28.47611 -0.05239
C 31.95 4.25913 -0.00841
C 28.25034 0.67151 0.0014
C 28.22753 2.06114 0.01324
C 27.06227 2.90949 0.04266
C 23.38979 6.36862 -0.02845
C 23.31755 4.91607 -0.03213
C 22.08174 4.19105 0.02239
C 22.10258 2.84772 0.01153
C 23.37939 2.09454 0.02734
C 23.32398 0.68629 -0.0055
C 22.14972 34.04405 0.01515
C 24.5751 32.62564 -0.00225
C 25.84749 31.92365 0.00071
C 25.80521 30.52353 -0.01107
C 24.60838 29.75574 -0.01586
C 24.58155 28.32922 -0.01971
C 25.79177 27.66877 -0.02118
C 25.84965 26.22606 0.00733
C 24.64532 25.5486 -0.00178
C 24.53671 24.13794 0.00768
C 25.69595 23.40206 -0.0276
C 25.70943 21.98818 0.03005
C 24.59516 21.2348 -0.04078
C 22.14284 7.09447 0.03374
C 22.19349 8.47342 0.0296
C 23.40583 9.22325 0.03046
C 23.28641 10.62292 -0.00381
C 23.29856 31.88406 -0.00865
C 23.36827 30.46887 0.00675
C 22.17786 29.75158 -0.00311
C 22.17893 28.30431 0.00742
C 23.40204 27.62366 -0.01594
C 23.41457 26.20632 0.0106
C 22.1326 25.5394 -0.01154
C 22.1052 24.0814 -0.01721
C 23.33066 23.35397 -0.02422
C 24.57683 19.83098 0.02117
C 23.39062 21.94062 0.01277
C 22.21769 19.82502 -0.01527
C 23.36586 19.09998 0.01087
C 23.38156 17.68567 0.00199
C 22.16159 17.02158 0.01511
C 22.15604 15.597 -0.00478
C 23.40594 14.9061 -0.01662
C 23.35483 13.49718 -0.01185
C 22.12369 12.79245 0.01126
C 22.14022 11.36643 0.01852
C 22.23152 21.29959 0.00096
C 25.83203 19.23953 0.02737
C 25.82728 17.7986 -0.00498
C 24.68051 16.95749 0.00135
C 27.00631 24.1151 -0.00942
C 28.30531 23.46125 0.00487
C 28.23377 22.07245 0.00826
C 26.98513 21.33567 -0.00294
C 27.06922 19.96098 0.00152
C 28.25082 19.1891 0.01257
C 28.33389 17.76791 0.02316
C 27.07783 17.09787 0.04185
C 27.00649 15.69111 0.00194
C 27.01199 25.52362 -0.02815
C 28.33908 15.01436 -0.00621
C 27.10097 12.7597 0.02198
C 27.06521 11.35093 0.01094
C 28.23213 10.58928 0.00235
C 28.30108 9.23112 0.01495
C 27.04724 8.52421 0.01259
C 27.18511 7.18194 0.01799
C 28.33025 6.38679 0.01699
C 28.24688 4.96122 -0.00416
C 27.0949 4.26323 0.01177
C 28.26987 13.53383 0.02611
C 19.57742 0.0189 -0.00652
C 28.23882 26.21426 0.00622
C 27.02768 28.368 -0.00037
C 24.60418 15.57927 0.03102
C 25.77858 14.85953 0.02555
C 25.80235 13.43174 0.01423
C 24.53844 12.78307 -0.00285
C 24.5233 11.32422 -0.009
C 25.77156 10.70886 -0.01199
C 25.84458 9.22477 -0.00229
C 24.57622 8.50046 -0.00938
C 24.63139 7.10008 -0.0264
C 28.26119 27.58873 -0.0032
C 25.87549 6.41616 -0.01154
C 24.57572 4.2391 -0.01052
C 24.57519 2.8104 -0.01679
C 25.92317 2.18968 0.00367
C 25.8033 0.72869 0.04306
C 24.54937 34.0408 0.00996
C 27.03245 32.64522 0.00195
C 28.27996 31.98858 -0.00802
C 28.24524 30.5411 -0.00218
C 27.04702 29.7925 -0.01654
C 25.87202 5.0088 0.00684
C 2.45433 32.66429 0.00643
