440
Graphene
C 0.01537 0.01896 0.01295
C 12.33385 11.36229 -0.01634
C 13.52029 10.70204 -0.00334
C 13.53694 9.2713 0.02339
C 12.32589 8.52456 0.01641
C 12.35393 7.14082 -0.00719
C 13.53338 6.42217 0.01364
C 13.5133 4.9892 -0.01062
C 12.26476 4.25765 -0.00033
C 12.2657 2.77354 0.03589
C 13.51933 2.10402 -0.02759
C 13.56323 0.73951 0.0402
C 12.30849 34.05397 0.00572
C 14.75304 32.67988 0.03592
C 16.00285 31.94478 0.00406
C 15.95723 30.56744 0.00943
C 14.7528 29.8179 0.02841
C 14.7469 28.34914 -0.01111
C 15.9557 27.70777 -0.01275
C 16.02865 26.23323 0.00985
C 14.72275 25.55858 -0.02245
C 14.72478 24.18269 -0.00428
C 15.98451 23.40376 0.03101
C 15.95338 22.02039 -0.01536
C 12.25639 12.80992 0.00057
C 13.56117 13.51553 0.00093
C 13.52667 14.93281 0.01291
C 12.34131 15.63049 0.00438
C 9.85322 7.08882 -0.00095
C 11.03619 6.41152 0.01572
C 11.04429 4.95795 -0.04848
C 9.86294 4.26277 -0.00892
C 9.8213 2.892 -0.01362
C 11.03815 2.16527 -0.0008
C 11.06876 0.75178 0.0288
C 9.86054 34.06436 0.00393
C 12.31177 32.66093 0.00895
C 13.5438 31.98581 0.00685
C 13.57929 30.50568 0.02888
C 14.7337 21.26339 -0.02689
C 12.28875 29.84372 -0.00482
C 13.54748 27.65802 0.03693
C 13.47655 26.23994 0.01745
C 12.2915 25.56092 0.00488
C 12.30793 24.15342 -0.01004
C 13.51453 23.47847 -0.02896
C 13.54755 22.04603 -0.00131
C 12.29525 21.33587 -0.01118
C 12.27297 19.89923 -0.014
C 13.50996 19.13793 0.02147
C 13.53312 17.74199 0.00373
C 12.30719 17.10002 -0.00191
C 12.2827 28.35964 -0.01384
C 9.81951 8.50909 0.03007
C 14.77195 19.91808 -0.01046
C 16.01751 17.72512 0.02819
C 17.25527 21.31527 0.02058
C 17.21094 19.86014 -0.01957
C 18.45605 19.17493 -0.0108
C 18.46517 17.7475 -0.00368
C 17.24653 16.98333 -0.02696
C 17.18568 15.61272 -0.00114
C 18.43524 14.91772 0.00228
C 18.45445 13.45457 0.00798
C 17.19463 12.78793 0.00422
C 17.21317 11.36331 0.0351
C 18.40913 10.62276 -0.03113
C 18.42143 9.22396 0.02098
C 17.18238 8.52885 0.01848
C 17.21592 7.13163 -0.00619
C 18.42816 6.41886 -0.02162
C 18.45943 4.96104 0.00889
C 17.20422 4.27013 -0.00481
C 17.20478 2.84617 0.00979
C 18.46085 2.17151 0.01443
C 18.4589 0.70489 0.03505
C 17.20882 34.07875 -0.02815
C 19.69904 32.65656 -0.04147
C 20.88606 31.95607 -0.05302
C 18.45044 22.01199 0.01965
C 18.49536 23.45967 -0.03682
C 17.17891 24.1288 0.00052
C 17.20276 25.55098 0.00374
C 14.73764 17.0675 0.00165
C 14.75588 15.63148 -0.02971
C 15.94611 14.90663 0.02894
C 15.97485 13.52431 -0.01789
C 14.77622 12.76452 0.00444
C 14.73525 11.35496 -0.00925
C 15.98239 10.61248 0.01877
C 15.9789 9.21514 0.01363
C 14.76785 8.48662 -0.02162
C 14.70509 7.09407 0.00415
C 16.01408 6.38853 -0.0014
C 16.05682 19.17196 -0.00891
C 15.9756 5.01501 0.02162
C 14.76719 2.80999 0.01241
C 15.97878 2.11013 -0.01454
C 15.96671 0.72503 0.01945
C 14.75139 0.06185 0.01416
C 17.21546 32.62007 0.03542
C 18.47681 31.95973 0.02299
C 18.4367 30.5371 0.00244
C 17.20358 29.82167 -0.01717
C 17.22997 28.39094 0.05265
C 18.42931 27.69888 -0.01952
C 18.44607 26.22619 -0.02813
C 14.76555 4.2598 0.0076
C 20.90688 30.53019 0.00213
C 11.08642 9.22859 0.00054
C 9.79138 11.38602 -0.00562
C 3.69602 0.73863 0.04421
C 2.45524 34.05962 0.00088
C 4.90892 32.67311 0.00828
C 6.10958 26.32779 -0.02375
C 4.9662 25.51971 0.00558
C 4.94691 24.16642 -0.0059
C 6.16199 23.40203 -0.01386
C 6.18941 21.98202 -0.02805
C 4.93511 21.29213 0.00081
C 4.88312 19.85963 0.00245
C 6.13952 19.23084 0.02728
C 6.12331 17.76134 -0.00039
C 4.91636 17.01694 0.0064
C 4.91514 15.61347 0.00211
C 6.19413 14.88448 -0.00449
C 6.14424 13.4382 -0.01979
C 4.92816 12.77089 0.02784
C 4.83675 11.32844 -0.01977
C 6.13416 10.68564 -0.00561
C 6.13807 9.26152 0.00208
C 4.92023 8.53861 0.01707
C 4.96031 7.16231 0.02769
C 6.18633 6.32024 -0.03291
C 3.70688 2.11398 -0.00177
C 2.52012 2.85452 0.03278
C 2.48835 4.27114 0.01138
C 3.7115 4.96257 -0.00407
C 3.67319 30.51811 0.01116
C 2.47184 29.81772 -0.0005
C 2.47196 28.40039 -0.00018
C 3.6857 27.65259 0.01073
C 3.69891 26.27668 0.01984
C 2.47931 25.59338 0.00535
C 2.44815 24.14574 -0.00198
C 3.72935 23.46332 -0.00012
C 3.73311 21.99115 -0.04306
C 2.46023 21.30824 -0.03672
C 2.43188 19.82637 0.01913
C 6.1559 4.94993 -0.04999
C 3.66471 19.17783 0.00267
C 2.40678 17.00106 0.02426
C 2.48002 15.63115 0.01218
C 3.67906 14.91158 -0.01471
C 3.66157 13.50935 -0.02827
C 2.48678 12.74379 0.01078
C 2.45481 11.36637 -0.00112
C 3.69735 10.63901 0.03345
C 3.72025 9.20882 0.00748
C 2.45531 8.48523 0.00662
C 2.4424 7.09481 -0.0154
C 3.70339 6.39769 -0.01299
C 3.68394 17.78689 0.00787
C 11.04792 10.64279 -0.00494
C 4.96305 4.23687 0.04505
C 6.13757 2.13957 -0.04307
C 8.62003 2.12207 -0.00725
C 8.62613 0.74893 -0.05697
C 7.34957 0.06957 0.01087
C 9.82478 32.67398 -0.01343
C 11.06875 31.97025 0.00988
C 10.99536 30.5537 0.0276
C 9.84329 29.86504 0.01305
C 9.83017 28.41631 -0.00077
C 11.08151 27.69309 0.03368
C 11.07349 26.27739 -0.02929
C 9.82693 25.60089 -0.00966
C 9.82991 24.14332 -0.03337
C 11.02909 23.43242 0.01227
C 11.07741 22.0612 0.00873
C 9.84819 21.27463 -0.00049
C 9.84464 19.86375 0.00848
C 11.0628 19.20835 -0.01303
C 11.05441 17.79841 -0.01378
C 9.88602 17.07147 0.02635
C 9.85755 15.60482 0.0127
C 11.06793 14.91467 0.01396
C 11.04665 13.5096 0.01849
C 9.8734 12.79056 -0.01142
C 7.34525 2.84095 0.02322
C 7.32044 4.26147 -0.00094
C 8.58585 4.97295 -0.02566
C 8.60731 6.34601 -0.03113
C 6.13571 0.72135 0.03189
C 4.88633 34.07 0.00031
C 7.38326 32.71041 -0.003
C 8.57982 31.94389 0.01402
C 8.60069 27.70412 0.02379
C 8.61022 26.32115 0.00907
C 7.39699 25.57155 0.00643
C 7.37304 24.17547 -0.01509
C 8.60716 23.40569 0.03267
C 8.62201 22.02983 0.02374
C 7.40995 21.29874 0.00402
C 4.87196 2.85328 0.03284
C 7.41666 19.88428 0.0073
C 8.60157 17.71272 0.03828
C 7.42482 17.00911 0.01226
C 7.32684 15.66673 -0.00279
C 8.61638 14.93446 0.01996
C 8.62015 13.49686 -0.03996
C 7.38158 12.77371 0.01465
C 7.37039 11.3489 -0.00074
C 8.61004 10.67236 -0.00518
C 8.67169 9.26411 0.0086
C 7.37697 8.47311 -0.00643
C 7.39518 7.09856 0.017
C 8.61435 19.18048 0.0174
C 19.66166 29.83261 -0.00066
C 19.68011 28.37118 -0.00289
C 20.91923 27.70402 0.00028
C 30.80968 14.88954 -0.0405
C 30.72199 13.46378 -0.01303
C 29.48279 12.80681 -0.01461
C 29.51244 11.3469 -0.02155
C 30.73013 10.64742 -0.00944
C 30.73517 9.26798 -0.03735
C 29.50858 8.48468 -0.00971
C 29.54501 7.08879 0.01518
C 30.75397 6.43076 0.01908
C 30.79022 4.97076 0.07705
C 29.49132 4.20282 0.0103
C 29.52984 2.85703 0.02108
C 30.77094 2.09775 0.00716
C 30.72877 0.68717 0.00307
C 29.52327 34.04693 0.00346
C 31.9481 32.65982 0.01713
C 33.19988 31.95602 -0.01694
C 33.22457 30.56825 0.01428
C 31.97489 29.80835 -0.02142
C 32.02194 28.42836 0.0544
C 33.18543 27.7207 0.00026
C 33.19097 26.27463 0.00682
C 31.9649 25.5431 -0.01779
C 29.5473 15.63545 0.01705
C 29.52131 17.03268 0.0101
C 30.73682 17.70397 -0.00669
C 30.73338 19.17656 0.03531
C 28.29475 10.65902 0.00194
C 28.30407 9.27884 -0.00621
C 27.04001 8.48405 0.02611
C 27.03126 7.08258 0.02198
C 28.29899 6.37792 0.01094
C 28.33246 4.96908 0.00235
C 27.0053 4.22952 0.01495
C 27.02662 2.85957 0.01259
C 28.28146 2.09487 0.01799
C 28.25813 0.6976 0.01699
C 27.0522 34.0311 -0.00416
C 31.98154 24.19082 0.03794
C 29.48996 32.6818 0.01177
C 30.74003 30.52709 0.01324
C 29.51835 29.80057 0.0014
C 29.48881 28.36467 0.00924
C 30.73139 27.67613 0.02326
C 30.72153 26.27287 0.00261
C 29.53154 25.50667 0.03265
C 29.51682 24.08004 -0.02049
C 30.73025 23.46954 -0.01854
C 30.74618 22.05095 -0.01415
C 29.54361 21.35395 -0.03039
C 29.50531 19.87064 0.01836
C 30.74715 31.92673 0.04266
C 27.06518 11.36988 0.04185
C 33.23189 23.41735 0.01927
C 32.0135 21.31107 -0.02383
C 34.40809 24.13141 0.03076
C 1.21609 23.44349 0.00723
C 1.19939 22.03468 0.02712
C 34.41646 21.342 -0.02213
C 0.00032 19.85404 0.01951
C 1.2439 19.16616 -0.01678
C 1.18632 17.73212 0.01223
C 0.0004 17.02585 0.00648
C 0.0142 15.6123 0.02114
C 1.18678 14.87023 -0.02957
C 1.21355 13.4972 0.00343
C 0.01534 12.75181 -0.02656
C 34.40603 11.34091 -0.02442
C 1.1996 10.69414 -0.00027
C 1.25306 9.19849 -0.00583
C 34.43182 8.51983 -0.02302
C 0.01502 7.11229 -0.02849
C 1.19775 6.35524 0.02931
C 1.23337 4.9144 0.00628
C 34.42693 4.21379 -0.0345
C 34.42138 2.82018 -0.00931
C 1.26571 2.14339 -0.00939
C 1.28321 0.69148 -0.00468
C 34.42218 25.61056 -0.05239
C 1.19741 26.26924 -0.00598
C 1.19043 27.6472 -0.00439
C 0.00639 28.38297 -0.01037
C 31.95303 19.89505 -0.01429
C 33.23126 19.16746 -0.0136
C 33.19948 17.75466 0.00594
C 31.92119 17.05808 -0.02474
C 31.96183 15.55897 0.00369
C 33.2275 14.88086 0.00455
C 33.22986 13.46317 -0.00644
C 31.97957 12.75763 -0.01839
C 31.98931 11.30764 0.00137
C 33.20574 10.63364 0.00199
C 33.17052 9.2432 0.04381
C 33.22913 21.95558 0.01574
C 31.95929 8.49319 0.02806
C 33.18665 6.41498 -0.00069
C 33.23338 4.93879 0.04926
C 32.02684 4.24077 -0.03838
C 31.96384 2.84356 0.00349
C 33.19272 2.10922 -0.00323
C 33.20896 0.69128 -0.00841
C 31.9763 34.06794 0.0001
C 0.02076 32.6654 -0.02927
C 1.21236 31.95807 -0.01404
C 1.23701 30.53576 0.01027
C 0.01486 29.80744 0.01831
C 31.98977 7.1284 0.01504
C 27.05907 12.78372 0.02316
C 28.29587 13.52121 0.01257
C 28.30559 14.85248 0.00152
C 23.34108 30.50818 -0.00703
C 22.16862 29.82487 -0.04076
C 22.15737 28.45194 -0.00652
C 23.3548 27.68251 0.0058
C 23.36264 26.2762 -0.00865
C 22.13349 25.58123 0.00675
C 22.12259 24.13051 -0.00311
C 23.39557 23.43814 0.00742
C 23.37371 22.01184 -0.01594
C 22.14638 21.25721 0.0106
C 22.14346 19.93028 -0.01154
C 23.37438 19.17109 -0.01721
C 23.36689 17.73214 -0.02422
C 22.09211 17.00102 0.01277
C 22.12275 15.6085 0.00096
C 23.3377 14.89755 -0.01527
C 23.46444 13.49097 0.01087
C 22.12601 12.78219 0.00199
C 22.12136 11.3417 0.01511
C 23.37618 10.63979 -0.00478
C 23.29626 9.2362 -0.01662
C 22.08303 8.51887 -0.01185
C 22.13958 7.07282 0.01126
C 23.34759 31.97786 0.00654
C 22.15051 32.65331 -0.04422
C 19.62697 34.06921 -0.02957
C 20.9214 0.72229 -0.00831
C 20.90107 26.27873 -0.02213
C 19.65153 25.55153 0.03698
C 19.65357 24.11536 -0.00109
C 20.89668 23.4067 -0.00491
C 20.88509 21.99078 0.03338
C 19.67802 21.30674 -0.0258
C 19.67479 19.81345 -0.0331
C 20.8938 19.1932 -0.00316
C 20.89969 17.73982 0.02188
C 19.7027 17.03468 -0.01979
C 19.73556 15.69708 0.02691
C 23.35825 6.37044 0.01852
C 20.88414 14.87701 -0.01581
C 19.6745 12.74574 0.04892
C 19.69464 11.3889 -0.00111
C 20.86641 10.64464 -0.03557
C 20.92618 9.2218 0.03754
C 19.72015 8.52646 0.01739
C 19.68112 7.10189 0.00755
C 20.91331 6.38881 -0.0054
C 20.88482 4.94293 0.00667
C 19.68381 4.2712 0.00143
C 19.68587 2.83907 -0.017
C 20.89783 2.15599 0.00364
C 20.88846 13.47738 0.01452
C 23.36938 4.93835 -0.00381
C 22.12035 4.23937 0.03046
C 22.15664 2.83985 0.0296
C 25.83967 6.37294 -0.009
C 25.8353 4.97969 -0.01199
C 24.59993 4.30189 -0.00229
C 24.5941 2.86045 -0.00938
C 25.82066 2.12291 -0.0264
C 25.85902 0.73752 -0.01154
C 24.59084 0.04232 0.00684
C 27.05899 32.60402 -0.01052
C 28.30792 31.91045 -0.01679
C 28.32548 30.5444 0.00367
C 27.05179 29.86689 0.04306
C 24.61278 7.0876 -0.00285
C 27.04687 28.42624 0.00996
C 28.29265 26.27007 -0.00802
C 27.06798 25.54866 -0.00218
C 27.01979 24.12561 -0.01654
C 28.31547 23.40677 -0.00037
C 28.29987 22.00862 -0.0032
C 27.01063 21.30921 0.00622
C 27.05193 19.85211 -0.02815
C 28.26032 19.16549 -0.00942
C 28.2871 17.72907 0.00487
C 27.00393 16.9915 0.00826
C 27.02266 15.62989 -0.00294
C 28.28274 27.71097 0.00195
C 3.70788 31.95751 -0.0213
C 24.57865 8.46907 0.01423
C 25.84838 10.63542 0.03102
C 23.35471 2.1488 0.03374
C 23.35714 0.69951 -0.02845
C 22.12955 0.0175 -0.03213
C 24.6095 32.6949 0.02239
C 25.85609 31.92544 0.01153
C 25.79382 30.49828 0.02734
C 24.57966 29.80897 -0.0055
C 24.59254 28.39082 0.01515
C 25.83283 27.71305 -0.00225
C 25.8012 26.29685 0.00071
C 24.59946 25.56717 -0.01107
C 25.7892 9.19385 0.02555
C 24.5795 24.16069 -0.01586
C 25.79294 21.98279 -0.02118
C 24.53582 21.29761 0.00733
C 24.55504 19.85016 -0.00178
C 25.78949 19.17265 0.00768
C 25.84271 17.82191 -0.0276
C 24.57489 17.04384 0.03005
C 24.57267 15.62545 -0.04078
C 25.79603 14.90443 0.02117
C 25.85831 13.46669 0.02737
C 24.62554 12.82261 -0.00498
C 24.58859 11.40607 0.00135
C 25.8527 23.44619 -0.01971
C 2.49699 32.65152 -0.00374
