342
Graphene
C 34.3953 0.0144 0.01295
C 12.38435 21.43711 0.01848
C 12.19291 20.05364 -0.00619
C 13.63812 19.35129 -0.02162
C 13.5584 17.89563 0.00889
C 12.28851 17.16899 -0.00481
C 12.29486 15.63401 0.00979
C 13.52769 15.09469 0.01443
C 13.59129 13.68152 0.03505
C 12.37867 12.74305 -0.02815
C 12.33161 11.31854 -0.04147
C 13.59434 10.63365 -0.05302
C 13.7012 9.15822 0.00213
C 12.41763 8.46219 -0.00066
C 12.31171 7.04223 -0.00289
C 13.72101 6.37784 0.00028
C 13.59332 4.83868 -0.02213
C 12.30769 4.25605 0.03698
C 13.59629 21.99589 0.02098
C 12.45416 2.80269 -0.00109
C 13.44478 23.42051 -0.03113
C 12.01112 25.44656 0.00422
C 11.16612 9.19301 0.00244
C 9.89538 8.5533 -0.01717
C 9.80193 7.13607 0.05265
C 10.98685 6.34766 -0.01952
C 11.03306 4.96177 -0.02813
C 9.82531 4.23046 0.00374
C 9.85526 2.84776 0.00052
C 11.11269 2.13945 -0.03682
C 11.12212 0.71573 0.01965
C 9.86889 0.08414 0.02058
C 12.21795 32.69475 -0.01957
C 13.40079 31.86752 -0.0108
C 13.39333 30.47827 -0.00368
C 12.14517 29.75605 -0.02696
C 12.07386 28.41401 -0.00114
C 13.29514 27.7366 0.00228
C 13.27438 26.21912 0.00798
C 12.29811 24.17261 0.0351
C 13.58355 2.09044 -0.00491
C 13.53379 0.69019 0.03338
C 12.25121 0.04779 -0.0258
C 16.08616 4.89217 -0.00703
C 14.87111 4.2831 -0.04076
C 14.95249 2.8565 -0.00652
C 16.23687 2.13592 0.0058
C 15.98156 0.71975 -0.00865
C 14.71822 0.07648 0.00675
C 17.10995 32.57225 -0.00311
C 18.34287 31.8705 0.00742
C 18.40429 30.47037 -0.01594
C 17.16422 29.71945 0.0106
C 17.09958 28.36068 -0.01154
C 18.29921 27.69271 -0.01721
C 18.31996 26.21808 -0.02422
C 17.12353 25.54484 0.01277
C 17.0935 24.10068 0.00096
C 18.17993 23.06843 -0.01527
C 17.54409 21.76793 0.01087
C 14.95986 7.20433 0.00654
C 14.80556 8.3507 -0.04422
C 14.68497 11.46953 -0.02957
C 14.68418 12.78397 -0.00831
C 14.70424 32.61565 -0.0331
C 15.86165 31.92853 -0.00316
C 15.90033 30.41213 0.02188
C 14.655 29.75677 -0.01979
C 14.60269 28.3616 0.02691
C 15.90097 27.65781 -0.01581
C 15.85447 26.22093 0.01452
C 14.55266 25.55576 0.04892
C 11.10743 10.6201 0.02299
C 14.66027 24.19651 -0.00111
C 16.05462 22.12207 0.03754
C 14.90372 21.3359 0.01739
C 14.85355 19.93032 0.00755
C 16.22535 19.41889 -0.0054
C 16.14072 17.95179 0.00667
C 14.83584 17.22961 0.00143
C 14.79198 15.81689 -0.017
C 15.96634 15.12624 0.00364
C 15.83379 23.52049 -0.03557
C 9.85515 11.34703 0.03542
C 9.76288 12.76983 0.01416
C 11.01603 13.49148 0.01945
C 3.68748 0.72994 0.02888
C 2.42859 0.005 -0.00482
C 4.88458 32.57212 -0.01384
C 6.1126 31.82997 0.03693
C 6.19228 30.31573 0.01745
C 4.9171 29.78105 0.00488
C 4.67147 28.4328 -0.01004
C 6.16829 17.90679 -0.02896
C 5.01838 17.21029 -0.00131
C 4.89125 15.78886 -0.01118
C 6.13436 14.96377 -0.014
C 6.18145 13.57347 0.02147
C 4.99461 12.89514 0.00373
C 4.97715 11.50428 -0.00191
C 6.16825 10.67247 0.00438
C 6.16294 9.31016 0.01291
C 4.90986 8.59022 0.00093
C 3.70492 2.16443 0.00685
C 2.42249 2.82638 0.00895
C 2.43874 4.2911 0.00393
C 3.72794 4.96542 0.0288
C 3.75439 30.555 0.00848
C 2.50074 29.84439 -0.01303
C 2.36533 28.42623 -0.01378
C 3.59338 27.714 0.02635
C 2.43007 19.8091 0.0127
C 3.54374 19.30617 0.01396
C 3.70529 17.86178 0.01849
C 2.43141 17.17283 -0.01142
C 4.9487 7.12503 0.00057
C 2.4203 15.7055 -0.00562
C 3.6716 13.60113 0.00054
C 2.42704 12.88513 0.03007
C 2.44164 11.43193 -0.00095
C 3.64839 10.7362 0.01572
C 3.62923 9.3603 -0.04848
C 2.42221 8.58113 -0.00892
C 2.43692 7.15392 -0.01362
C 3.63232 6.51759 -0.0008
C 3.71306 15.02819 -0.00494
C 17.74532 20.26145 0.00199
C 6.18485 6.3641 -0.01634
C 4.87985 4.22147 0.02339
C 7.33934 4.25333 -0.00891
C 7.39248 2.83855 0.02819
C 8.59437 2.18553 0.00165
C 8.63143 0.80005 -0.02971
C 7.33335 0.03609 0.02894
C 9.80818 32.71472 -0.01789
C 10.97814 31.97971 0.00444
C 10.9359 30.58229 -0.00925
C 9.77239 29.97995 0.01877
C 9.73271 28.5292 0.01363
C 10.8487 27.6455 -0.02162
C 10.78029 26.23887 0.00415
C 11.04045 19.18392 -0.0014
C 11.04185 17.8252 0.02162
C 9.93819 17.0263 0.0076
C 9.80806 15.66222 0.01241
C 11.07034 14.86654 -0.01454
C 8.64372 4.98597 -0.01046
C 8.63186 6.42151 -0.02689
C 7.36837 7.07681 -0.01536
C 7.39869 8.57048 0.03101
C 4.91757 2.93326 0.01641
C 6.1042 2.10536 -0.00719
C 6.08351 0.72312 0.01364
C 4.86068 34.06544 -0.01062
C 7.27856 32.75495 -0.00033
C 8.55849 32.02292 0.03589
C 8.55074 30.67075 -0.02759
C 7.49785 29.65538 0.0402
C 6.15845 4.9479 -0.00334
C 8.18678 28.42907 0.00572
C 7.43396 17.23883 0.00406
C 7.36511 15.73063 0.00943
C 8.55184 14.99419 0.02841
C 8.5436 13.56632 -0.01111
C 7.36942 12.78369 -0.01275
C 7.44694 11.3944 0.00985
C 8.64911 10.65392 -0.02245
C 8.68834 9.28795 -0.00428
C 8.72472 17.73553 0.03592
C 18.89828 19.21593 0.01511
C 18.59648 17.72919 -0.00478
C 17.3033 17.14393 -0.01662
C 31.83957 29.87943 -0.02142
C 31.82727 28.45229 0.0544
C 33.1188 27.70939 0.00026
C 33.1492 26.28404 0.00682
C 31.88012 25.55157 -0.01779
C 31.91255 24.06662 0.03794
C 33.18335 23.40792 0.01927
C 33.20746 22.00714 0.01574
C 31.96788 21.26949 -0.02383
C 31.95011 19.85728 -0.01429
C 33.14704 19.19419 -0.0136
C 33.03748 17.7609 0.00594
C 31.89217 17.08712 -0.02474
C 31.88872 15.61549 0.00369
C 33.15426 15.00388 0.00455
C 33.20079 13.52122 -0.00644
C 31.97218 12.84554 -0.01839
C 33.08255 30.53679 0.01428
C 33.1566 31.94749 -0.01694
C 31.93251 32.68677 0.01713
C 29.44443 34.04757 0.00346
C 30.64637 23.41637 0.03531
C 30.68134 21.9999 -0.00669
C 29.49397 21.34372 0.0101
C 29.45787 19.87972 0.01705
C 30.61724 19.09707 -0.0405
C 30.67421 17.72348 -0.01303
C 29.50044 16.98454 -0.01461
C 29.39525 15.63665 -0.02155
C 31.96593 11.38937 0.00137
C 30.59946 14.88518 -0.00944
C 30.84315 10.66645 -0.00971
C 30.82242 9.34101 0.01518
C 30.70237 6.37811 0.01908
C 30.57272 5.01278 0.07705
C 29.47841 4.25193 0.0103
C 29.46865 2.87358 0.02108
C 30.64553 2.14719 0.00716
C 30.71429 0.71541 0.00307
C 30.79066 13.58446 -0.03735
C 29.48208 24.09919 0.01836
C 33.16373 10.75087 0.00199
C 31.93634 8.55555 0.02806
C 1.19531 17.76386 0.01223
C 34.37444 17.07827 0.00648
C 0.0195 15.72064 0.02114
C 1.20411 14.98045 -0.02957
C 1.1774 13.55574 0.00343
C 34.426 12.9163 -0.02656
C 0.00072 11.47663 -0.02442
C 1.15469 10.73566 -0.00027
C 1.20747 9.32615 -0.00583
C 34.42491 8.54246 -0.02302
C 34.36753 7.13501 -0.02849
C 1.19622 6.43696 0.02931
C 1.16846 4.95149 0.00628
C 34.40245 4.20922 -0.0345
C 0.03005 2.86315 -0.00931
C 1.27874 2.14348 -0.00939
C 1.14025 0.73287 -0.00468
C 1.17023 19.20698 -0.01678
C 0.00929 19.84073 0.01951
C 34.38486 21.23896 -0.02213
C 1.18838 22.03663 0.02712
C 31.79761 7.18747 0.01504
C 33.06428 6.44802 -0.00069
C 33.16929 5.0518 0.04926
C 31.89424 4.30356 -0.03838
C 31.9344 2.91265 0.00349
C 33.16872 2.19596 -0.00323
C 33.14656 0.69133 -0.00841
C 31.91019 0.01801 0.0001
C 33.1945 9.28241 0.04381
C 0.04218 32.63778 -0.02927
C 1.14882 30.43663 0.01027
C 34.33043 29.73446 0.01831
C 34.33674 28.32396 -0.01037
C 1.20506 27.64925 -0.00439
C 1.21713 26.26183 -0.00598
C 0.05031 25.61833 -0.05239
C 0.02955 24.21966 0.03076
C 1.09583 23.24485 0.00723
C 1.15459 31.85035 -0.01404
C 3.62285 31.92514 -0.00049
C 29.47581 25.50235 -0.03039
C 30.5782 27.70115 -0.01854
C 21.93405 32.81995 0.00768
C 23.17959 32.03929 -0.0276
C 23.27249 30.5409 0.03005
C 22.07062 29.75901 -0.04078
C 22.04238 28.37214 0.02117
C 23.2545 27.68255 0.02737
C 23.24909 26.23637 -0.00498
C 22.01231 25.53555 0.00135
C 21.98008 24.12336 0.03102
C 23.19538 23.40929 0.02555
C 23.27389 21.93197 0.01423
C 21.91887 21.23782 -0.00285
C 21.70928 19.86859 -0.009
C 23.11103 19.02107 -0.01199
C 22.67471 17.69628 -0.00229
C 23.2131 0.75885 -0.00938
C 21.90592 0.19166 -0.0264
C 19.57585 0.00387 -0.00178
C 20.63963 0.93061 0.00733
C 20.0143 2.10853 -0.02118
C 19.84125 17.10913 -0.01971
C 16.97411 15.71763 -0.01185
C 17.39264 2.88657 0.01126
C 18.48975 2.16821 0.01852
C 18.29289 0.62971 -0.00381
C 17.16142 34.01635 0.03046
C 19.63879 32.62988 0.0296
C 20.82401 31.89584 0.03374
C 20.88757 30.49456 -0.02845
C 24.52419 32.61418 -0.01154
C 19.64422 29.74201 -0.03213
C 20.85219 27.68149 0.01153
C 20.73304 26.13691 0.02734
C 19.47139 25.47468 -0.0055
C 19.45584 23.87788 0.01515
C 20.75848 23.46173 -0.00225
C 20.85672 22.03269 0.00071
C 20.37492 19.16778 -0.01107
C 20.93295 17.76803 -0.01586
C 19.62624 28.32388 0.02239
C 30.70299 26.23616 -0.01415
C 25.75251 31.99947 0.00684
C 24.46253 29.88665 -0.01679
C 26.95458 24.12713 0.02198
C 28.25989 23.40987 0.01094
C 28.25095 22.0811 0.00235
C 26.96703 21.2896 0.01495
C 27.03565 19.84839 0.01259
C 28.21867 19.21186 0.01799
C 28.26038 17.80506 0.01699
C 26.9505 17.27101 -0.00416
C 27.01196 2.93531 0.01177
C 28.22718 2.24472 0.04266
C 28.271 0.81995 0.01324
C 26.9907 0.06162 0.0014
C 29.45022 32.68241 0.00924
C 30.70639 31.91075 0.02326
C 30.61759 30.56137 0.00261
C 29.42983 29.95423 0.03265
C 29.44137 28.40941 -0.02049
C 27.01923 25.52336 0.02611
C 28.22628 26.29825 -0.00621
C 28.17324 27.72068 0.00194
C 26.97364 28.43955 0.04185
C 24.5388 28.44921 0.00367
C 25.75201 27.64 0.04306
C 25.71252 26.20691 0.00996
C 24.53121 25.46233 0.00195
C 24.49554 24.09714 -0.00802
C 25.73233 23.43748 -0.00218
C 25.70881 21.97125 -0.01654
C 24.52865 21.21067 -0.00037
C 25.75043 30.49576 -0.01052
C 24.44775 19.79849 -0.0032
C 25.74673 17.60227 -0.02815
C 26.03037 2.03578 -0.00942
C 25.65863 0.74257 0.00487
C 24.45035 0.04536 0.00826
C 26.96528 32.70268 -0.00294
C 28.22071 32.0124 0.00152
C 28.24418 30.62736 0.01257
C 26.92212 29.94319 0.02316
C 25.715 19.17249 0.00622
C 2.45231 32.6976 0.00873
