439
Graphene
C 0.02304 34.01365 0.01295
C 13.40038 10.70449 -0.00334
C 13.48758 9.23343 0.02339
C 12.17452 8.55449 0.01641
C 12.17261 7.14459 -0.00719
C 13.45589 6.40265 0.01364
C 13.45452 5.00556 -0.01062
C 12.28992 4.29464 -0.00033
C 12.30984 2.85147 0.03589
C 13.50851 2.16447 -0.02759
C 13.54196 0.77261 0.0402
C 12.34441 0.05116 0.00572
C 14.69483 32.73133 0.03592
C 15.90382 31.88834 0.00406
C 15.93967 30.46884 0.00943
C 14.73659 29.82025 0.02841
C 14.75584 28.44351 -0.01111
C 15.97697 27.68601 -0.01275
C 15.96578 26.24731 0.00985
C 14.69545 25.60647 -0.02245
C 14.70491 24.12781 -0.00428
C 15.9192 23.40565 0.03101
C 15.93185 22.00551 -0.01536
C 14.69884 21.30232 -0.02689
C 12.20095 11.38453 -0.01634
C 12.2589 12.86345 0.00057
C 13.50939 13.5519 0.00093
C 13.53688 14.93652 0.01291
C 10.96456 6.42589 0.01572
C 11.05455 5.02789 -0.04848
C 9.79756 4.36824 -0.00892
C 9.84758 2.94392 -0.01362
C 11.04221 2.16471 -0.0008
C 11.06057 0.81675 0.0288
C 9.82834 34.05241 0.00393
C 12.37023 32.71071 0.00895
C 13.49756 31.89544 0.00685
C 13.49673 30.55059 0.02888
C 12.28725 29.87271 -0.00482
C 14.75853 19.90531 -0.01046
C 12.28428 28.46521 -0.01384
C 13.50422 26.30666 0.01745
C 12.27867 25.61716 0.00488
C 12.20167 24.20021 -0.01004
C 13.34635 23.40693 -0.02896
C 13.44563 22.00315 -0.00131
C 12.21342 21.27166 -0.01118
C 12.28484 19.85494 -0.014
C 13.52696 19.25276 0.02147
C 13.56167 17.8422 0.00373
C 12.28804 17.1436 -0.00191
C 12.30317 15.72255 0.00438
C 13.48743 27.74829 0.03693
C 9.78105 7.2308 -0.00095
C 15.97554 19.10808 -0.00891
C 14.70483 17.03702 0.00165
C 17.24248 19.74732 -0.01957
C 18.4587 19.13934 -0.0108
C 18.41583 17.69813 -0.00368
C 17.22601 17.06685 -0.02696
C 17.22071 15.64791 -0.00114
C 18.49327 14.87209 0.00228
C 18.41327 13.51743 0.00798
C 17.20195 12.77148 0.00422
C 17.09669 11.41333 0.0351
C 18.37789 10.65534 -0.03113
C 18.3802 9.26718 0.02098
C 17.1461 8.53469 0.01848
C 17.03977 7.07461 -0.00619
C 18.35484 6.38142 -0.02162
C 18.38613 4.91006 0.00889
C 17.14202 4.27875 -0.00481
C 17.2181 2.87622 0.00979
C 18.36757 2.14303 0.01443
C 18.46658 0.74939 0.03505
C 17.21269 34.0728 -0.02815
C 19.69429 32.65015 -0.04147
C 20.91861 31.98158 -0.05302
C 20.96236 30.58237 0.00213
C 17.23623 21.22767 0.02058
C 18.37965 21.98845 0.01965
C 18.45248 23.38635 -0.03682
C 17.21921 24.12297 0.00052
C 14.74272 15.62368 -0.02971
C 15.96122 14.95805 0.02894
C 15.93786 13.51149 -0.01789
C 14.66037 12.8345 0.00444
C 14.65274 11.43429 -0.00925
C 15.85679 10.67393 0.01877
C 15.8474 9.24381 0.01363
C 14.67604 8.54563 -0.02162
C 14.66446 7.15296 0.00415
C 15.80576 6.42087 -0.0014
C 15.90586 5.05667 0.02162
C 15.94976 17.71756 0.02819
C 14.75541 4.32424 0.0076
C 16.02326 2.17708 -0.01454
C 16.01286 0.70842 0.01945
C 14.73754 0.10857 0.01416
C 17.18883 32.58753 0.03542
C 18.4109 32.00834 0.02299
C 18.43177 30.54228 0.00244
C 17.23029 29.77081 -0.01717
C 17.18734 28.41681 0.05265
C 18.36742 27.66622 -0.01952
C 18.36748 26.19537 -0.02813
C 17.12804 25.58962 0.00374
C 14.75951 2.77821 0.01241
C 19.66874 29.87971 -0.00066
C 9.78611 8.5729 0.03007
C 11.01809 10.67479 -0.00494
C 4.90142 32.68576 0.00088
C 6.16022 32.04115 0.00828
C 6.21439 30.61138 -0.02375
C 4.95583 29.86008 0.00558
C 4.89039 28.38082 -0.0059
C 6.08529 27.75726 -0.01386
C 6.08186 26.39986 -0.02805
C 4.90203 25.54275 0.00081
C 5.15106 24.12125 0.00245
C 6.0482 17.83216 0.02728
C 4.82963 17.20092 -0.00039
C 4.88103 15.63432 0.0064
C 6.04048 15.00231 0.00211
C 6.09539 13.58976 -0.00449
C 4.84678 12.87516 -0.01979
C 4.90532 11.39546 0.02784
C 6.04184 10.69013 -0.01977
C 6.10748 9.33443 -0.00561
C 4.87605 8.45956 0.00208
C 4.88873 7.10594 0.01707
C 6.09829 6.40732 0.02769
C 6.08374 4.99382 -0.03291
C 4.82038 4.39227 -0.04999
C 2.45289 34.05151 0.04421
C 3.66366 0.70464 -0.00177
C 3.70664 2.11838 0.03278
C 2.52907 2.84907 0.01138
C 3.69225 30.57598 -0.0005
C 2.52526 29.81378 -0.00018
C 2.41386 28.42349 0.01073
C 3.64279 27.65375 0.01984
C 3.70903 26.23199 0.00535
C 2.50647 25.50354 -0.00198
C 2.59324 24.02295 -0.00012
C 3.96349 23.33429 -0.04306
C 2.66298 21.21322 -0.03672
C 2.61654 19.82676 0.01913
C 3.57692 17.8898 0.00267
C 4.89013 2.9169 0.04505
C 2.47675 17.08275 0.00787
C 3.60312 14.87377 0.01218
C 3.64706 13.48765 -0.01471
C 2.44344 12.78248 -0.02827
C 2.45743 11.32784 0.01078
C 3.68214 10.5637 -0.00112
C 3.73996 9.14347 0.03345
C 2.52554 8.54708 0.00748
C 2.44669 7.15283 0.00662
C 3.7083 6.45153 -0.0154
C 3.60168 5.02771 -0.01299
C 2.3907 4.22812 -0.00407
C 2.41545 15.60756 0.02426
C 10.99601 9.23745 0.00054
C 6.06861 2.26564 0.03284
C 4.86855 0.04457 0.03189
C 8.6112 0.7238 -0.05697
C 7.30553 0.07445 0.01087
C 9.80051 32.69437 -0.01343
C 11.10137 32.05473 0.00988
C 11.08265 30.5662 0.0276
C 9.83915 29.93072 0.01305
C 9.8222 28.45081 -0.00077
C 11.05695 27.70603 0.03368
C 10.97974 26.30901 -0.02929
C 9.78688 25.54019 -0.00966
C 9.56236 24.16154 -0.03337
C 10.87389 23.47342 0.01227
C 11.01447 22.02624 0.00873
C 9.70704 21.39336 -0.00049
C 9.71042 19.95564 0.00848
C 10.92538 19.17058 -0.01303
C 11.05554 17.74783 -0.01378
C 9.82764 17.15532 0.02635
C 9.71864 15.64954 0.0127
C 11.04917 15.08131 0.01396
C 11.06035 13.54346 0.01849
C 9.8162 12.81484 -0.01142
C 9.81986 11.40893 -0.00562
C 8.57863 2.19079 -0.00725
C 7.41004 2.95369 0.02322
C 7.46255 4.37922 -0.00094
C 8.64552 5.12273 -0.02566
C 7.37643 32.71111 0.00031
C 8.64687 31.98739 -0.003
C 8.60484 30.59189 0.01402
C 7.42421 29.94432 0.02379
C 7.36177 28.51256 0.00907
C 8.61317 27.76772 0.00643
C 8.60659 26.32314 -0.01509
C 7.22848 25.56947 0.03267
C 7.02862 24.17439 0.02374
C 8.28911 23.39512 0.00402
C 8.40896 21.97288 0.0073
C 6.09119 0.80052 -0.04307
C 8.48198 19.27206 0.0174
C 7.25705 17.19031 0.01226
C 7.23106 15.67597 -0.00279
C 8.45973 14.99159 0.01996
C 8.5247 13.5545 -0.03996
C 7.297 12.85548 0.01465
C 7.33844 11.39517 -0.00074
C 8.57191 10.68513 -0.00518
C 8.55732 9.2816 0.0086
C 7.28534 8.5954 -0.00643
C 7.35461 7.18597 0.017
C 8.53407 6.54421 -0.03113
C 8.59228 17.87004 0.03828
C 3.68393 31.96671 0.01116
C 19.59503 28.41995 -0.00289
C 20.82907 26.35661 -0.02213
C 30.61429 14.93816 -0.0405
C 30.65586 13.48942 -0.01303
C 29.45895 12.6818 -0.01461
C 29.52118 11.28469 -0.02155
C 30.72894 10.52982 -0.00944
C 30.74541 8.98095 -0.03735
C 29.54767 8.40047 -0.00971
C 29.50331 7.00217 0.01518
C 30.73612 6.29463 0.01908
C 30.69549 4.92075 0.07705
C 29.51701 4.24351 0.0103
C 29.57275 2.7406 0.02108
C 30.79891 2.11151 0.00716
C 30.76126 0.67967 0.00307
C 29.50488 0.00163 0.00346
C 32.03568 32.66251 0.01713
C 33.22462 31.95514 -0.01694
C 33.15282 30.51434 0.01428
C 31.94251 29.83389 -0.02142
C 31.98016 28.4098 0.0544
C 33.26365 27.68565 0.00026
C 33.19971 26.31072 0.00682
C 31.92423 25.6022 -0.01779
C 29.47231 15.64605 0.01705
C 29.46169 17.00862 0.0101
C 30.65325 17.71662 -0.00669
C 30.72088 19.12308 0.03531
C 28.29114 10.54518 0.00194
C 28.29532 9.10396 -0.00621
C 26.94772 8.49185 0.02611
C 27.04963 7.03991 0.02198
C 28.30615 6.37419 0.01094
C 28.21128 4.94489 0.00235
C 27.03724 4.24849 0.01495
C 27.03844 2.81936 0.01259
C 28.32354 2.13506 0.01799
C 28.27696 0.67084 0.01699
C 27.00048 0.03226 -0.00416
C 31.93118 24.08768 0.03794
C 29.53717 32.60638 0.01177
C 30.68022 30.54554 0.01324
C 29.45781 29.86743 0.0014
C 29.51326 28.47365 0.00924
C 30.74823 27.75708 0.02326
C 30.67734 26.27373 0.00261
C 29.47887 25.54585 0.03265
C 29.47126 24.16125 -0.02049
C 30.70161 23.38091 -0.01854
C 30.69611 21.97035 -0.01415
C 29.42968 21.23668 -0.03039
C 29.49066 19.83731 0.01836
C 30.77249 32.00561 0.04266
C 27.01807 11.23603 0.04185
C 33.255 23.43578 0.01927
C 31.91805 21.31753 -0.02383
C 0.0972 24.16086 0.03076
C 1.28148 23.35688 0.00723
C 1.30117 21.96548 0.02712
C 0.03477 21.33079 -0.02213
C 0.00521 19.89439 0.01951
C 1.16973 19.08552 -0.01678
C 1.14016 17.72052 0.01223
C 34.36791 17.01544 0.00648
C 34.33077 15.53425 0.02114
C 1.15514 14.87058 -0.02957
C 1.15077 13.41546 0.00343
C 34.37601 12.71025 -0.02656
C 34.36487 11.33342 -0.02442
C 1.16712 10.55965 -0.00027
C 1.21592 9.17739 -0.00583
C 34.40471 8.44074 -0.02302
C 34.37157 7.00835 -0.02849
C 1.28111 6.37521 0.02931
C 1.19597 4.95935 0.00628
C 0.02286 4.25716 -0.0345
C 0.03071 2.86726 -0.00931
C 1.25087 2.11626 -0.00939
C 1.18362 0.70644 -0.00468
C 0.04393 25.55875 -0.05239
C 1.30615 26.266 -0.00598
C 1.21585 27.66871 -0.00439
C 0.03107 28.38182 -0.01037
C 31.90014 19.91613 -0.01429
C 33.19858 19.20241 -0.0136
C 33.17462 17.78281 0.00594
C 31.89438 16.99975 -0.02474
C 31.91449 15.65397 0.00369
C 33.11491 14.84896 0.00455
C 33.1738 13.40688 -0.00644
C 31.93071 12.69484 -0.01839
C 31.94956 11.32546 0.00137
C 33.16359 10.56685 0.00199
C 33.15577 9.13605 0.04381
C 33.22891 22.05395 0.01574
C 31.97909 8.37325 0.02806
C 33.21354 6.26399 -0.00069
C 33.2051 4.91406 0.04926
C 31.97934 4.19048 -0.03838
C 32.02731 2.7624 0.00349
C 33.2482 2.12618 -0.00323
C 33.25713 0.71829 -0.00841
C 32.01312 34.06003 0.0001
C 0.03519 32.58478 -0.02927
C 1.26803 31.91757 -0.01404
C 1.259 30.55174 0.01027
C 0.02575 29.88046 0.01831
C 31.98743 6.94398 0.01504
C 20.80395 27.71932 0.00028
C 27.0835 12.64697 0.02316
C 28.20851 14.89174 0.00152
C 22.06065 29.80404 -0.04076
C 22.08489 28.4056 -0.00652
C 23.34239 27.69286 0.0058
C 23.36579 26.35271 -0.00865
C 22.05402 25.62047 0.00675
C 22.07655 24.17162 -0.00311
C 23.27411 23.46715 0.00742
C 23.23604 22.09374 -0.01594
C 22.05643 21.40421 0.0106
C 22.09387 19.91554 -0.01154
C 23.34696 19.15659 -0.01721
C 23.3627 17.70472 -0.02422
C 22.08687 17.02104 0.01277
C 22.18379 15.61097 0.00096
C 23.33509 14.82586 -0.01527
C 23.32461 13.46428 0.01087
C 22.00252 12.68734 0.00199
C 22.06874 11.32598 0.01511
C 23.28038 10.66588 -0.00478
C 23.33675 9.27906 -0.01662
C 22.09239 8.5333 -0.01185
C 22.03188 7.16062 0.01126
C 23.32019 6.38759 0.01852
C 23.32169 30.52445 -0.00703
C 23.34006 31.92204 0.00654
C 22.16153 32.66038 -0.04422
C 19.69094 0.01988 -0.02957
C 19.64656 25.54686 0.03698
C 19.66466 24.18878 -0.00109
C 20.88761 23.46368 -0.00491
C 20.8546 22.05415 0.03338
C 19.61271 21.33139 -0.0258
C 19.59685 19.92286 -0.0331
C 20.87985 19.20163 -0.00316
C 20.87399 17.72979 0.02188
C 19.62723 17.02473 -0.01979
C 19.70793 15.58091 0.02691
C 20.87214 14.86188 -0.01581
C 23.32701 4.97485 -0.00381
C 20.95622 13.50695 0.01452
C 19.59701 11.32844 -0.00111
C 20.83249 10.62271 -0.03557
C 20.80567 9.22057 0.03754
C 19.55388 8.56465 0.01739
C 19.61225 7.15715 0.00755
C 20.79309 6.50604 -0.0054
C 20.85292 5.08474 0.00667
C 19.66362 4.31088 0.00143
C 19.62705 2.80981 -0.017
C 20.86122 2.13265 0.00364
C 20.89869 0.76114 -0.00831
C 19.6391 12.77339 0.04892
C 28.24254 13.37297 0.01257
C 22.04713 4.37292 0.03046
C 23.31056 2.09738 0.03374
C 25.78451 4.94783 -0.01199
C 24.59199 4.24962 -0.00229
C 24.48028 2.84085 -0.00938
C 25.80548 2.14713 -0.0264
C 25.75004 0.71844 -0.01154
C 24.57652 0.05133 0.00684
C 27.03159 32.69431 -0.01052
C 28.21356 31.98126 -0.01679
C 28.24958 30.55038 0.00367
C 27.00427 29.74134 0.04306
C 27.06145 28.37813 0.00996
C 28.27919 27.72546 0.00195
C 28.23972 26.27078 -0.00802
C 26.93534 25.59229 -0.00218
C 27.00146 24.18365 -0.01654
C 28.27296 23.51267 -0.00037
C 28.19831 22.0715 -0.0032
C 27.01239 21.3962 0.00622
C 27.05957 19.89699 -0.02815
C 28.27744 19.12613 -0.00942
C 28.3384 17.74274 0.00487
C 26.99358 17.13965 0.00826
C 27.05649 15.63479 -0.00294
C 25.84002 6.33553 -0.009
C 24.55899 7.11075 -0.00285
C 24.52754 8.50142 0.01423
C 25.74218 9.21165 0.02555
C 23.31819 0.69954 -0.02845
C 22.05834 34.07778 -0.03213
C 24.58296 32.67238 0.02239
C 25.7619 31.94902 0.01153
C 25.84001 30.4962 0.02734
C 24.5326 29.78301 -0.0055
C 24.52648 28.38631 0.01515
C 25.78085 27.73482 -0.00225
C 25.71951 26.29917 0.00071
C 24.48891 25.54572 -0.01107
C 24.50811 24.15385 -0.01586
C 22.06496 2.86675 0.0296
C 25.76024 23.48455 -0.01971
C 24.51573 21.28064 0.00733
C 24.59392 19.96336 -0.00178
C 25.8164 19.21365 0.00768
C 25.79474 17.81009 -0.0276
C 24.60573 17.02289 0.03005
C 24.63235 15.57161 -0.04078
C 25.84194 14.87986 0.02117
C 25.86867 13.43242 0.02737
C 24.57778 12.8117 -0.00498
C 24.52727 11.42688 0.00135
C 25.77709 10.59306 0.03102
C 25.67808 22.05326 -0.02118
C 2.43925 32.68486 -0.0213
