408
Graphene
C 34.40263 34.01455 0.01295
C 13.46955 30.58157 -0.01536
C 12.2858 29.82393 -0.02689
C 12.22118 28.4325 -0.01046
C 13.42443 27.76062 -0.00891
C 13.46934 26.31492 0.02819
C 12.28513 25.54502 0.00165
C 12.42109 24.15637 -0.02971
C 13.69024 23.28436 0.02894
C 13.51959 22.0 -0.01789
C 12.30661 21.26058 0.00444
C 12.38003 19.78477 -0.00925
C 12.21511 17.05738 0.01877
C 12.50723 15.71698 0.01363
C 13.6848 14.89106 -0.02162
C 13.47745 13.41084 0.00415
C 12.27974 12.68509 -0.0014
C 12.28448 11.29946 0.02162
C 13.51927 10.51723 0.0076
C 13.48165 9.18049 0.01241
C 12.31897 8.45442 -0.01454
C 12.30835 7.06632 0.01945
C 13.50317 32.06479 0.03101
C 12.2604 32.67877 -0.00428
C 9.76884 0.13309 -0.02245
C 10.95448 0.80672 0.00985
C 9.88826 24.11222 0.00438
C 11.09551 23.42042 0.01291
C 11.06368 21.99719 0.00093
C 9.81272 21.33554 0.00057
C 9.86234 19.97713 -0.01634
C 11.11562 19.20789 -0.00334
C 11.09192 17.78484 0.02339
C 9.82632 17.1644 0.01641
C 9.93039 15.67698 -0.00719
C 11.14484 15.00214 0.01364
C 13.51858 6.43422 0.01416
C 11.09807 13.47458 -0.01062
C 9.8038 11.41298 0.03589
C 11.03811 10.63068 -0.02759
C 11.04941 9.17651 0.0402
C 9.80239 8.4742 0.00572
C 9.85816 7.08957 0.03592
C 11.07413 6.38657 0.00406
C 11.08942 4.98702 0.00943
C 9.89885 4.39959 0.02841
C 9.8117 2.98406 -0.01111
C 11.06558 2.20244 -0.01275
C 9.86547 12.78841 -0.00033
C 9.83988 25.59969 -0.00191
C 13.54259 5.01275 0.03542
C 12.32655 2.8214 0.00244
C 17.16553 32.6642 0.01443
C 18.39632 31.96674 0.03505
C 18.38911 30.57435 -0.02815
C 17.18674 29.86813 -0.04147
C 17.1842 28.40165 -0.05302
C 18.44315 27.71312 0.00213
C 18.39202 26.23917 -0.00066
C 17.17645 25.59509 -0.00289
C 18.44543 13.28227 0.00028
C 17.17263 12.8579 -0.02213
C 17.22653 11.32901 0.03698
C 18.45054 10.68357 -0.00109
C 18.45049 9.27389 -0.00491
C 17.24029 8.47612 0.03338
C 17.17901 7.1171 -0.0258
C 18.39376 6.42848 -0.0331
C 18.47948 5.03332 -0.00316
C 17.19756 4.29059 0.02188
C 17.25556 2.8707 -0.01979
C 18.40183 2.18842 0.02691
C 18.34903 0.71267 -0.01581
C 14.77091 0.02787 0.00979
C 16.01951 0.72241 -0.00481
C 16.00779 2.13746 0.00889
C 14.76813 2.78269 -0.02162
C 13.53093 2.15443 -0.01717
C 13.53995 0.74674 0.05265
C 12.20563 0.05932 -0.01952
C 14.70923 32.70868 -0.02813
C 15.94801 31.93583 0.00374
C 15.96915 30.50056 0.00052
C 14.78075 29.82429 -0.03682
C 14.71838 28.42883 0.01965
C 16.03843 27.71161 0.02058
C 15.99895 26.31964 -0.01957
C 12.35362 4.31994 0.02299
C 14.76932 25.61922 -0.0108
C 15.85862 13.27976 -0.02696
C 14.6595 12.62797 -0.00114
C 14.64032 11.25197 0.00228
C 15.99231 10.62337 0.00798
C 15.97627 9.2459 0.00422
C 14.76074 8.47543 0.0351
C 14.74569 7.06318 -0.03113
C 15.91319 6.42464 0.02098
C 15.93888 4.95812 0.01848
C 14.76943 4.20346 -0.00619
C 14.61281 24.19738 -0.00368
C 17.15373 34.06505 0.01452
C 11.06144 26.24259 0.00373
C 9.79097 28.41301 -0.014
C 2.4062 2.86782 0.01402
C 3.64984 2.17882 0.02379
C 3.61807 0.73914 0.00907
C 2.41177 0.0153 0.00643
C 4.8448 32.6818 -0.01509
C 6.07367 32.02459 0.03267
C 6.01924 30.61457 0.02374
C 4.85379 29.85577 0.00402
C 4.83733 28.46327 0.0073
C 6.07533 27.75601 0.0174
C 6.09825 26.31611 0.03828
C 4.93634 25.5433 0.01226
C 4.96668 24.20521 -0.00279
C 6.23811 23.4162 0.01996
C 6.15002 22.04332 -0.03996
C 4.87438 21.34309 0.01465
C 4.84208 19.92972 -0.00074
C 6.14848 19.24773 -0.00518
C 6.14976 17.76405 0.0086
C 4.91642 17.01259 -0.00643
C 4.90315 15.65772 0.017
C 2.44702 4.29249 -0.003
C 3.69073 4.95121 0.00031
C 3.65367 6.34998 0.03189
C 2.39514 7.08971 -0.04307
C 3.61987 30.54324 0.00558
C 2.29215 29.81262 -0.0059
C 2.38164 28.4153 -0.01386
C 3.60108 27.79957 -0.02805
C 3.62937 26.32206 0.00081
C 2.44244 25.56837 0.00245
C 2.47128 24.04119 0.02728
C 3.77517 23.3777 -0.00039
C 3.7198 21.98576 0.0064
C 2.46756 21.36023 0.00211
C 6.18147 14.9136 -0.03113
C 2.39965 19.94801 -0.00449
C 3.67479 17.77353 0.02784
C 2.45481 17.11568 -0.01977
C 2.39458 15.65519 -0.00561
C 3.65341 14.94839 0.00208
C 3.66906 13.57227 0.01707
C 2.42659 12.82708 0.02769
C 2.46764 11.33278 -0.03291
C 3.67022 10.6083 -0.04999
C 3.67451 9.27132 0.04505
C 2.40689 8.47209 0.03284
C 3.6657 19.16941 -0.01979
C 11.04852 27.7131 0.02147
C 6.13257 13.46649 -0.02566
C 4.86072 11.38257 0.02322
C 7.31233 17.06818 0.03007
C 7.3418 15.70345 -0.00095
C 8.62672 14.96492 0.01572
C 8.65659 13.53128 -0.04848
C 7.39142 12.78199 -0.00892
C 7.41756 11.38825 -0.01362
C 8.65818 10.69927 -0.0008
C 8.60765 9.22576 0.0288
C 7.37915 8.61229 0.00393
C 7.33361 7.17086 0.00895
C 8.52441 6.47883 0.00685
C 8.65522 5.0335 0.02888
C 7.42034 4.39413 -0.00482
C 7.27054 2.96959 -0.01384
C 8.55835 2.32816 0.03693
C 8.51851 0.86901 0.01745
C 7.28656 0.10162 0.00488
C 9.75735 32.76888 -0.01004
C 10.96502 32.01626 -0.02896
C 11.00625 30.62762 -0.00131
C 9.79107 29.85514 -0.01118
C 8.58246 17.85266 0.00054
C 8.60327 19.25554 -0.00494
C 7.30858 19.9625 -0.00562
C 7.42072 21.38018 -0.01142
C 6.17557 10.68687 -0.00725
C 6.09271 9.30298 -0.05697
C 4.84236 8.53624 0.01087
C 4.89514 7.06007 -0.01343
C 6.11532 6.45106 0.00988
C 6.13364 5.0698 0.0276
C 4.97606 4.30812 0.01305
C 4.92246 2.84776 -0.00077
C 6.15913 2.19128 0.03368
C 6.0664 0.7245 -0.02929
C 4.86145 12.83702 -0.00094
C 4.86826 0.05046 -0.00966
C 8.58161 31.94216 0.01227
C 8.54777 30.56339 0.00873
C 7.24639 29.79723 -0.00049
C 7.30817 28.41534 0.00848
C 8.55511 27.66157 -0.01303
C 8.55619 26.31339 -0.01378
C 7.36756 25.56969 0.02635
C 7.42919 24.18313 0.0127
C 8.59425 23.44202 0.01396
C 8.5762 22.02968 0.01849
C 7.34684 32.72569 -0.03337
C 19.57845 32.73628 0.04892
C 20.84252 32.06174 -0.00111
C 20.88842 30.55623 -0.03557
C 29.42816 8.42379 -0.00971
C 29.45859 7.07365 0.01518
C 30.69776 6.39628 0.01908
C 30.77546 4.93307 0.07705
C 29.51481 4.23395 0.0103
C 29.54398 2.85768 0.02108
C 30.76211 2.10469 0.00716
C 30.73509 0.69626 0.00307
C 29.53777 34.0175 0.00346
C 31.97725 32.57585 0.01713
C 33.26185 31.96962 -0.01694
C 33.19984 30.53021 0.01428
C 31.95439 29.81724 -0.02142
C 31.90004 28.40522 0.0544
C 33.09418 27.69194 0.00026
C 33.14159 26.22482 0.00682
C 31.87843 25.56078 -0.01779
C 31.90504 24.15053 0.03794
C 33.18877 23.43584 0.01927
C 33.17327 22.03359 0.01574
C 31.98297 21.30841 -0.02383
C 30.71725 9.17082 -0.03735
C 30.727 10.61906 -0.00944
C 29.47666 11.36067 -0.02155
C 29.47272 12.75466 -0.01461
C 28.29879 2.06586 0.01799
C 28.27687 0.68506 0.01699
C 27.00782 34.05651 -0.00416
C 29.50126 32.65427 0.01177
C 30.83784 31.91413 0.04266
C 30.75319 30.5701 0.01324
C 29.53088 29.84699 0.0014
C 29.4594 28.43224 0.00924
C 30.6747 27.68669 0.02326
C 30.714 26.32307 0.00261
C 31.94443 19.86089 -0.01429
C 29.51084 25.61615 0.03265
C 30.65544 23.45024 -0.01854
C 30.67289 22.01986 -0.01415
C 29.4946 21.24762 -0.03039
C 29.51594 19.8729 0.01836
C 30.75203 19.24236 0.03531
C 30.76664 17.77744 -0.00669
C 29.50644 17.07241 0.0101
C 29.46255 15.61358 0.01705
C 30.68381 14.90667 -0.0405
C 30.72839 13.42493 -0.01303
C 29.44453 24.18987 -0.02049
C 27.08489 2.79874 0.01259
C 33.15771 19.12918 -0.0136
C 31.92212 16.97813 -0.02474
C 1.15822 21.99382 0.02712
C 34.36238 21.26552 -0.02213
C 34.32792 19.86999 0.01951
C 1.17071 19.15624 -0.01678
C 1.2294 17.74656 0.01223
C 34.42792 17.05231 0.00648
C 34.3687 15.65222 0.02114
C 1.22492 14.90977 -0.02957
C 1.24672 13.44888 0.00343
C 34.38108 12.71897 -0.02656
C 34.42847 11.36726 -0.02442
C 1.27247 10.68273 -0.00027
C 1.27531 9.20315 -0.00583
C 34.40519 8.56151 -0.02302
C 34.43148 7.15716 -0.02849
C 1.18537 6.42691 0.02931
C 1.21495 5.0332 0.00628
C 34.41857 4.23651 -0.0345
C 34.4002 2.82474 -0.00931
C 1.19734 2.10678 -0.00939
C 1.21028 0.68887 -0.00468
C 1.18632 23.40677 0.00723
C 34.38648 24.11929 0.03076
C 34.40825 25.498 -0.05239
C 1.21408 26.27136 -0.00598
C 31.84356 15.58657 0.00369
C 33.14114 14.91787 0.00455
C 33.15426 13.45507 -0.00644
C 31.90156 12.72906 -0.01839
C 32.01301 11.33016 0.00137
C 33.24209 10.63151 0.00199
C 33.14226 9.25198 0.04381
C 32.00802 8.47055 0.02806
C 31.99727 7.05871 0.01504
C 33.22805 6.42801 -0.00069
C 33.12674 17.69296 0.00594
C 33.14979 4.96135 0.04926
C 32.01526 2.82038 0.00349
C 33.18103 2.14059 -0.00323
C 33.18417 0.68396 -0.00841
C 31.97378 34.05766 0.0001
C 0.00825 32.65347 -0.02927
C 1.20591 31.99532 -0.01404
C 1.12367 30.50422 0.01027
C 34.42568 29.72174 0.01831
C 34.4251 28.32664 -0.01037
C 1.16726 27.65128 -0.00439
C 32.01152 4.1943 -0.03838
C 27.18031 4.16246 0.01495
C 28.28693 5.00499 0.00235
C 28.30166 6.37333 0.01094
C 23.2664 27.67256 0.00096
C 23.28684 26.26055 -0.01527
C 22.0875 25.46861 0.01087
C 22.22426 24.05136 0.00199
C 23.45435 23.41301 0.01511
C 23.45271 21.97718 -0.00478
C 23.46318 19.14968 -0.01662
C 23.42839 17.78179 -0.01185
C 21.88888 15.31787 0.01126
C 23.27371 14.86215 0.01852
C 23.4185 13.47256 -0.00381
C 22.15617 12.72884 0.03046
C 22.19085 11.2888 0.0296
C 23.37722 10.49319 0.03374
C 23.30782 9.05509 -0.02845
C 22.12904 8.4139 -0.03213
C 22.36551 4.2043 0.02239
C 22.16075 2.79813 0.01153
C 23.31606 2.08513 0.02734
C 23.37821 0.71383 -0.0055
C 22.08914 0.02368 0.01515
C 22.05364 28.43755 0.01277
C 22.06456 29.85831 -0.02422
C 23.31445 30.55863 -0.01721
C 23.36893 31.94484 -0.01154
C 19.63127 29.88898 0.03754
C 19.66422 28.43263 0.01739
C 20.84956 27.73276 0.00755
C 20.86112 26.23292 -0.0054
C 19.6328 25.52255 0.00667
C 19.78789 24.19897 0.00143
C 20.97115 23.60163 -0.017
C 21.15149 13.58867 0.00364
C 19.81758 12.95164 -0.00831
C 19.74286 11.28024 -0.02957
C 24.58582 32.55783 -0.00225
C 20.90548 10.51385 -0.04422
C 19.69204 8.50898 -0.00703
C 19.59197 7.09452 -0.04076
C 20.97058 6.52384 -0.00652
C 21.25381 5.14037 0.0058
C 19.74637 4.35571 -0.00865
C 19.66619 2.92657 0.00675
C 20.83049 2.17385 -0.00311
C 20.91338 0.71275 0.00742
C 19.65005 0.02416 -0.01594
C 22.13324 32.679 0.0106
C 20.95773 9.10176 0.00654
C 25.78472 31.90093 0.00071
C 25.78896 30.43013 -0.01107
C 24.51548 29.69697 -0.01586
C 27.05508 29.81601 0.04306
C 26.99294 28.44218 0.00996
C 28.23368 27.72679 0.00195
C 28.21664 26.28794 -0.00802
C 27.04788 25.50788 -0.00218
C 27.07281 24.04744 -0.01654
C 28.27019 23.43745 -0.00037
C 28.29139 21.96065 -0.0032
C 27.07889 21.27794 0.00622
C 27.06296 19.84849 -0.02815
C 28.18774 30.49637 0.00367
C 28.299 19.17919 -0.00942
C 27.08072 17.05506 0.00826
C 27.04099 15.64523 -0.00294
C 28.29307 14.90925 0.00152
C 28.3355 13.54454 0.01257
C 27.05119 12.8416 0.02316
C 27.03799 11.33855 0.04185
C 28.25944 10.60564 0.00194
C 28.27979 9.18274 -0.00621
C 26.96773 8.46763 0.02611
C 26.98495 7.00665 0.02198
C 28.28373 17.76207 0.00487
C 3.69509 31.97894 -0.02375
C 28.33009 31.96958 -0.01679
C 24.59988 34.04969 0.00684
C 24.53185 28.29356 -0.01971
C 25.78253 27.66212 -0.02118
C 25.83474 26.29678 0.00733
C 24.61631 25.53551 -0.00178
C 24.63463 24.14541 0.00768
C 25.88631 23.39384 -0.0276
C 25.88095 22.01562 0.03005
C 24.64897 21.23019 -0.04078
C 24.57621 19.825 0.02117
C 25.78639 19.15207 0.02737
C 27.0194 32.64922 -0.01052
C 25.74592 17.69865 -0.00498
C 24.52502 15.5981 0.03102
C 25.72347 14.90111 0.02555
C 25.80626 13.47571 0.01423
C 24.63404 12.67871 -0.00285
C 24.59304 11.29149 -0.009
C 25.8994 10.61076 -0.01199
C 25.7505 9.23673 -0.00229
C 24.60492 2.85832 -0.00938
C 25.86401 2.15744 -0.0264
C 25.84628 0.74905 -0.01154
C 24.56239 17.02903 0.00135
C 2.46827 32.64619 0.00828
