326
Graphene
C 34.4108 34.06418 0.01295
C 9.82635 15.69007 0.00213
C 11.104 14.93312 -0.00066
C 11.07937 13.52198 -0.00289
C 9.82711 12.8116 0.00028
C 9.90666 11.35009 -0.02213
C 11.08426 10.65984 0.03698
C 9.62683 8.27363 -0.00109
C 9.85945 17.06023 -0.05302
C 9.85047 7.10213 -0.00491
C 9.87545 2.78718 -0.0258
C 11.13013 2.17986 -0.0331
C 11.08981 0.71547 -0.00316
C 9.8592 0.00576 0.02188
C 12.2389 32.71517 -0.01979
C 13.54726 31.93159 0.02691
C 13.35143 30.51069 -0.01581
C 9.78464 4.14948 0.03338
C 12.3634 29.89083 0.01452
C 11.21355 17.45189 -0.04147
C 9.68751 28.40545 0.03505
C 7.37984 11.35164 -0.00368
C 8.62401 10.71961 -0.02696
C 8.59209 9.22617 -0.00114
C 7.30874 8.58887 0.00228
C 7.34028 7.20651 0.00798
C 8.61418 6.33412 0.00422
C 8.63005 4.96836 0.0351
C 9.8285 19.92045 -0.02815
C 7.40188 4.29956 -0.03113
C 8.62536 2.1659 0.01848
C 8.66074 0.72938 -0.00619
C 7.44807 0.02524 -0.02162
C 9.82081 32.67068 0.00889
C 11.08926 31.95162 -0.00481
C 11.09964 30.46336 0.00979
C 9.83547 29.69063 0.01443
C 7.40607 2.85261 0.02098
C 12.35151 17.05292 0.04892
C 12.30549 15.61131 -0.00111
C 13.55328 14.97576 -0.03557
C 17.15394 32.50383 0.0106
C 18.47625 31.97802 -0.01154
C 18.43831 14.84297 -0.01721
C 18.55212 13.53759 -0.02422
C 17.21371 12.82935 0.01277
C 17.20437 11.43467 0.00096
C 18.44245 10.66861 -0.01527
C 14.69924 0.13629 -0.01594
C 18.3231 9.26705 0.01087
C 17.17016 7.08577 0.01511
C 18.40075 6.39477 -0.00478
C 18.47437 4.97786 -0.01662
C 17.17626 4.28206 -0.01185
C 17.20759 2.85006 0.01126
C 18.46685 2.20527 0.01852
C 18.40792 0.71033 -0.00381
C 17.20201 8.35383 0.00199
C 15.97269 0.68376 0.00742
C 16.04551 2.11321 -0.00311
C 14.80926 2.73167 0.00675
C 13.48319 13.47955 0.03754
C 12.2548 12.78139 0.01739
C 12.39984 11.16729 0.00755
C 13.62643 10.6345 -0.0054
C 12.2781 2.91973 0.00667
C 13.49945 2.30282 0.00143
C 13.47492 0.75996 -0.017
C 12.29095 34.0552 0.00364
C 14.7497 32.71235 -0.00831
C 15.88877 32.0329 -0.02957
C 14.86217 15.43203 -0.04422
C 15.9774 14.92551 0.00654
C 16.0564 13.58631 -0.00703
C 14.74648 12.86435 -0.04076
C 14.79093 11.28661 -0.00652
C 16.06413 10.65092 0.0058
C 15.93685 4.84288 -0.00865
C 7.34024 12.80485 -0.0108
C 8.63391 13.47259 -0.01957
C 8.61824 14.93388 0.02058
C 7.36091 15.54913 0.01965
C 2.42322 8.52545 0.01291
C 2.37102 7.08483 0.00093
C 3.62067 6.43072 0.00057
C 3.66964 4.97834 -0.01634
C 2.45649 4.20235 -0.00334
C 2.48472 2.81417 0.02339
C 3.71008 2.10899 0.01641
C 3.65376 9.19191 0.00438
C 3.60336 0.7187 -0.00719
C 4.87803 32.6379 -0.01062
C 6.17662 31.93715 -0.00033
C 6.19601 30.52603 0.03589
C 4.91662 29.9039 -0.02759
C 4.91787 28.45807 0.0402
C 6.1315 27.70944 0.00572
C 6.16112 26.25412 0.03592
C 2.40498 0.0029 0.01364
C 3.69891 10.57884 -0.00191
C 2.44479 11.33969 0.00373
C 2.47252 12.74484 0.02147
C 3.68916 30.5545 -0.01362
C 2.45773 29.79222 -0.0008
C 2.43048 28.4311 0.0288
C 3.67628 27.7266 0.00393
C 3.69416 26.32887 0.00895
C 2.48481 25.60032 0.00685
C 2.48415 24.25062 0.02888
C 3.67877 23.54129 -0.00482
C 3.65416 22.11928 -0.01384
C 2.3601 21.33781 0.03693
C 2.38192 19.90299 0.01745
C 3.64819 19.20571 0.00488
C 3.72325 17.76479 -0.01004
C 2.49377 17.00807 -0.02896
C 2.51442 15.5665 -0.00131
C 3.68209 14.83617 -0.01118
C 3.67958 13.42234 -0.014
C 4.91553 25.61291 0.00406
C 17.20655 34.06784 0.03046
C 4.9198 24.19343 0.00943
C 6.18017 22.06953 -0.01111
C 7.345 32.69052 0.02162
C 8.59484 31.95262 0.0076
C 8.61635 30.50208 0.01241
C 7.40877 29.8075 -0.01454
C 7.31181 28.3661 0.01945
C 8.60237 27.63698 0.01416
C 8.4663 26.26316 0.03542
C 4.88318 0.01688 -0.0014
C 7.33123 25.56448 0.02299
C 8.65419 23.25167 -0.01717
C 8.67083 22.04775 0.05265
C 7.43718 21.35716 -0.01952
C 7.40226 19.93971 -0.02813
C 8.66881 19.25356 0.00374
C 8.60646 17.74405 0.00052
C 7.34756 16.96172 -0.03682
C 7.42421 24.1452 0.00244
C 6.17915 0.72944 0.00415
C 6.17614 2.18136 -0.02162
C 4.91959 2.839 0.01363
C 4.85907 21.33881 -0.01275
C 4.8817 19.94246 0.00985
C 6.1914 19.20932 -0.02245
C 6.17829 17.73846 -0.00428
C 4.91382 17.06359 0.03101
C 4.90363 15.59033 -0.01536
C 6.11454 14.864 -0.02689
C 6.07283 13.41778 -0.01046
C 4.88884 12.7336 -0.00891
C 4.89812 11.34569 0.02819
C 6.13407 10.68348 0.00165
C 6.0645 9.29633 -0.02971
C 4.9076 8.52816 0.02894
C 4.90549 7.04827 -0.01789
C 6.15861 6.44677 0.00444
C 6.14748 5.01483 -0.00925
C 4.90407 4.29741 0.01877
C 6.1545 23.45165 0.02841
C 19.64412 32.58542 0.0296
C 20.93095 32.00379 0.03374
C 20.93096 13.49574 -0.02845
C 33.21882 26.3181 0.00682
C 31.96616 25.63878 -0.01779
C 31.94442 24.23941 0.03794
C 33.18031 23.56044 0.01927
C 33.1578 22.12043 0.01574
C 31.85581 21.25347 -0.02383
C 32.01626 19.88258 -0.01429
C 33.17537 27.67676 0.00026
C 33.18121 19.18229 -0.0136
C 31.96914 17.06704 -0.02474
C 31.99601 15.69139 0.00369
C 33.21907 14.94243 0.00455
C 33.15783 13.5345 -0.00644
C 31.98046 12.77132 -0.01839
C 31.92063 11.4044 0.00137
C 33.1509 10.6726 0.00199
C 33.29219 17.7299 0.00594
C 31.86979 28.42124 0.0544
C 31.95018 29.85021 -0.02142
C 33.14814 30.57117 0.01428
C 30.69852 14.93811 -0.0405
C 30.77275 13.48245 -0.01303
C 29.52281 12.7822 -0.01461
C 29.44817 11.37963 -0.02155
C 30.63864 10.69012 -0.00944
C 30.65892 9.18803 -0.03735
C 29.48177 8.49051 -0.00971
C 29.41893 7.06471 0.01518
C 30.66644 6.40639 0.01908
C 30.68351 4.95097 0.07705
C 29.49459 4.32305 0.0103
C 29.54156 2.84467 0.02108
C 30.76462 2.11462 0.00716
C 30.7604 0.67765 0.00307
C 29.48096 0.02078 0.00346
C 31.99524 32.65919 0.01713
C 33.19632 31.95099 -0.01694
C 33.19755 9.2156 0.04381
C 29.53967 15.56895 0.01705
C 31.88725 8.57405 0.02806
C 33.17844 6.47612 -0.00069
C 0.00227 17.00346 0.00648
C 0.09342 15.57292 0.02114
C 1.30813 14.926 -0.02957
C 1.24555 13.48403 0.00343
C 34.39499 12.87318 -0.02656
C 34.39584 11.38782 -0.02442
C 1.1982 10.64386 -0.00027
C 1.25184 17.70285 0.01223
C 1.19156 9.2753 -0.00583
C 0.03327 7.06322 -0.02849
C 1.23738 6.33708 0.02931
C 1.2409 4.91122 0.00628
C 34.40063 4.32154 -0.0345
C 0.027 2.87136 -0.00931
C 1.23024 2.14892 -0.00939
C 1.17492 0.72198 -0.00468
C 0.02307 8.53114 -0.02302
C 1.14297 19.11817 -0.01678
C 34.40524 19.89548 0.01951
C 34.36088 21.37706 -0.02213
C 33.1584 5.04453 0.04926
C 31.94572 4.26234 -0.03838
C 31.99049 2.75722 0.00349
C 33.25302 2.15884 -0.00323
C 33.25417 0.73637 -0.00841
C 32.00889 34.06228 0.0001
C 0.0384 32.66718 -0.02927
C 1.25233 31.91239 -0.01404
C 1.1782 30.53504 0.01027
C 34.39838 29.82504 0.01831
C 34.38518 28.36881 -0.01037
C 1.22882 27.75209 -0.00439
C 1.25587 26.3374 -0.00598
C 0.0326 25.59743 -0.05239
C 0.06268 24.25911 0.03076
C 1.23799 23.50488 0.00723
C 1.19304 22.06499 0.02712
C 31.89272 7.12159 0.01504
C 3.65281 31.99511 -0.00892
C 30.91796 17.89957 0.0101
C 30.8972 23.39399 0.03531
C 22.07929 7.07735 0.00135
C 23.29401 6.36597 0.03102
C 23.42972 4.9802 0.02555
C 22.12516 4.2726 0.01423
C 22.08308 2.81412 -0.00285
C 23.33809 2.04821 -0.009
C 23.28889 0.64613 -0.01199
C 22.07493 8.46847 -0.00498
C 22.06937 34.07992 -0.00229
C 25.78052 31.84276 -0.0264
C 25.7889 30.42176 -0.01154
C 24.46941 29.69163 0.00684
C 24.59117 28.30946 -0.01052
C 25.80097 27.89399 -0.01679
C 25.74563 13.46217 0.00367
C 24.74598 12.80287 0.04306
C 24.50991 32.55665 -0.00938
C 23.33296 9.25914 0.02737
C 23.31168 10.68642 0.02117
C 22.1217 11.47785 -0.04078
C 19.7481 12.84266 -0.03213
C 19.63122 11.31996 0.02239
C 20.86073 10.68469 0.01153
C 20.97744 9.31692 0.02734
C 19.66817 8.59295 -0.0055
C 19.63024 7.17941 0.01515
C 20.84412 6.44282 -0.00225
C 20.91984 4.99365 0.00071
C 19.68388 4.29439 -0.01107
C 19.68079 2.85006 -0.01586
C 20.85036 2.07109 -0.01971
C 20.845 0.68697 -0.02118
C 19.66239 0.00181 0.00733
C 22.08788 32.6597 -0.00178
C 23.33094 31.90878 0.00768
C 23.35082 30.49739 -0.0276
C 21.88386 12.7631 0.03005
C 24.4768 11.4206 0.00996
C 30.83799 22.18934 -0.00669
C 25.6939 10.63962 0.00195
C 24.5305 8.44896 -0.00218
C 27.0416 7.05802 0.01799
C 28.246 6.36437 0.01699
C 28.22964 4.93411 -0.00416
C 27.07438 4.19601 0.01177
C 27.09772 2.80646 0.04266
C 28.34737 2.11471 0.01324
C 28.25922 0.70729 0.0014
C 27.04218 8.47711 0.01259
C 27.01109 34.04844 0.00924
C 30.72373 31.95546 0.00261
C 30.73519 30.57162 0.03265
C 29.56246 29.84996 -0.02049
C 29.46015 28.35708 -0.01854
C 30.67085 27.63552 -0.01415
C 30.6253 26.20608 -0.03039
C 29.41829 25.49677 0.01836
C 29.41813 32.69624 0.02326
C 28.24027 9.23936 0.01495
C 28.19722 10.65492 0.00235
C 26.92547 11.37267 0.01094
C 24.5704 7.06779 -0.01654
C 25.7982 6.37201 -0.00037
C 25.82588 4.88791 -0.0032
C 24.64365 4.17239 0.00622
C 24.6316 2.76176 -0.02815
C 25.87661 2.07805 -0.00942
C 25.82142 0.6608 0.00487
C 24.57936 34.03808 0.00826
C 26.99033 32.59161 -0.00294
C 28.22391 31.9277 0.00152
C 28.35384 30.46566 0.01257
C 27.13581 29.74248 0.02316
C 27.06223 28.28744 0.04185
C 28.23549 27.5952 0.00194
C 28.5175 26.22593 -0.00621
C 28.35318 13.49478 0.02611
C 27.08065 12.94164 0.02198
C 25.76659 9.12527 -0.00802
C 2.48618 32.70751 -0.04848
