239
Graphene
C 34.36775 0.01203 0.01295
C 14.06822 8.38602 -0.01586
C 11.63243 12.03798 -0.01107
C 12.4251 12.96733 0.00071
C 13.67777 21.65854 -0.00225
C 13.5208 30.47125 0.01515
C 13.4447 31.87414 -0.0055
C 12.26135 32.55354 0.02734
C 9.84367 34.07554 0.01153
C 11.04217 0.68515 0.02239
C 11.00262 2.13956 -0.03213
C 9.78748 2.88218 -0.02845
C 9.70845 4.26442 0.03374
C 12.5654 8.33612 -0.01971
C 10.98262 4.8766 0.0296
C 9.86186 7.10535 -0.00381
C 9.96388 8.49643 0.01852
C 11.41167 9.22484 0.01126
C 11.09351 10.60524 -0.01185
C 10.03211 11.31099 -0.01662
C 11.03077 32.0176 -0.00478
C 9.80308 32.66417 0.01511
C 7.38919 34.02105 0.00199
C 8.61677 0.72725 0.01087
C 8.52182 2.13697 -0.01527
C 7.34162 2.85103 0.00096
C 7.33252 4.27685 0.01277
C 11.08642 6.27988 0.03046
C 8.49096 5.06589 -0.02422
C 12.2611 6.95331 -0.02118
C 13.48961 4.9262 -0.00178
C 18.46006 30.63672 -0.00802
C 18.45353 32.01832 0.00195
C 17.20374 32.72208 0.00996
C 14.68546 34.07976 0.04306
C 15.99725 0.6839 0.00367
C 15.98223 2.1 -0.01679
C 14.76855 2.77676 -0.01052
C 14.72788 4.15411 0.00684
C 15.86456 5.11741 -0.01154
C 15.74104 6.47296 -0.0264
C 14.7799 7.28035 -0.00938
C 14.59189 20.34102 -0.00229
C 13.58465 6.32274 0.00733
C 15.53215 20.97831 -0.01199
C 16.09402 23.7841 -0.00285
C 16.17809 25.94989 0.01423
C 16.72602 27.17017 0.02555
C 14.72993 29.93379 0.03102
C 16.0559 30.51843 0.00135
C 15.93556 31.96048 -0.00498
C 14.63671 32.63835 0.02737
C 12.29863 34.05914 0.02117
C 13.48222 0.70435 -0.04078
C 13.44549 2.16838 0.03005
C 12.25464 2.84926 -0.0276
C 12.26404 4.28379 0.00768
C 15.64786 22.60253 -0.009
C 17.25026 29.86564 -0.00218
C 8.6206 6.44682 -0.01721
C 7.48526 8.57349 0.0106
C 3.64256 0.83755 -0.0331
C 3.63276 2.22498 -0.0258
C 2.36563 2.86442 0.03338
C 2.38712 4.26981 -0.00491
C 3.6533 4.99981 -0.00109
C 3.68283 6.47157 0.03698
C 2.45005 7.16024 -0.02213
C 2.43477 8.58638 0.00028
C 3.66688 9.32358 -0.00289
C 3.62879 10.76261 -0.00066
C 2.47648 11.48572 0.00213
C 2.55031 12.89261 -0.05302
C 2.37855 0.07453 -0.00316
C 3.78595 13.4469 -0.04147
C 2.22453 17.08073 0.03505
C 2.32608 19.84235 0.01443
C 2.38276 21.23727 0.00979
C 3.48815 22.01916 -0.00481
C 3.81262 23.38648 0.00889
C 2.32615 24.07437 -0.02162
C 2.40987 25.53385 -0.00619
C 3.71839 26.26689 0.01848
C 3.62391 27.7274 0.02098
C 2.41191 28.33838 -0.03113
C 2.35062 29.81221 0.0351
C 3.61355 30.54813 0.00422
C 2.4716 15.96248 -0.02815
C 7.40284 7.1769 -0.01154
C 4.80191 32.7261 0.02188
C 5.99382 30.5354 0.02691
C 8.74917 9.27995 -0.01594
C 8.64439 10.75512 0.00742
C 7.44583 11.41871 -0.00311
C 7.31345 29.87808 0.00675
C 8.35581 30.54376 -0.00865
C 8.58369 31.92076 0.0058
C 7.40281 32.67463 -0.00652
C 4.86136 0.10776 -0.04076
C 6.15602 0.70386 -0.00703
C 6.09161 2.0817 0.00654
C 4.90903 2.9662 -0.04422
C 4.86926 4.31452 -0.02957
C 6.109 31.99818 -0.01979
C 6.14077 4.98559 -0.00831
C 5.01359 7.21809 -0.017
C 4.99845 8.57615 0.00143
C 6.23004 9.37085 0.00667
C 6.18506 10.77808 -0.0054
C 4.93801 11.42071 0.00755
C 4.87652 12.7957 0.01739
C 4.86977 24.23281 0.03754
C 5.00207 25.51979 -0.03557
C 6.08201 26.4751 -0.00111
C 5.96373 27.7286 0.04892
C 4.82175 28.47292 0.01452
C 4.8368 29.90498 -0.01581
C 6.19482 6.40485 0.00364
C 3.54201 31.98105 0.00798
C 17.31904 28.47044 -0.01654
C 15.4985 24.85612 -0.0032
C 34.39905 32.69963 -0.02927
C 31.94834 0.00731 0.0001
C 33.15259 0.70441 -0.00841
C 33.12399 2.17508 -0.00323
C 31.96101 2.8711 0.00349
C 31.8974 4.28671 -0.03838
C 33.16368 5.11242 0.04926
C 33.1309 6.54967 -0.00069
C 31.83857 7.24959 0.01504
C 31.90623 8.61774 0.02806
C 33.12266 9.37366 0.04381
C 33.08924 10.80681 0.00199
C 1.16452 31.91503 -0.01404
C 31.82519 11.57848 0.00137
C 33.26663 13.57911 -0.00644
C 33.37197 14.98804 0.00455
C 32.42943 16.08939 0.00369
C 32.9101 17.44234 -0.02474
C 33.17208 26.33939 0.00594
C 33.00609 27.64037 -0.0136
C 31.87664 28.40395 -0.01429
C 31.90584 29.79359 -0.02383
C 33.1035 30.45117 0.01574
C 33.15964 31.87983 0.01927
C 31.93798 32.63079 0.03794
C 29.46913 34.04327 -0.01779
C 31.81784 13.07039 -0.01839
C 30.70145 0.64923 0.00682
C 1.16804 30.53026 0.01027
C 34.35018 28.30643 -0.01037
C 1.0836 0.76161 -0.00468
C 1.16002 2.18015 -0.00939
C 34.35795 2.87733 -0.00931
C 34.30895 4.32305 -0.0345
C 1.16899 5.01586 0.00628
C 1.1843 6.46643 0.02931
C 34.42824 7.21453 -0.02849
C 34.40958 8.63624 -0.02302
C 1.20512 9.27783 -0.00583
C 1.22895 10.76751 -0.00027
C 34.38247 11.4309 -0.02442
C 0.05204 12.84516 -0.02656
C 34.32818 29.75686 0.01831
C 1.33129 13.5342 0.00343
C 0.1518 15.69952 0.02114
C 34.32796 17.06239 0.00648
C 1.0466 17.78897 0.01223
C 1.07685 19.17916 -0.01678
C 0.05123 20.10097 0.01951
C 34.38256 21.31489 -0.02213
C 1.11078 22.02705 0.02712
C 1.12838 23.4201 0.00723
C 0.01981 24.18422 0.03076
C 34.29281 25.55173 -0.05239
C 1.13832 26.25616 -0.00598
C 1.1702 27.64018 -0.00439
C 1.3571 14.99596 -0.02957
C 18.52379 27.77749 -0.00037
C 30.70368 2.14386 0.00026
C 29.46254 4.25279 -0.02142
C 24.47861 32.71451 0.00924
C 22.13391 0.04416 0.0014
C 23.31963 0.77556 0.01324
C 23.37004 2.25347 0.04266
C 22.12812 2.99869 0.01177
C 22.18198 4.53738 -0.00416
C 23.43856 5.03382 0.01699
C 23.80128 30.54295 0.01799
C 23.31214 32.00255 0.01259
C 22.11948 32.68347 0.01495
C 19.66507 0.0137 0.00235
C 20.93861 0.66705 0.01094
C 25.65362 31.82502 0.02326
C 20.84634 2.24238 0.02198
C 19.63584 4.45581 -0.00621
C 20.88041 4.9937 0.00194
C 19.64735 29.85978 0.04185
C 20.7668 30.48682 0.02316
C 20.92945 31.99976 0.01257
C 19.68348 32.7223 0.00152
C 17.19639 0.05646 -0.00294
C 18.45591 0.8004 0.00826
C 18.43108 2.20505 0.00487
C 17.13785 2.90208 -0.00942
C 17.15773 4.36056 -0.02815
C 18.31249 5.08121 0.00622
C 19.68876 2.90095 0.02611
C 29.46768 2.79253 0.0544
C 24.86662 30.46215 0.00261
C 24.66521 4.35874 -0.02049
C 30.6614 5.00507 0.01428
C 30.60203 6.45772 -0.01694
C 29.28806 7.14812 0.01713
C 29.49707 8.59364 0.00346
C 30.53687 9.42971 0.00307
C 30.70583 10.78629 0.00716
C 31.06168 14.13259 0.02108
C 31.24481 15.32061 0.0103
C 29.39214 29.96597 0.07705
C 30.69362 30.53244 0.01908
C 30.60872 31.9133 0.01518
C 29.31387 32.62753 -0.00971
C 25.87947 4.8468 0.03265
C 26.92376 34.01325 -0.03735
C 28.18644 2.05037 -0.02155
C 27.02884 2.83728 -0.01461
C 27.10065 4.1914 -0.01303
C 28.25719 4.95819 -0.0405
C 28.23745 6.35131 0.01705
C 28.34946 30.44007 0.0101
C 28.12581 31.8739 -0.00669
C 26.84125 32.55296 0.03531
C 24.57123 34.06463 0.01836
C 25.78214 0.69799 -0.03039
C 25.82908 2.12706 -0.01415
C 24.59919 2.87373 -0.01854
C 28.16844 0.63379 -0.00944
C 2.31101 32.72763 0.00228
