435
Graphene
C 0.01514 0.01615 0.01295
C 13.56901 17.75651 0.01641
C 12.30295 17.08764 -0.00719
C 12.28631 15.65918 0.01364
C 13.5599 14.93686 -0.01062
C 13.54145 13.52377 -0.00033
C 12.3026 12.79147 0.03589
C 12.26843 11.32552 -0.02759
C 13.50675 10.65417 0.0402
C 13.50498 9.16618 0.00572
C 12.26677 8.53209 0.03592
C 12.31716 7.12828 0.00406
C 13.53236 6.35787 0.00943
C 13.53409 4.98056 0.02841
C 12.31357 4.23974 -0.01111
C 12.28489 2.92365 -0.01275
C 13.53839 2.1186 0.00985
C 13.52446 0.68274 -0.02245
C 12.24493 0.00089 -0.00428
C 14.78843 32.62651 0.03101
C 15.94193 31.91924 -0.01536
C 15.96739 30.54708 -0.02689
C 14.78607 29.81857 -0.01046
C 14.78067 28.42108 -0.00891
C 13.49276 19.22004 0.02339
C 16.01796 27.70025 0.02819
C 12.33478 19.90328 -0.00334
C 13.54495 22.01511 0.00057
C 9.82238 12.78917 -0.01362
C 9.81689 11.39998 -0.0008
C 11.08373 10.64486 0.0288
C 11.09217 9.26769 0.00393
C 9.8528 8.57835 0.00895
C 9.82233 7.12587 0.00685
C 11.06259 6.40652 0.02888
C 11.076 4.93695 -0.00482
C 9.82773 4.22854 -0.01384
C 9.86476 2.85053 0.03693
C 11.10419 2.10491 0.01745
C 11.03244 0.68888 0.00488
C 9.79353 0.02701 -0.01004
C 12.30075 32.67281 -0.02896
C 13.49713 31.9673 -0.00131
C 13.5585 30.4989 -0.01118
C 12.32714 29.82474 -0.014
C 12.29042 28.41812 0.02147
C 13.54768 27.71322 0.00373
C 13.51088 26.34905 -0.00191
C 12.32571 25.57091 0.00438
C 12.26812 24.11916 0.01291
C 13.54894 23.41328 0.00093
C 12.30608 21.35143 -0.01634
C 15.99388 26.26719 0.00165
C 14.74039 25.58864 -0.02971
C 14.74394 24.15132 0.02894
C 18.46803 21.99829 -0.00368
C 17.25233 21.30927 -0.02696
C 17.22121 19.85254 -0.00114
C 18.45506 19.18801 0.00228
C 18.44901 17.73817 0.00798
C 17.20455 17.04228 0.00422
C 17.19522 15.59269 0.0351
C 18.42836 14.87636 -0.03113
C 18.44979 9.19013 0.02098
C 17.23923 8.48291 0.01848
C 17.21516 7.13265 -0.00619
C 18.41516 6.40636 -0.02162
C 18.41662 4.98744 0.00889
C 17.15903 4.29747 -0.00481
C 17.19176 2.85443 0.00979
C 18.44967 2.15905 0.01443
C 18.45068 0.67344 0.03505
C 17.21903 34.06755 -0.02815
C 19.69891 32.69516 -0.04147
C 20.90239 31.99494 -0.05302
C 20.91923 30.52932 0.00213
C 19.66597 29.81659 -0.00066
C 19.68424 28.37951 -0.00289
C 18.42893 23.41836 -0.0108
C 17.19724 24.14001 -0.01957
C 17.24851 25.54707 0.02058
C 18.43953 26.27558 0.01965
C 15.95894 23.45655 -0.01789
C 15.95563 22.01592 0.00444
C 14.74599 21.29292 -0.00925
C 14.72721 19.8816 0.01877
C 16.00311 19.17991 0.01363
C 16.01071 17.71914 -0.02162
C 14.71625 17.04084 0.00415
C 14.77151 15.59571 -0.0014
C 15.9719 14.9123 0.02162
C 14.76637 8.47628 0.0076
C 14.72997 7.08745 0.01241
C 11.09355 13.47021 -0.00892
C 16.02719 6.371 -0.01454
C 14.72509 4.32215 0.01416
C 14.76022 2.81772 0.03542
C 16.01285 2.13107 0.02299
C 15.99004 0.70612 0.00244
C 14.77037 0.02993 -0.01717
C 17.23905 32.60648 0.05265
C 18.42078 31.93671 -0.01952
C 18.41321 30.53074 -0.02813
C 17.20352 29.80543 0.00374
C 17.19596 28.39397 0.00052
C 18.47034 27.7384 -0.03682
C 15.98623 4.95445 0.01945
C 20.95933 27.7097 0.00028
C 11.04423 14.9123 -0.04848
C 9.84745 17.0283 -0.00095
C 3.67388 2.15896 0.00558
C 3.68982 0.73879 -0.0059
C 2.48517 34.04282 -0.01386
C 4.89309 32.64325 -0.02805
C 6.13571 31.96908 0.00081
C 6.17377 30.4926 0.00245
C 4.95875 29.83638 0.02728
C 4.87918 28.3993 -0.00039
C 6.16692 27.66759 0.0064
C 6.16377 26.23593 0.00211
C 4.89339 25.52739 -0.00449
C 4.92127 21.31951 -0.01979
C 4.90008 19.88914 0.02784
C 6.139 19.15274 -0.01977
C 6.13546 17.75316 -0.00561
C 4.96023 17.03713 0.00208
C 4.91209 15.60897 0.01707
C 6.19555 14.94041 0.02769
C 6.13804 13.44046 -0.03291
C 4.927 12.81469 -0.04999
C 4.91428 11.37232 0.04505
C 6.12733 10.63038 0.03284
C 6.15196 9.23342 -0.04307
C 2.44676 2.83321 -0.02375
C 4.92472 8.50144 0.03189
C 2.47911 4.29638 0.00828
C 3.68391 6.42454 0.04421
C 3.69947 30.52338 0.00535
C 2.45141 29.79338 -0.00198
C 2.45813 28.42649 -0.00012
C 3.71767 27.67447 -0.04306
C 3.68396 26.2232 -0.03672
C 2.45459 25.58802 0.01913
C 2.47161 24.17064 0.00267
C 3.6654 23.47905 0.00787
C 3.7118 22.00651 0.02426
C 2.5092 21.31557 0.01218
C 2.47235 19.89298 -0.01471
C 3.64872 19.11143 -0.02827
C 3.6904 17.73855 0.01078
C 2.4422 17.03531 -0.00112
C 2.44965 15.56304 0.03345
C 3.70656 14.86902 0.00748
C 3.68516 13.47434 0.00662
C 2.42709 12.79422 -0.0154
C 2.46676 11.30925 -0.01299
C 3.70718 10.65946 -0.00407
C 3.7138 9.23395 0.01138
C 2.52007 8.5174 0.03278
C 2.4415 7.06814 -0.00177
C 3.69024 4.97253 0.00088
C 4.93896 7.11694 0.00031
C 6.13903 6.41517 -0.003
C 6.10522 5.00755 0.01402
C 7.38925 7.10101 0.00988
C 8.5879 6.44433 0.0276
C 8.60102 5.00343 0.01305
C 7.38817 4.30749 -0.00077
C 7.35985 2.90344 0.03368
C 8.62208 2.13315 -0.02929
C 8.61992 0.72933 -0.00966
C 7.32246 34.07635 -0.03337
C 9.84757 32.685 0.01227
C 11.11264 31.97278 0.00873
C 11.08638 30.51201 -0.00049
C 9.81565 29.83741 0.00848
C 9.84974 28.43057 -0.01303
C 11.08298 27.73149 -0.01378
C 11.05118 26.25901 0.02635
C 9.8212 25.6005 0.0127
C 9.8312 24.11445 0.01396
C 11.08913 23.44351 0.01849
C 11.06912 22.05181 -0.01142
C 9.81363 21.29197 -0.00562
C 9.87289 19.87936 -0.00494
C 11.09587 19.13693 0.00054
C 11.06594 17.74096 0.03007
C 7.35369 8.50844 -0.01343
C 8.61356 9.25086 0.01087
C 8.58989 10.68593 -0.05697
C 7.34732 11.32866 -0.00725
C 4.88655 4.28131 0.02379
C 4.91046 2.83655 0.00907
C 6.1528 2.16768 0.00643
C 6.0978 0.71431 -0.01509
C 4.9324 0.00456 0.03267
C 7.39768 32.66076 0.02374
C 8.64667 31.94846 0.00402
C 8.6123 30.54844 0.0073
C 7.39725 29.8227 0.0174
C 7.37249 28.41632 0.03828
C 8.61633 27.6695 0.01226
C 9.80312 15.63567 0.01572
C 8.5469 26.3014 -0.00279
C 8.57701 23.47005 -0.03996
C 8.63661 22.01526 0.01465
C 7.37978 21.26816 -0.00074
C 7.42575 19.87114 -0.00518
C 8.64007 19.1883 0.0086
C 8.59936 17.75999 -0.00643
C 7.38146 17.06787 0.017
C 7.38799 15.61193 -0.03113
C 8.61043 14.90251 -0.02566
C 8.58608 13.51236 -0.00094
C 7.38684 12.78033 0.02322
C 7.40137 25.52407 0.01996
C 3.71202 31.91617 0.01984
C 20.93565 26.27634 -0.02213
C 19.66617 24.11549 -0.00109
C 30.78536 14.89336 -0.0405
C 30.71832 13.50159 -0.01303
C 29.53036 12.76556 -0.01461
C 29.50945 11.33597 -0.02155
C 30.73623 10.63907 -0.00944
C 30.7272 9.25095 -0.03735
C 29.47866 8.53609 -0.00971
C 29.51833 7.10156 0.01518
C 30.75903 6.37795 0.01908
C 30.76995 4.97356 0.07705
C 29.49134 4.26649 0.0103
C 29.55847 2.84734 0.02108
C 30.74317 2.07148 0.00716
C 30.75621 0.69785 0.00307
C 29.53908 34.04392 0.00346
C 31.92919 32.64618 0.01713
C 33.21688 31.93725 -0.01694
C 33.20901 30.53326 0.01428
C 31.97563 29.81159 -0.02142
C 32.01194 28.43297 0.0544
C 33.20068 27.70723 0.00026
C 33.21128 26.30029 0.00682
C 31.94515 25.56292 -0.01779
C 29.52045 15.61173 0.01705
C 31.97925 24.14826 0.03794
C 29.52561 17.06145 0.0101
C 30.75476 19.15519 0.03531
C 28.26794 9.21782 -0.00621
C 27.06379 8.5502 0.02611
C 27.0549 7.10577 0.02198
C 28.32425 6.41393 0.01094
C 28.26844 4.92527 0.00235
C 27.021 4.23699 0.01495
C 27.05313 2.85059 0.01259
C 28.32737 2.11942 0.01799
C 28.24312 0.67823 0.01699
C 27.02873 34.0755 -0.00416
C 29.47851 32.63384 0.01177
C 30.75008 31.92741 0.04266
C 30.73279 30.49769 0.01324
C 29.51445 29.84433 0.0014
C 29.52086 28.40778 0.00924
C 30.77013 27.66421 0.02326
C 30.71965 26.25217 0.00261
C 29.48187 25.51821 0.03265
C 29.47952 24.09325 -0.02049
C 30.75374 23.45563 -0.01854
C 30.76249 22.00817 -0.01415
C 29.55514 21.31207 -0.03039
C 29.50061 19.88191 0.01836
C 30.76045 17.7442 -0.00669
C 33.21699 23.45019 0.01927
C 33.20146 22.00323 0.01574
C 31.98749 21.3059 -0.02383
C 34.4233 24.17192 0.03076
C 1.23571 23.44941 0.00723
C 1.2198 22.02878 0.02712
C 34.41184 21.27958 -0.02213
C 34.41701 19.88094 0.01951
C 1.23599 19.19474 -0.01678
C 1.21405 17.78076 0.01223
C 0.00641 16.97974 0.00648
C 34.42192 15.5941 0.02114
C 1.1957 14.8996 -0.02957
C 1.23047 13.51495 0.00343
C 0.02602 12.74959 -0.02656
C 34.37463 11.33957 -0.02442
C 1.19902 10.67858 -0.00027
C 1.24788 9.22353 -0.00583
C 34.41725 8.49519 -0.02302
C 34.41003 7.11326 -0.02849
C 1.22801 6.34272 0.02931
C 1.2273 4.9474 0.00628
C 0.02231 4.23601 -0.0345
C 34.42996 2.82016 -0.00931
C 1.26847 2.11154 -0.00939
C 1.25048 0.69344 -0.00468
C 34.41067 25.58226 -0.05239
C 1.24902 26.27081 -0.00598
C 1.25793 27.64596 -0.00439
C 0.00109 28.44444 -0.01037
C 31.93429 19.8857 -0.01429
C 33.16904 19.16585 -0.0136
C 33.18287 17.7229 0.00594
C 31.9565 17.05821 -0.02474
C 32.0223 15.58473 0.00369
C 33.23459 14.88226 0.00455
C 33.17654 13.48086 -0.00644
C 31.91969 12.75422 -0.01839
C 31.97185 11.32861 0.00137
C 33.18404 10.63046 0.00199
C 33.20042 9.21442 0.04381
C 28.31507 10.62384 0.00194
C 32.00386 8.50157 0.02806
C 33.18932 6.40028 -0.00069
C 33.21652 4.93434 0.04926
C 31.95602 4.24625 -0.03838
C 31.96898 2.88605 0.00349
C 33.22313 2.08629 -0.00323
C 33.24355 0.66497 -0.00841
C 31.96298 34.06032 0.0001
C 34.42383 32.64856 -0.02927
C 1.23823 31.96933 -0.01404
C 1.23493 30.5098 0.01027
C 0.01225 29.82236 0.01831
C 31.93609 7.11398 0.01504
C 19.67537 25.58235 0.03698
C 27.08913 11.33933 0.04185
C 28.32678 13.50751 0.01257
C 22.19033 28.43576 -0.00652
C 23.37629 27.70425 0.0058
C 23.37943 26.21825 -0.00865
C 22.14663 25.56715 0.00675
C 22.1404 24.14937 -0.00311
C 23.36068 23.45972 0.00742
C 23.37021 21.96824 -0.01594
C 22.15098 21.29456 0.0106
C 22.10812 19.91381 -0.01154
C 23.34793 19.16251 -0.01721
C 23.35504 17.7605 -0.02422
C 22.12612 17.06099 0.01277
C 22.10199 15.56837 0.00096
C 23.36439 14.94748 -0.01527
C 23.40101 13.46513 0.01087
C 22.17276 12.74608 0.00199
C 22.07943 11.32837 0.01511
C 23.38492 10.6651 -0.00478
C 23.33997 9.21572 -0.01662
C 22.2033 8.53549 -0.01185
C 22.15015 7.0927 0.01126
C 23.35512 6.35701 0.01852
C 23.37578 4.9418 -0.00381
C 22.10588 29.81991 -0.04076
C 22.09774 4.25472 0.03046
C 23.32447 30.49843 -0.00703
C 22.11434 32.67317 -0.04422
C 20.91786 23.38318 -0.00491
C 20.83677 21.97864 0.03338
C 19.68554 21.30192 -0.0258
C 19.64514 19.87601 -0.0331
C 20.85605 19.18016 -0.00316
C 20.88436 17.76886 0.02188
C 19.69835 17.03741 -0.01979
C 19.67915 15.63771 0.02691
C 20.90364 14.91929 -0.01581
C 20.91402 13.44331 0.01452
C 19.69631 12.75284 0.04892
C 19.69713 11.36517 -0.00111
C 20.88931 10.62684 -0.03557
C 20.97789 9.27671 0.03754
C 19.69256 8.51152 0.01739
C 19.63645 7.0596 0.00755
C 20.91755 6.3671 -0.0054
C 20.89485 4.99714 0.00667
C 19.66265 4.26008 0.00143
C 19.68222 2.82256 -0.017
C 20.94734 2.18829 0.00364
C 20.94312 0.72792 -0.00831
C 19.67318 0.02319 -0.02957
C 23.3521 31.94871 0.00654
C 22.14846 2.86328 0.0296
C 23.3608 2.11406 0.03374
C 23.34802 0.68703 -0.02845
C 24.55221 4.26975 -0.00229
C 24.62278 2.84811 -0.00938
C 25.7976 2.13458 -0.0264
C 25.8618 0.72641 -0.01154
C 24.59672 34.07459 0.00684
C 27.04187 32.65396 -0.01052
C 28.34372 31.95355 -0.01679
C 28.24975 30.54423 0.00367
C 27.08212 29.81915 0.04306
C 27.04545 28.41232 0.00996
C 28.29173 27.72226 0.00195
C 28.30046 26.2664 -0.00802
C 27.05241 25.56582 -0.00218
C 27.09411 24.15005 -0.01654
C 28.26209 23.43918 -0.00037
C 28.31804 22.03032 -0.0032
C 27.04687 21.31509 0.00622
C 27.05758 19.84586 -0.02815
C 28.29415 19.12337 -0.00942
C 28.24571 17.71429 0.00487
C 27.06863 17.03142 0.00826
C 27.03244 15.62374 -0.00294
C 28.25478 14.91002 0.00152
C 25.83914 4.93921 -0.01199
C 25.80208 6.39449 -0.009
C 24.61664 7.07553 -0.00285
C 24.56213 8.48386 0.01423
C 22.11716 34.06202 -0.03213
C 24.59866 32.73078 0.02239
C 25.85891 31.97532 0.01153
C 25.77511 30.45383 0.02734
C 24.59911 29.80792 -0.0055
C 24.58729 28.44279 0.01515
C 25.80223 27.69935 -0.00225
C 25.79926 26.3322 0.00071
C 24.60046 25.52723 -0.01107
C 24.61118 24.1144 -0.01586
C 25.83122 23.43865 -0.01971
C 27.03771 12.75989 0.02316
C 25.81013 21.98634 -0.02118
C 24.60938 19.85972 -0.00178
C 25.79359 19.16447 0.00768
C 25.82989 17.79648 -0.0276
C 24.57358 17.0449 0.03005
C 24.54092 15.62868 -0.04078
C 25.79362 14.9051 0.02117
C 25.80732 13.49646 0.02737
C 24.60008 12.81342 -0.00498
C 24.59254 11.38365 0.00135
C 25.84791 10.67836 0.03102
C 25.79219 9.19552 0.02555
C 24.58367 21.32723 0.00733
C 2.44879 32.62937 0.01073
