383
Graphene
C 34.31142 0.08297 0.01295
C 11.11027 5.01315 0.0076
C 9.77834 4.368 0.01241
C 9.79723 2.91753 -0.01454
C 10.96115 2.2134 0.01945
C 10.96102 0.82125 0.01416
C 9.7588 0.04621 0.03542
C 12.25183 32.6338 0.02299
C 13.44846 31.95645 0.00244
C 13.42426 30.4684 -0.01717
C 11.06193 6.49349 0.02162
C 12.25143 29.80399 0.05265
C 13.38851 27.66673 -0.02813
C 13.39251 26.2778 0.00374
C 12.15949 25.5426 0.00052
C 12.22599 24.16588 -0.03682
C 13.47655 23.42026 0.01965
C 13.47675 21.92903 0.02058
C 12.22387 21.26166 -0.01957
C 12.3322 19.86104 -0.0108
C 13.51742 19.18079 -0.00368
C 12.21613 28.33448 -0.01952
C 13.53269 17.71636 -0.02696
C 9.7534 7.17368 -0.0014
C 11.06085 9.24445 -0.02162
C 10.94417 30.59755 0.02841
C 9.74277 29.90902 -0.01111
C 9.80107 28.48171 -0.01275
C 11.0823 27.67155 0.00985
C 10.89479 26.29062 -0.02245
C 9.75181 25.54683 -0.00428
C 9.72442 24.1447 0.03101
C 10.99582 23.41427 -0.01536
C 10.98669 22.01444 -0.02689
C 9.79654 8.55232 0.00415
C 9.8135 21.31524 -0.01046
C 11.04171 19.13655 0.02819
C 11.09651 17.78637 0.00165
C 9.88529 17.13434 -0.02971
C 9.89473 15.62431 0.02894
C 11.09042 14.90035 -0.01789
C 11.06384 13.4134 0.00444
C 9.83015 12.74262 -0.00925
C 9.78887 11.36465 0.01877
C 11.03843 10.6673 0.01363
C 9.82683 19.90953 -0.00891
C 11.00129 32.05901 0.00943
C 12.27951 17.04529 -0.00114
C 13.55952 14.79449 0.00798
C 16.03025 21.87994 -0.0258
C 14.71657 21.23352 -0.0331
C 14.77228 19.89572 -0.00316
C 16.01352 19.09275 0.02188
C 15.96901 17.73834 -0.01979
C 14.71115 17.0476 0.02691
C 14.77007 15.51221 -0.01581
C 16.01567 14.89878 0.01452
C 16.04483 13.45968 0.04892
C 15.96909 23.37397 0.03338
C 14.87779 12.73234 -0.00111
C 16.1206 10.6432 0.03754
C 16.18231 9.28694 0.01739
C 14.84019 8.63855 0.00755
C 14.80587 7.18541 -0.0054
C 15.99985 6.40661 0.00667
C 16.00061 4.9615 0.00143
C 14.77078 4.26757 -0.017
C 14.74276 2.89767 0.00364
C 15.98605 2.13391 -0.00831
C 14.82417 11.34224 -0.03557
C 12.36851 15.5313 0.00228
C 14.69051 24.06486 -0.00491
C 15.9755 26.23981 0.03698
C 13.5481 13.3871 0.00422
C 12.27433 12.715 0.0351
C 12.28052 11.32881 -0.03113
C 13.56763 10.6749 0.02098
C 13.55774 9.31466 0.01848
C 12.35436 8.57314 -0.00619
C 12.30161 7.16071 -0.02162
C 13.54287 6.42473 0.00889
C 13.5324 4.9892 -0.00481
C 14.72376 25.54017 -0.00109
C 12.30245 4.265 0.00979
C 13.45317 2.1336 0.03505
C 13.37177 0.70998 -0.02815
C 12.19017 0.01431 -0.04147
C 14.70314 32.62721 -0.05302
C 15.87036 31.87994 0.00213
C 15.94187 30.47579 -0.00066
C 14.70232 29.81852 -0.00289
C 14.66952 28.35887 0.00028
C 15.90339 27.64868 -0.02213
C 12.27138 2.85145 0.01443
C 15.98701 0.64413 -0.02957
C 9.75519 32.73872 0.00406
C 8.53339 0.78053 0.00572
C 3.52303 5.0175 -0.00094
C 2.24335 4.32719 0.02322
C 2.30737 2.88434 -0.00725
C 3.55804 2.20501 -0.05697
C 3.58974 0.82106 0.01087
C 2.39923 0.08019 -0.01343
C 4.9047 32.83412 0.00988
C 6.09305 32.12141 0.0276
C 6.02069 30.67254 0.01305
C 3.49419 6.45228 -0.02566
C 4.87173 29.85801 -0.00077
C 6.08051 27.7585 -0.02929
C 6.13461 26.36348 -0.00966
C 4.89853 25.63692 -0.03337
C 5.02295 24.32128 0.01227
C 6.17762 23.54051 0.00873
C 6.15486 22.12646 -0.00049
C 4.945 21.30558 0.00848
C 4.90233 19.87209 -0.01303
C 6.08971 19.20717 -0.01378
C 4.88971 28.47032 0.03368
C 6.12367 17.69368 0.02635
C 2.31995 7.1989 -0.03113
C 3.44801 9.33567 -0.00643
C 3.64395 30.58384 -0.003
C 2.3356 29.93697 0.01402
C 2.42753 28.48218 0.02379
C 3.67981 27.85031 0.00907
C 3.77641 26.31221 0.00643
C 2.4095 25.62884 -0.01509
C 2.54193 24.19562 0.03267
C 3.77423 23.54955 0.02374
C 3.80823 22.11522 0.00402
C 2.23499 8.65985 0.017
C 2.52957 21.39896 0.0073
C 3.69749 19.17467 0.03828
C 3.61435 17.73877 0.01226
C 2.37862 17.09329 -0.00279
C 2.43646 15.6472 0.01996
C 3.66367 14.90445 -0.03996
C 3.53034 13.51011 0.01465
C 2.23519 12.83816 -0.00074
C 2.14628 11.41772 -0.00518
C 3.47247 10.76775 0.0086
C 2.56066 19.9614 0.0174
C 7.26238 0.1818 0.03592
C 4.85275 17.06048 0.0127
C 6.19993 14.93728 0.01849
C 8.63507 22.02417 -0.01118
C 7.31843 21.35381 -0.014
C 7.31379 19.94816 0.02147
C 8.55658 19.20227 0.00373
C 8.61765 17.85334 -0.00191
C 7.38702 17.10939 0.00438
C 7.36526 15.67956 0.01291
C 8.68001 14.94206 0.00093
C 8.64541 13.50686 0.00057
C 8.53753 23.41203 -0.00131
C 7.34652 12.71881 -0.01634
C 8.52107 10.7207 0.02339
C 8.55293 9.26609 0.01641
C 7.31215 8.57 -0.00719
C 7.29268 7.18162 0.01364
C 8.52615 6.51086 -0.01062
C 8.51385 5.10092 -0.00033
C 7.24019 4.39264 0.03589
C 7.25385 2.95826 -0.02759
C 8.53646 2.20344 0.0402
C 7.27972 11.37724 -0.00334
C 4.94299 15.57029 0.01396
C 7.36457 24.23939 -0.02896
C 8.63205 26.32333 0.00488
C 6.15652 13.52592 -0.01142
C 4.81417 12.8413 -0.00562
C 4.7082 11.42251 -0.00494
C 6.04228 10.67243 0.00054
C 6.01366 9.23039 0.03007
C 4.76997 8.5974 -0.00095
C 4.72574 7.20608 0.01572
C 6.00032 6.51836 -0.04848
C 6.03998 5.10969 -0.00892
C 7.34633 25.64212 -0.01004
C 4.77256 4.3629 -0.01362
C 5.99043 2.2994 0.0288
C 5.99004 0.91115 0.00393
C 4.78719 0.15015 0.00895
C 7.30359 32.76872 0.00685
C 8.58232 32.04612 0.02888
C 8.5003 30.6318 -0.00482
C 7.28476 29.87965 -0.01384
C 7.29511 28.37434 0.03693
C 8.57096 27.70668 0.01745
C 4.72148 3.03092 -0.0008
C 3.67691 32.06244 0.00031
C 14.60378 0.00984 -0.04422
C 18.37982 31.83241 -0.00703
C 29.40686 29.81662 0.0103
C 29.42975 28.37168 0.02108
C 30.71786 27.74219 0.00716
C 30.68875 26.2828 0.00307
C 29.42341 25.519 0.00346
C 29.46747 24.08862 0.01713
C 30.694 23.41986 -0.01694
C 30.83059 22.03655 0.01428
C 29.67408 11.3978 -0.02142
C 30.6213 30.54788 0.07705
C 30.56004 2.14916 0.0544
C 29.30826 34.03262 0.00682
C 31.80458 32.74025 -0.01779
C 33.06503 32.02666 0.03794
C 33.04893 30.59608 0.01927
C 31.84129 29.79214 0.01574
C 31.88196 28.41921 -0.02383
C 33.1464 27.85378 -0.01429
C 33.18543 26.32399 -0.0136
C 31.90792 25.52489 0.00594
C 30.50809 0.72222 0.00026
C 31.94405 24.08865 -0.02474
C 30.56842 31.97734 0.01908
C 26.86157 34.03469 -0.00971
C 24.5765 24.10563 0.0014
C 25.7709 23.3413 0.00924
C 25.46318 10.95565 0.02326
C 24.61206 2.90948 0.00261
C 25.84335 2.12433 0.03265
C 25.73635 0.72742 -0.02049
C 24.59651 34.06571 -0.01854
C 26.86944 32.62374 -0.01415
C 28.11492 31.95205 -0.03039
C 29.32101 32.64004 0.01518
C 28.13078 30.4694 0.01836
C 26.99167 28.37947 -0.00669
C 28.14157 27.71315 0.0101
C 28.16702 26.26714 0.01705
C 26.98614 25.59586 -0.0405
C 26.98987 24.10052 -0.01303
C 28.2135 23.46531 -0.01461
C 26.61208 11.04981 -0.02155
C 27.72162 2.11146 -0.00944
C 28.13992 0.80619 -0.03735
C 26.86033 29.83363 0.03531
C 24.53212 25.49734 0.01324
C 33.20427 23.34971 0.00369
C 31.80642 21.43645 -0.00644
C 34.42725 21.21246 -0.02213
C 0.04819 19.80397 0.01951
C 1.36554 19.33097 -0.01678
C 1.31022 17.94858 0.01223
C 34.35198 17.31722 0.00648
C 34.23196 15.9607 0.02114
C 1.09394 15.12304 -0.02957
C 1.0238 13.70697 0.00343
C 34.13675 12.90769 -0.02656
C 1.25273 22.00699 0.02712
C 34.12297 11.55045 -0.02442
C 0.97064 9.33663 -0.00583
C 34.10511 8.64724 -0.02302
C 34.23383 7.23904 -0.02849
C 1.10838 6.55605 0.02931
C 1.04364 5.07898 0.00628
C 34.20235 4.33283 -0.0345
C 34.21891 2.92059 -0.00931
C 1.05976 2.1832 -0.00939
C 1.16964 0.7466 -0.00468
C 0.90079 10.80926 -0.00027
C 33.26241 21.92875 0.00455
C 1.21729 23.43019 0.00723
C 34.42571 25.59953 -0.05239
C 33.76558 18.45485 -0.01839
C 33.12884 15.19483 0.00137
C 32.85835 13.68106 0.00199
C 31.75823 12.94968 0.04381
C 31.44179 11.45982 0.02806
C 32.76554 10.61561 0.01504
C 32.91606 9.29091 -0.00069
C 33.05623 6.27046 0.04926
C 32.95012 5.03492 -0.03838
C 0.01905 24.13607 0.03076
C 31.69124 2.79685 0.00349
C 33.00131 0.81157 -0.00841
C 31.75587 0.06943 0.0001
C 34.30504 32.71853 -0.02927
C 1.1343 32.07842 -0.01404
C 1.1366 30.65162 0.01027
C 34.28087 29.99998 0.01831
C 34.35653 28.55911 -0.01037
C 1.20423 27.76258 -0.00439
C 1.27176 26.34698 -0.00598
C 32.94366 2.27924 -0.00323
C 17.14508 32.62053 0.00654
C 25.77844 26.20261 0.04266
C 24.55376 28.44581 -0.00416
C 18.48648 4.97609 0.03046
C 17.2222 4.29705 0.0296
C 17.20196 2.85914 0.03374
C 18.43464 2.15346 -0.02845
C 18.43094 0.6766 -0.03213
C 17.21487 34.07814 0.02239
C 19.61813 32.65695 0.01153
C 20.71481 31.85195 0.02734
C 20.77956 30.47763 -0.0055
C 18.51456 6.37681 -0.00381
C 19.55007 29.71526 0.01515
C 20.83387 27.61355 0.00071
C 20.84225 26.16673 -0.01107
C 19.58524 25.40463 -0.01586
C 19.61966 24.04393 -0.01971
C 20.93279 23.39231 -0.02118
C 20.97737 22.00503 0.00733
C 19.82574 21.20958 -0.00178
C 19.68832 19.78384 0.00768
C 21.11463 19.01168 -0.0276
C 19.63933 28.26193 -0.00225
C 20.85098 17.66683 0.03005
C 17.26004 7.14104 0.01852
C 18.66569 9.23333 -0.01185
C 18.34426 30.45511 -0.04076
C 17.15924 29.76351 -0.00652
C 17.1377 28.33987 0.0058
C 18.35854 27.56487 -0.00865
C 18.31015 26.11597 0.00675
C 17.1187 25.44608 -0.00311
C 17.15135 24.02755 0.00742
C 18.44069 23.3247 -0.01594
C 18.51204 21.9346 0.0106
C 17.46227 8.58302 0.01126
C 17.32605 21.22774 -0.01154
C 18.44241 19.03808 -0.02422
C 18.48579 17.61163 0.01277
C 17.19917 16.99757 0.00096
C 17.21001 15.56756 -0.01527
C 18.51579 14.84051 0.01087
C 18.54946 13.41171 0.00199
C 17.27911 12.75722 0.01511
C 17.32152 11.38082 -0.00478
C 18.68366 10.59067 -0.01662
C 17.18402 19.80144 -0.01721
C 25.69831 27.66854 0.01177
C 19.68431 16.89579 -0.04078
C 20.95202 14.91296 0.02737
C 23.4932 21.90852 0.00622
C 22.23783 21.22567 -0.02815
C 22.24079 19.83824 -0.00942
C 22.33127 12.78028 0.00487
C 22.44207 11.50662 0.00826
C 23.40455 10.59202 -0.00294
C 23.60246 9.28278 0.00152
C 22.54581 8.56505 0.01257
C 22.36522 7.08262 0.02316
C 23.42515 23.39244 -0.0032
C 23.29762 6.07888 0.04185
C 22.27812 4.15705 -0.00621
C 22.17928 2.69275 0.02611
C 23.40077 2.06077 0.02198
C 23.25786 0.60465 0.01094
C 21.99697 33.98717 0.00235
C 24.47479 32.60846 0.01495
C 25.70309 31.93876 0.01259
C 25.71418 30.53746 0.01799
C 24.488 29.85409 0.01699
C 23.54605 4.71808 0.00194
C 19.73743 15.48632 0.02117
C 22.16992 24.1248 -0.00037
C 23.31781 26.28605 -0.00218
C 21.11185 13.57823 -0.00498
C 19.83349 12.78243 0.00135
C 20.01239 11.4037 0.03102
C 21.26079 10.66434 0.02555
C 21.18441 9.27361 0.01423
C 19.91628 8.52718 -0.00285
C 19.70471 7.12851 -0.009
C 20.92985 6.32938 -0.01199
C 20.94381 4.92057 -0.00229
C 22.12753 25.53895 -0.01654
C 19.76312 4.21849 -0.00938
C 20.89506 2.05513 -0.01154
C 20.84157 0.66885 0.00684
C 19.67146 34.0197 -0.01052
C 22.01103 32.56556 -0.01679
C 23.21775 31.89732 0.00367
C 23.24136 30.49134 0.04306
C 22.00152 29.73055 0.00996
C 22.04006 28.36358 0.00195
C 23.32629 27.67453 -0.00802
C 19.66196 2.78347 -0.0264
C 2.39568 32.70274 0.03189
