348
Graphene
C 0.00808 34.05852 0.01295
C 9.84079 17.03103 0.00422
C 9.82255 15.66713 0.0351
C 11.08162 14.96723 -0.03113
C 11.14962 13.5322 0.02098
C 9.93243 12.81885 0.01848
C 9.86582 11.39407 -0.00619
C 11.05016 10.59964 -0.02162
C 10.95376 9.17083 0.00889
C 9.76695 8.40022 -0.00481
C 9.86888 7.00108 0.00979
C 11.10696 6.36996 0.01443
C 11.12785 4.97651 0.03505
C 9.86908 4.28693 -0.02815
C 9.86447 2.86309 -0.04147
C 11.14973 2.15759 -0.05302
C 11.03178 0.7705 0.00213
C 9.85125 34.03914 -0.00066
C 11.08935 17.70546 0.00798
C 11.18531 19.10327 0.00228
C 9.83427 19.85546 -0.00114
C 9.79653 21.28079 -0.02696
C 8.60233 6.37206 -0.01454
C 8.57451 4.93488 0.01945
C 7.32285 4.31197 0.01416
C 7.39549 2.92559 0.03542
C 8.62026 2.17103 0.02299
C 8.64965 0.74289 0.00244
C 7.41394 0.06051 -0.01717
C 9.78813 32.59773 0.05265
C 12.33902 32.70057 -0.00289
C 11.12181 32.01443 -0.01952
C 9.8098 29.90055 0.00374
C 9.80145 28.45671 0.00052
C 10.9617 27.69667 -0.03682
C 11.03495 26.2718 0.01965
C 9.88512 25.55773 0.02058
C 9.91773 24.0931 -0.01957
C 11.13171 23.37002 -0.0108
C 11.05442 21.94223 -0.00368
C 11.09693 30.58634 -0.02813
C 13.48426 31.90423 0.00028
C 13.46802 30.49593 -0.02213
C 12.25553 29.78532 0.03698
C 12.32519 2.85403 -0.00831
C 13.54586 2.10635 -0.02957
C 13.55755 0.72653 -0.04422
C 12.3126 0.0598 0.00654
C 14.80003 32.6485 -0.00703
C 16.07348 31.82472 -0.04076
C 15.97963 30.44859 -0.00652
C 14.81874 29.78748 0.0058
C 12.35029 4.2131 0.00364
C 14.63081 28.41238 -0.00865
C 14.69685 25.62356 -0.00311
C 14.7825 24.15068 0.00742
C 15.98608 23.51449 -0.01594
C 15.971 21.88021 0.0106
C 14.75035 21.32858 -0.01154
C 14.75618 7.07141 -0.01721
C 16.11011 4.77167 -0.02422
C 14.74748 4.27479 0.01277
C 15.93781 26.18243 0.00675
C 7.42196 7.09685 0.01241
C 13.51981 4.98298 -0.017
C 12.30362 7.16987 0.00667
C 12.22818 28.46296 -0.00109
C 13.46945 27.75767 -0.00491
C 13.47507 26.3075 0.03338
C 12.2607 25.56558 -0.0258
C 12.35627 24.16752 -0.0331
C 13.60799 23.40798 -0.00316
C 13.57606 22.01213 0.02188
C 12.31097 21.29554 -0.01979
C 13.57678 6.47366 0.00143
C 12.35153 19.86271 0.02691
C 12.40169 15.67879 0.01452
C 13.45628 14.72742 0.04892
C 13.41449 13.51134 -0.00111
C 12.37608 12.74108 -0.03557
C 12.35179 11.35551 0.03754
C 13.43733 10.51566 0.01739
C 13.40385 9.32674 0.00755
C 12.22015 8.56546 -0.0054
C 12.22827 17.00641 -0.01581
C 14.77064 2.87895 0.00096
C 7.31115 8.55377 0.0076
C 8.62489 10.63352 -0.0014
C 2.47013 7.09195 -0.01362
C 3.68089 6.3363 -0.0008
C 3.64558 4.96052 0.0288
C 2.44041 4.15332 0.00393
C 2.4346 2.7793 0.00895
C 3.69819 2.15144 0.00685
C 3.75234 0.76778 0.02888
C 2.52768 0.06908 -0.00482
C 4.94475 32.65871 -0.01384
C 6.14859 31.9654 0.03693
C 6.13249 30.57857 0.01745
C 4.90406 29.81955 0.00488
C 4.91003 28.39887 -0.01004
C 6.15111 27.71783 -0.02896
C 6.10875 26.31307 -0.00131
C 4.87281 25.62059 -0.01118
C 4.97713 24.18223 -0.014
C 2.41916 8.54414 -0.00892
C 3.68174 9.26035 -0.04848
C 3.73726 10.65284 0.01572
C 2.43779 11.35684 -0.00095
C 3.60736 30.58757 -0.02929
C 2.40678 29.84608 -0.00966
C 2.44136 28.43925 -0.03337
C 3.64518 27.68001 0.01227
C 3.58897 26.22371 0.00873
C 2.39248 25.55917 -0.00049
C 2.49205 24.12705 0.00848
C 3.72101 23.43604 -0.01303
C 6.15571 23.43075 0.02147
C 3.71411 22.04438 -0.01378
C 2.42247 19.9025 0.0127
C 3.65888 19.25027 0.01396
C 3.67806 17.75168 0.01849
C 2.44671 17.01723 -0.01142
C 2.46825 15.60537 -0.00562
C 3.69529 14.92535 -0.00494
C 3.69329 13.46363 0.00054
C 2.43571 12.79141 0.03007
C 2.52369 21.34104 0.02635
C 6.14831 22.02185 0.00373
C 4.90761 21.29342 -0.00191
C 4.80372 19.96994 0.00438
C 7.35449 29.83306 -0.02245
C 7.40347 28.40787 -0.00428
C 8.60153 27.66969 0.03101
C 8.67929 26.2504 -0.01536
C 7.39062 25.64364 -0.02689
C 7.35544 24.15981 -0.01046
C 8.574 23.43577 -0.00891
C 8.56741 22.01333 0.02819
C 8.55504 30.52242 0.00985
C 7.3305 21.25418 0.00165
C 8.58109 19.16947 0.02894
C 8.62876 17.73368 -0.01789
C 7.37872 17.12659 0.00444
C 7.3883 15.66981 -0.00925
C 8.61783 14.91578 0.01877
C 8.68937 13.50169 0.01363
C 7.44206 12.81626 -0.02162
C 7.42378 11.28025 0.00415
C 7.35609 19.8613 -0.02971
C 8.55932 9.19698 0.02162
C 8.55487 31.88119 -0.01275
C 4.98347 34.02806 0.02841
C 6.09935 19.23373 0.01291
C 6.10599 17.81176 0.00093
C 4.91685 17.08752 0.00057
C 4.88485 15.61023 -0.01634
C 6.10689 14.95665 -0.00334
C 6.21187 13.5228 0.02339
C 4.9758 12.77721 0.01641
C 4.88562 11.38261 -0.00719
C 7.38599 32.70459 -0.01111
C 6.10882 10.60463 0.01364
C 4.87898 8.50553 -0.00033
C 4.91877 7.1224 0.03589
C 6.16853 6.47572 -0.02759
C 6.0884 5.08714 0.0402
C 4.90002 4.38849 0.00572
C 4.90465 2.94096 0.03592
C 6.12635 2.2219 0.00406
C 6.1696 0.78093 0.00943
C 6.05471 9.19391 -0.01062
C 15.97854 2.12685 -0.01527
C 16.00551 0.70968 0.01087
C 14.77603 0.00201 0.00199
C 33.13858 30.51706 0.01428
C 31.94197 29.85776 -0.02142
C 31.94881 28.4616 0.0544
C 33.18115 27.71015 0.00026
C 33.14321 26.29125 0.00682
C 31.96507 25.54697 -0.01779
C 31.93291 24.11952 0.03794
C 33.16762 23.47681 0.01927
C 33.21649 22.12203 0.01574
C 31.9745 21.30748 -0.02383
C 32.01713 19.90042 -0.01429
C 33.21048 19.16946 -0.0136
C 33.19131 17.7542 0.00594
C 31.93054 17.04752 -0.02474
C 31.89003 15.67115 0.00369
C 33.10314 14.90686 0.00455
C 33.08611 13.50584 -0.00644
C 33.13257 31.95682 -0.01694
C 31.98452 32.71178 0.01713
C 29.50538 0.0288 0.00346
C 30.7182 0.78593 0.00307
C 30.73571 22.02514 0.01836
C 29.47105 21.30674 0.03531
C 29.50664 19.9014 -0.00669
C 30.80107 19.20648 0.0101
C 30.78083 17.79823 0.01705
C 29.53086 16.99331 -0.0405
C 29.52421 15.67666 -0.01303
C 30.61434 14.85899 -0.01461
C 31.94989 12.72587 -0.01839
C 30.79828 13.54646 -0.02155
C 30.69356 9.25787 -0.03735
C 29.69759 8.38254 -0.00971
C 29.51294 7.17496 0.01518
C 30.67453 6.39037 0.01908
C 30.76172 4.99132 0.07705
C 29.54022 4.30733 0.0103
C 29.44288 2.82011 0.02108
C 30.74611 2.21026 0.00716
C 30.79481 10.66339 -0.00944
C 32.01894 11.3488 0.00137
C 33.24522 10.61767 0.00199
C 33.2985 9.2163 0.04381
C 1.1898 19.1772 -0.01678
C 1.20311 17.73177 0.01223
C 34.37189 17.03301 0.00648
C 34.39383 15.57392 0.02114
C 1.22307 14.8651 -0.02957
C 1.16204 13.4139 0.00343
C 34.34677 12.81859 -0.02656
C 34.4299 11.32123 -0.02442
C 0.00072 19.94791 0.01951
C 1.21459 10.62718 -0.00027
C 0.04351 8.51993 -0.02302
C 0.02379 7.09727 -0.02849
C 1.24662 6.33975 0.02931
C 1.25394 4.89774 0.00628
C 34.43215 4.22857 -0.0345
C 34.41212 2.7975 -0.00931
C 1.19699 2.07941 -0.00939
C 1.19424 0.70895 -0.00468
C 1.21884 9.24628 -0.00583
C 30.6898 23.42472 -0.03039
C 0.02489 21.38801 -0.02213
C 1.22417 23.43585 0.00723
C 31.9828 8.60013 0.02806
C 31.96029 7.15377 0.01504
C 33.18822 6.42611 -0.00069
C 33.25654 5.01117 0.04926
C 32.0097 4.31117 -0.03838
C 31.99017 2.83741 0.00349
C 33.2147 2.13511 -0.00323
C 33.24387 0.73856 -0.00841
C 1.30885 22.03269 0.02712
C 31.97018 0.06295 0.0001
C 1.20831 31.90119 -0.01404
C 1.13673 30.51632 0.01027
C 34.38703 29.81134 0.01831
C 34.40774 28.37809 -0.01037
C 1.2106 27.7065 -0.00439
C 1.12627 26.22903 -0.00598
C 34.34144 25.53725 -0.05239
C 34.3963 24.15203 0.03076
C 34.41787 32.60189 -0.02927
C 29.54076 24.16606 -0.01415
C 29.52313 25.61682 -0.01854
C 30.79283 26.32823 -0.02049
C 22.07393 32.69482 -0.02118
C 23.20985 31.83669 0.00733
C 23.30222 30.51172 -0.00178
C 23.34882 26.24717 0.00768
C 22.34068 25.54814 -0.0276
C 22.0863 24.17331 0.03005
C 23.39011 23.52604 -0.04078
C 23.36 22.05547 0.02117
C 19.65071 34.00819 -0.01971
C 22.13705 21.27191 0.02737
C 23.35971 19.21888 0.00135
C 22.14627 2.8578 0.03102
C 23.3744 2.24834 0.02555
C 23.34414 0.69595 0.01423
C 22.07318 34.03394 -0.00285
C 24.52275 32.70128 -0.009
C 25.73692 32.0303 -0.01199
C 25.8609 30.54362 -0.00229
C 22.05843 19.67807 -0.00498
C 24.44819 29.74761 -0.00938
C 20.86312 0.73135 -0.01586
C 19.63999 2.8422 0.00071
C 17.31849 32.60918 0.01511
C 16.93452 25.50432 -0.00478
C 17.27567 24.15246 -0.01662
C 18.4755 23.49001 -0.01185
C 18.36023 21.937 0.01126
C 17.22965 21.36922 0.01852
C 17.13795 4.21797 -0.00381
C 17.24205 2.82416 0.03046
C 20.91499 2.25751 -0.01107
C 18.44428 2.06165 0.0296
C 17.22772 33.97848 -0.02845
C 19.62375 32.68667 -0.03213
C 19.6378 24.03456 0.02239
C 20.84996 23.45727 0.01153
C 20.93169 22.0206 0.02734
C 19.63792 21.27343 -0.0055
C 19.64577 19.86893 0.01515
C 20.69128 19.28024 -0.00225
C 18.43297 0.67851 0.03374
C 3.72612 31.93978 0.03368
C 24.67484 28.37872 -0.0264
C 25.86583 26.27441 0.00684
C 28.18237 21.942 -0.00621
C 26.95403 21.21813 0.02611
C 27.05485 19.80576 0.02198
C 28.28244 19.11193 0.01094
C 28.28988 17.64609 0.00235
C 27.01135 17.10731 0.01495
C 28.20557 4.84484 0.01259
C 27.19558 4.28561 0.01799
C 28.31774 23.41535 0.00194
C 26.97202 2.86962 0.01699
C 28.2929 0.69039 0.01177
C 27.06211 34.00838 0.04266
C 29.56532 32.65425 0.01324
C 30.78376 31.9196 0.0014
C 30.73242 30.51617 0.00924
C 29.51467 29.7949 0.02326
C 29.58522 28.38185 0.00261
C 30.8028 27.69404 0.03265
C 28.20806 2.15745 -0.00416
C 25.75665 27.6566 -0.01154
C 27.10144 24.12442 0.04185
C 28.287 26.31834 0.01257
C 24.62273 25.67676 -0.01052
C 24.57384 24.19774 -0.01679
C 25.90936 23.39715 0.00367
C 25.78734 21.95905 0.04306
C 24.56643 21.3855 0.00996
C 24.5255 19.94814 0.00195
C 25.73832 19.16107 -0.00802
C 26.05967 17.75383 -0.00218
C 27.10435 25.58629 0.02316
C 24.60703 2.75475 -0.01654
C 25.86479 0.63752 -0.0032
C 24.61834 0.04516 0.00622
C 27.09022 32.61872 -0.02815
C 28.35296 31.94398 -0.00942
C 28.3638 30.54252 0.00487
C 27.08983 29.83623 0.00826
C 27.05727 28.39866 -0.00294
C 28.28012 27.73074 0.00152
C 25.77035 2.11977 -0.00037
C 2.53034 32.74205 -0.00077
