410
Graphene
C 34.37972 0.01557 0.01295
C 12.26505 25.63503 0.03101
C 12.24011 24.17081 -0.01536
C 13.49322 23.44478 -0.02689
C 13.51457 21.98054 -0.01046
C 12.3015 21.31723 -0.00891
C 12.33207 19.83224 0.02819
C 13.51738 19.11598 0.00165
C 13.53778 17.69259 -0.02971
C 12.30809 16.93258 0.02894
C 12.35212 15.60092 -0.01789
C 13.62727 14.94127 0.00444
C 13.70993 13.44183 -0.00925
C 12.41753 12.87208 0.01877
C 12.3193 11.40697 0.01363
C 13.40345 10.62547 -0.02162
C 13.51297 9.21973 0.00415
C 12.32086 8.54941 -0.0014
C 12.2295 7.10134 0.02162
C 13.54596 6.36003 0.0076
C 13.52516 4.92518 0.01241
C 12.33865 4.20328 -0.01454
C 13.45767 26.38856 -0.00428
C 13.46846 27.81484 -0.02245
C 12.21131 28.46235 0.00985
C 12.24584 29.94212 -0.01275
C 11.11486 19.12149 -0.00191
C 11.09437 17.64668 0.00438
C 9.79211 16.99985 0.01291
C 9.83394 15.62029 0.00093
C 11.10013 14.87681 0.00057
C 11.12502 13.50873 -0.01634
C 9.88202 12.81517 -0.00334
C 9.87664 11.35985 0.02339
C 11.09043 10.68309 0.01641
C 11.07772 9.21919 -0.00719
C 12.36838 2.79956 0.01945
C 9.86424 8.51081 0.01364
C 11.06738 6.38731 -0.00033
C 11.04297 4.90454 0.03589
C 9.79683 4.30003 -0.02759
C 9.79098 2.85999 0.0402
C 11.04438 2.17746 0.00572
C 11.02361 0.7902 0.03592
C 9.74808 0.12611 0.00406
C 12.28567 32.72602 0.00943
C 13.52163 32.02805 0.02841
C 13.44657 30.62127 -0.01111
C 9.82451 7.11772 -0.01062
C 9.88863 19.8876 0.00373
C 13.52995 2.13516 0.01416
C 12.35578 0.08444 0.02299
C 14.76504 0.07338 0.00979
C 17.21545 32.7048 0.01443
C 18.3613 31.97989 0.03505
C 18.38124 30.53984 -0.02815
C 17.21716 29.82889 -0.04147
C 17.18717 28.36964 -0.05302
C 18.43637 27.69694 0.00213
C 18.44433 26.28084 -0.00066
C 17.19852 25.54537 -0.00289
C 17.20738 24.12891 0.00028
C 18.44945 23.38649 -0.02213
C 18.44283 21.9807 0.03698
C 17.22477 21.28103 -0.00109
C 17.13941 19.89078 -0.00491
C 18.44529 9.20254 0.03338
C 17.15404 8.62748 -0.0258
C 17.30489 7.14354 -0.0331
C 18.48481 6.47384 -0.00316
C 18.40089 5.07068 0.02188
C 17.22283 4.34069 -0.01979
C 17.16088 2.94451 0.02691
C 16.03066 0.72237 -0.00481
C 15.94581 2.15171 0.00889
C 14.74366 2.82644 -0.02162
C 14.77189 4.23531 -0.00619
C 14.76882 32.73313 0.00244
C 16.00319 31.99017 -0.01717
C 15.98491 30.52758 0.05265
C 14.72139 29.86178 -0.01952
C 14.68607 28.46584 -0.02813
C 15.94738 27.72865 0.00374
C 15.93753 26.30416 0.00052
C 14.7595 25.64159 -0.03682
C 14.69072 24.18052 0.01965
C 15.95131 23.37227 0.02058
C 13.5715 0.74385 0.03542
C 15.94001 21.95001 -0.01957
C 14.73951 19.81508 -0.00368
C 15.94821 19.10184 -0.02696
C 14.73773 16.89695 -0.00114
C 14.66225 11.31669 0.00228
C 15.91922 10.74316 0.00798
C 15.9456 9.31553 0.00422
C 14.76374 8.55542 0.0351
C 14.77715 7.13148 -0.03113
C 16.0146 6.45689 0.02098
C 15.94644 5.00091 0.01848
C 14.74291 21.23998 -0.0108
C 9.9001 21.35358 0.02147
C 11.05532 22.0769 -0.014
C 11.0527 23.43673 -0.01118
C 2.42149 2.84905 0.00031
C 3.63666 2.13557 -0.003
C 3.6197 0.71068 0.01402
C 2.39309 34.0486 0.02379
C 4.76478 32.70707 0.00907
C 5.96151 32.00783 0.00643
C 4.87554 30.00249 -0.01509
C 4.79677 28.56621 0.03267
C 6.08046 26.40652 0.02374
C 4.84547 25.67459 0.00402
C 4.90615 24.21577 0.0073
C 6.09373 23.49338 0.0174
C 6.11861 21.98674 0.03828
C 4.96932 21.30324 0.01226
C 4.89559 19.95915 -0.00279
C 6.14508 19.22785 0.01996
C 6.14991 17.79995 -0.03996
C 4.85133 17.10044 0.01465
C 4.85802 15.6877 -0.00074
C 6.09054 14.88583 -0.00518
C 6.13312 13.49775 0.0086
C 2.43079 4.27646 0.03189
C 3.69144 4.99127 -0.04307
C 3.62328 6.41949 0.03284
C 2.41991 7.11286 0.04505
C 3.59019 30.56405 0.00828
C 2.33571 29.87045 -0.02375
C 2.40092 28.36146 0.00558
C 3.62659 27.75872 -0.0059
C 3.60763 26.35957 -0.01386
C 2.39405 25.57528 -0.02805
C 2.45635 24.18346 0.00081
C 3.69799 23.42947 0.00245
C 3.71958 21.96693 0.02728
C 2.44775 21.31042 -0.00039
C 4.90889 12.74027 -0.00643
C 2.41362 19.87788 0.0064
C 3.63811 17.81909 -0.00449
C 2.33845 17.05898 -0.01979
C 2.39566 15.6653 0.02784
C 3.62971 14.91979 -0.01977
C 3.6891 13.46124 -0.00561
C 2.47725 12.83138 0.00208
C 2.44017 11.341 0.01707
C 3.66762 10.65578 0.02769
C 3.63934 9.1282 -0.03291
C 2.41372 8.507 -0.04999
C 3.71595 19.24392 0.00211
C 4.84679 11.2999 0.017
C 6.14093 10.60034 -0.03113
C 6.13386 9.18299 -0.02566
C 7.31945 12.85738 -0.00494
C 7.38115 11.4014 0.00054
C 8.61351 10.73498 0.03007
C 8.65544 9.2581 -0.00095
C 7.39971 8.60419 0.01572
C 7.40467 7.1778 -0.04848
C 8.62387 6.42771 -0.00892
C 8.58644 5.0555 -0.01362
C 7.38462 4.35138 -0.0008
C 7.33777 2.92007 0.0288
C 8.58536 13.52227 -0.00562
C 8.54513 2.1978 0.00393
C 7.37256 34.07782 0.00685
C 9.76557 32.76017 0.02888
C 10.99386 32.11674 -0.00482
C 10.97306 30.67618 -0.01384
C 9.76873 29.9766 0.03693
C 9.76956 28.51208 0.01745
C 10.99271 27.79185 0.00488
C 10.96731 26.3722 -0.01004
C 9.80741 25.61514 -0.02896
C 9.7869 24.21457 -0.00131
C 8.52376 0.77298 0.00895
C 18.40759 2.17434 -0.01581
C 8.59358 14.98277 -0.01142
C 7.33452 17.01628 0.01396
C 4.86065 8.5233 -0.00094
C 4.93695 7.10615 0.02322
C 6.20671 6.43893 -0.00725
C 6.1582 5.01298 -0.05697
C 4.91898 4.35099 0.01087
C 4.86029 2.82568 -0.01343
C 6.0986 2.21251 0.00988
C 6.12157 0.75991 0.0276
C 4.89483 34.07837 0.01305
C 7.24861 32.66486 -0.00077
C 7.29342 15.62239 0.01849
C 8.54182 32.06468 0.03368
C 8.5513 27.81116 -0.00966
C 8.58336 26.35415 -0.03337
C 7.2889 25.62832 0.01227
C 7.36124 24.24793 0.00873
C 8.5307 23.46604 -0.00049
C 8.64349 22.02205 0.00848
C 7.44021 21.3083 -0.01303
C 7.38138 19.86134 -0.01378
C 8.6637 19.15468 0.02635
C 8.6026 17.68683 0.0127
C 8.56219 30.62961 -0.02929
C 18.41944 0.69658 0.01452
C 17.2034 34.06341 0.04892
C 19.6762 32.70118 -0.00111
C 30.74189 9.21088 -0.03735
C 29.48785 8.41924 -0.00971
C 29.49879 6.9975 0.01518
C 30.74348 6.31446 0.01908
C 30.74021 4.91495 0.07705
C 29.46531 4.22227 0.0103
C 29.50164 2.78759 0.02108
C 30.72156 2.06802 0.00716
C 30.76532 0.65954 0.00307
C 29.50548 34.01464 0.00346
C 31.91919 32.67771 0.01713
C 33.14095 31.9704 -0.01694
C 33.15309 30.52723 0.01428
C 31.95524 29.78004 -0.02142
C 31.90803 28.41643 0.0544
C 33.12668 27.66257 0.00026
C 33.23106 26.22909 0.00682
C 31.99515 25.60536 -0.01779
C 31.91151 24.15065 0.03794
C 33.15387 23.44809 0.01927
C 33.17661 22.00011 0.01574
C 30.75448 10.5954 -0.00944
C 29.49825 11.3023 -0.02155
C 29.46574 12.74777 -0.01461
C 30.72299 13.43232 -0.01303
C 27.01351 2.76146 0.01259
C 28.26549 2.05606 0.01799
C 28.31997 0.6346 0.01699
C 27.06768 34.07345 -0.00416
C 29.47766 32.66032 0.01177
C 30.71422 31.93541 0.04266
C 30.68504 30.51637 0.01324
C 29.43602 29.82834 0.0014
C 29.43763 28.37724 0.00924
C 30.73538 27.75263 0.02326
C 31.94615 21.32992 -0.02383
C 30.72685 26.34324 0.00261
C 29.52103 24.15436 -0.02049
C 30.71271 23.4452 -0.01854
C 30.6966 21.99171 -0.01415
C 29.43653 21.30339 -0.03039
C 29.46148 19.89283 0.01836
C 30.67356 19.15165 0.03531
C 30.7141 17.77898 -0.00669
C 29.47429 17.02451 0.0101
C 29.45446 15.62488 0.01705
C 30.68619 14.8842 -0.0405
C 29.52962 25.65928 0.03265
C 31.92805 19.87653 -0.01429
C 33.13456 19.18525 -0.0136
C 33.12684 17.75847 0.00594
C 1.2308 23.42972 0.00723
C 1.22807 21.97546 0.02712
C 34.37933 21.29991 -0.02213
C 34.35085 19.88821 0.01951
C 1.1553 19.22565 -0.01678
C 1.11327 17.79272 0.01223
C 34.37648 16.99433 0.00648
C 34.41301 15.62265 0.02114
C 1.21668 14.93591 -0.02957
C 1.22477 13.52289 0.00343
C 34.42244 24.07735 0.03076
C 34.41893 12.75677 -0.02656
C 1.21057 10.65594 -0.00027
C 1.22311 9.22386 -0.00583
C 0.00446 8.54097 -0.02302
C 0.02488 7.12239 -0.02849
C 1.19901 6.35909 0.02931
C 1.23469 4.93531 0.00628
C 0.00857 4.26231 -0.0345
C 34.42319 2.8546 -0.00931
C 1.21868 2.15108 -0.00939
C 1.16901 0.72524 -0.00468
C 0.05266 11.39138 -0.02442
C 27.08738 4.16061 0.01495
C 0.03576 25.50913 -0.05239
C 1.13366 27.61519 -0.00439
C 31.88244 17.09594 -0.02474
C 31.9118 15.65184 0.00369
C 33.1301 14.95749 0.00455
C 33.19946 13.51215 -0.00644
C 31.93003 12.76901 -0.01839
C 31.99791 11.26197 0.00137
C 33.24324 10.68024 0.00199
C 33.25083 9.23304 0.04381
C 32.03939 8.44735 0.02806
C 31.99492 7.03067 0.01504
C 1.20427 26.2803 -0.00598
C 33.25273 6.35913 -0.00069
C 31.94025 4.23567 -0.03838
C 31.94384 2.84907 0.00349
C 33.18045 2.18307 -0.00323
C 33.18506 0.71552 -0.00841
C 31.95252 0.05434 0.0001
C 34.31643 32.65518 -0.02927
C 1.15923 31.99293 -0.01404
C 1.12603 30.48551 0.01027
C 34.31189 29.74282 0.01831
C 34.35921 28.34981 -0.01037
C 33.19608 4.95855 0.04926
C 3.52494 31.98989 0.00088
C 28.27651 4.90799 0.00235
C 27.05338 7.05808 0.02198
C 23.36689 27.70305 0.01277
C 23.42437 26.22005 0.00096
C 22.19151 25.54875 -0.01527
C 22.16381 24.10392 0.01087
C 23.37388 23.39387 0.00199
C 23.44015 21.94917 0.01511
C 22.18809 21.19553 -0.00478
C 22.19238 19.75615 -0.01662
C 23.42397 19.10145 -0.01185
C 23.4544 9.11125 0.01126
C 22.14994 8.45663 0.01852
C 22.16094 7.06567 -0.00381
C 23.35888 6.34385 0.03046
C 23.31461 4.92634 0.0296
C 22.0537 4.26289 0.03374
C 22.05523 2.84763 -0.02845
C 23.27608 2.11672 -0.03213
C 23.28454 0.75405 0.02239
C 22.04074 0.09949 0.01153
C 24.55642 32.62628 0.02734
C 25.80704 31.95932 -0.0055
C 22.0988 28.41427 -0.02422
C 22.11887 29.87338 -0.01721
C 23.35477 30.57689 -0.01154
C 23.31692 32.0124 0.0106
C 20.86636 31.97548 -0.03557
C 20.97057 30.56077 0.03754
C 19.67287 29.88735 0.01739
C 19.66089 28.38824 0.00755
C 20.94272 27.67227 -0.0054
C 20.95718 26.26411 0.00667
C 19.72243 25.46585 0.00143
C 19.66739 24.09059 -0.017
C 20.90088 23.36075 0.00364
C 20.95101 21.80137 -0.00831
C 25.74657 30.5083 0.01515
C 19.63879 21.18008 -0.02957
C 19.5954 8.53986 0.00654
C 19.70711 7.03249 -0.00703
C 20.95144 6.41557 -0.04076
C 20.88502 5.02583 -0.00652
C 19.60635 4.30912 0.0058
C 19.61955 2.85838 -0.00865
C 20.89508 2.17007 0.00675
C 20.80404 0.76629 -0.00311
C 19.65006 0.03644 0.00742
C 22.13355 32.71503 -0.01594
C 19.32072 19.78202 -0.04422
C 24.55486 29.8055 -0.00225
C 24.60687 28.38335 0.00071
C 25.85709 27.63817 -0.01107
C 28.17163 30.51599 0.00367
C 27.00466 29.78367 0.04306
C 27.04932 28.346 0.00996
C 28.26065 27.69778 0.00195
C 28.25719 26.29534 -0.00802
C 27.07269 25.58143 -0.00218
C 27.13211 24.13958 -0.01654
C 28.33882 23.39723 -0.00037
C 28.28502 22.05477 -0.0032
C 27.01794 21.31161 0.00622
C 28.27001 31.91799 -0.01679
C 27.03842 19.91109 -0.02815
C 28.2787 17.72611 0.00487
C 27.04232 16.94962 0.00826
C 26.95231 15.50658 -0.00294
C 28.25371 14.84484 0.00152
C 28.26715 13.41686 0.01257
C 26.99833 12.75437 0.02316
C 27.07987 11.35008 0.04185
C 28.25669 10.63337 0.00194
C 28.27001 9.19303 -0.00621
C 27.07772 8.49243 0.02611
C 28.19846 19.13866 -0.00942
C 28.29885 6.28557 0.01094
C 27.01133 32.66028 -0.01052
C 25.88391 0.69623 -0.01154
C 25.87016 26.22456 -0.01586
C 24.6339 25.50056 -0.01971
C 24.67206 24.03864 -0.02118
C 25.87379 23.4131 0.00733
C 25.8566 21.95816 -0.00178
C 24.61972 21.21082 0.00768
C 24.60855 19.80808 -0.0276
C 25.87209 19.17511 0.03005
C 25.78761 17.66807 -0.04078
C 24.62852 16.91867 0.02117
C 24.54196 0.02424 0.00684
C 25.81785 14.74005 0.02737
C 24.67516 11.52508 0.00135
C 25.82819 10.68843 0.03102
C 25.86858 9.21794 0.02555
C 24.62755 8.50219 0.01423
C 24.62503 7.02727 -0.00285
C 25.808 6.29747 -0.009
C 25.84407 4.86166 -0.01199
C 24.57514 4.22223 -0.00229
C 24.54436 2.78757 -0.00938
C 25.78732 2.11055 -0.0264
C 25.72094 13.31877 -0.00498
C 2.38366 32.67561 0.04421
