335
Graphene
C 34.42907 0.03312 0.01295
C 18.53657 27.63498 0.00979
C 17.18071 11.45499 0.01443
C 18.38976 10.7162 0.03505
C 18.50529 9.21234 -0.02815
C 17.26075 8.5986 -0.04147
C 17.24957 7.15311 -0.05302
C 18.37691 6.34443 0.00213
C 18.38394 4.92226 -0.00066
C 17.1625 4.13576 -0.00289
C 17.21745 2.76039 0.00028
C 18.53938 2.15296 -0.02213
C 18.48961 0.66175 0.03698
C 17.27597 34.04524 -0.00109
C 19.69727 32.65417 -0.00491
C 20.8989 32.00978 0.03338
C 20.89446 30.4966 -0.0258
C 19.67269 29.73964 -0.0331
C 17.16852 28.29588 -0.00481
C 19.72482 28.27666 -0.00316
C 17.1286 29.80618 0.00889
C 18.44769 31.94875 -0.00619
C 14.74778 32.62436 0.00374
C 15.97557 32.01161 0.00052
C 15.88556 30.60119 -0.03682
C 14.74913 29.85182 0.01965
C 14.87845 28.4021 0.02058
C 15.89015 27.78113 -0.01957
C 15.94654 9.2044 -0.0108
C 14.85232 8.56191 -0.00368
C 14.75409 7.10338 -0.02696
C 16.03956 6.46015 -0.00114
C 16.00643 5.03848 0.00228
C 14.7518 4.31593 0.00798
C 14.75154 2.88894 0.00422
C 16.01275 2.05463 0.0351
C 16.01883 0.6604 -0.03113
C 14.76025 0.00934 0.02098
C 17.28941 32.64404 0.01848
C 18.40729 30.44121 -0.02162
C 12.27292 0.03983 -0.02813
C 20.95442 27.64328 0.02188
C 19.5721 25.6046 0.02691
C 23.41654 26.25118 -0.00865
C 22.21384 25.53072 0.00675
C 22.17221 24.18239 -0.00311
C 23.37294 23.4629 0.00742
C 23.28787 22.11816 -0.01594
C 22.1494 21.19366 0.0106
C 22.12333 19.92557 -0.01154
C 23.32538 19.14312 -0.01721
C 23.33862 17.78297 -0.02422
C 22.17266 16.99833 0.01277
C 22.03807 15.6624 0.00096
C 23.35314 14.92373 -0.01527
C 23.39688 13.48678 0.01087
C 22.20232 12.82838 0.00199
C 22.12707 11.32461 0.01511
C 23.37305 10.65163 -0.00478
C 23.37124 9.22768 -0.01662
C 23.42237 27.63539 0.0058
C 20.82556 26.25457 -0.01979
C 22.11923 28.35014 -0.00652
C 23.37439 30.50993 -0.00703
C 20.95239 14.82966 -0.01581
C 20.83262 13.54779 0.01452
C 19.63474 12.74952 0.04892
C 19.6017 11.39879 -0.00111
C 20.83847 10.7085 -0.03557
C 20.86815 9.26621 0.03754
C 19.66308 8.51669 0.01739
C 19.71064 7.03774 0.00755
C 20.93896 6.39729 -0.0054
C 20.93157 4.98434 0.00667
C 19.67167 4.31701 0.00143
C 19.75281 2.88323 -0.017
C 20.93474 2.12913 0.00364
C 20.89957 0.67972 -0.00831
C 19.66408 34.0318 -0.02957
C 22.12286 32.65407 -0.04422
C 23.41706 31.99014 0.00654
C 22.09997 29.80927 -0.04076
C 22.10815 8.54096 -0.01185
C 13.48755 0.74136 -0.01952
C 12.29879 2.84266 -0.01717
C 2.41831 34.06176 -0.01004
C 4.93188 32.69982 -0.02896
C 6.16362 31.91152 -0.00131
C 6.09822 30.52014 -0.01118
C 4.9185 29.73329 -0.014
C 4.88178 28.36218 0.02147
C 6.1214 27.66142 0.00373
C 6.10611 26.23722 -0.00191
C 4.91893 25.56589 0.00438
C 4.98941 24.1371 0.01291
C 6.10722 23.55598 0.00093
C 4.87939 8.51588 0.00057
C 4.90075 7.11631 -0.01634
C 6.12647 6.43079 -0.00334
C 6.16907 5.02608 0.02339
C 4.94085 4.21753 0.01641
C 4.87877 2.85605 -0.00719
C 3.63654 0.72267 0.00488
C 6.12258 2.14826 0.01364
C 3.69863 2.14682 0.01745
C 2.45614 4.33011 -0.01384
C 3.7011 30.48755 -0.01142
C 2.47385 29.85743 -0.00562
C 2.48979 28.43078 -0.00494
C 3.68304 27.69036 0.00054
C 3.64846 26.33576 0.03007
C 2.47344 25.58821 -0.00095
C 2.4336 24.11291 0.01572
C 3.64288 23.40099 -0.04848
C 3.61656 22.08697 -0.00892
C 2.54168 21.23132 -0.01362
C 2.50388 19.91468 -0.0008
C 2.40996 11.34081 0.0288
C 3.86547 9.14786 0.00393
C 2.49407 8.53195 0.00895
C 2.37254 7.06612 0.00685
C 3.63362 6.51408 0.02888
C 3.68724 4.98462 -0.00482
C 2.49132 2.82563 0.03693
C 13.49365 2.15976 0.05265
C 6.20772 0.70838 -0.01062
C 7.35256 32.60627 0.03589
C 9.89624 7.07126 -0.01789
C 10.96654 6.39766 0.00444
C 11.04594 5.02425 -0.00925
C 9.79106 4.32302 0.01877
C 9.82311 2.86495 0.01363
C 11.09996 2.17331 -0.02162
C 11.08577 0.64112 0.00415
C 9.85379 0.01036 -0.0014
C 12.34736 32.717 0.02162
C 13.52378 31.97689 0.0076
C 13.50648 30.51959 0.01241
C 12.2745 29.72838 -0.01454
C 12.16918 28.31304 0.01945
C 12.35524 7.10617 0.01416
C 13.52735 6.37364 0.03542
C 13.51315 4.99668 0.02299
C 12.30542 4.3484 0.00244
C 11.09832 27.75192 0.02894
C 4.98302 0.03336 -0.00033
C 9.89562 28.40028 -0.02971
C 11.10775 30.57591 0.02819
C 8.56019 31.8487 -0.02759
C 8.57523 30.47087 0.0402
C 7.31925 29.82496 0.00572
C 7.31278 28.32878 0.03592
C 8.61806 27.68281 0.00406
C 8.47105 26.27889 0.00943
C 7.40623 25.67165 0.02841
C 7.38471 6.98954 -0.01111
C 8.59788 6.5118 -0.01275
C 8.59383 5.02538 0.00985
C 7.40738 4.31066 -0.02245
C 7.36208 2.84416 -0.00428
C 8.60711 2.1388 0.03101
C 8.65091 0.75326 -0.01536
C 7.39512 0.0015 -0.02689
C 9.80509 32.67529 -0.01046
C 11.13818 31.97088 -0.00891
C 9.87851 29.89227 0.00165
C 3.68851 31.98609 0.01849
C 22.16522 7.14633 0.01126
C 23.27602 5.019 -0.00381
C 31.93808 28.43951 0.0544
C 33.21792 27.71294 0.00026
C 33.12905 26.29078 0.00682
C 31.94685 25.59313 -0.01779
C 32.01213 24.12141 0.03794
C 33.22379 23.42375 0.01927
C 33.18388 22.06089 0.01574
C 31.95344 21.34568 -0.02383
C 31.97191 19.90974 -0.01429
C 33.14381 19.18316 -0.0136
C 33.13885 17.79332 0.00594
C 31.95869 16.9939 -0.02474
C 31.9843 15.60264 0.00369
C 33.17113 14.94015 0.00455
C 33.186 13.51122 -0.00644
C 32.03142 12.83547 -0.01839
C 31.97109 11.31927 0.00137
C 31.96077 29.84994 -0.02142
C 33.1497 10.65097 0.00199
C 33.21176 30.52347 0.01428
C 31.96064 32.69828 0.01713
C 29.41752 17.02813 0.0101
C 29.47148 15.63213 0.01705
C 30.71204 14.86647 -0.0405
C 30.75048 13.53728 -0.01303
C 29.46569 12.79924 -0.01461
C 29.52791 11.41001 -0.02155
C 30.74163 10.63788 -0.00944
C 30.72167 9.19844 -0.03735
C 29.49997 8.55276 -0.00971
C 29.56664 7.12225 0.01518
C 30.78319 6.44394 0.01908
C 30.71327 4.96841 0.07705
C 29.49877 4.27769 0.0103
C 29.48919 2.83417 0.02108
C 30.68703 2.19774 0.00716
C 30.77666 0.72065 0.00307
C 29.52077 34.02519 0.00346
C 33.24961 31.92051 -0.01694
C 30.70194 17.75227 -0.00669
C 33.18015 9.25579 0.04381
C 32.01617 7.12388 0.01504
C 1.1659 17.72976 0.01223
C 34.41502 17.04809 0.00648
C 34.42518 15.63792 0.02114
C 1.27902 14.86593 -0.02957
C 1.2389 13.47731 0.00343
C 0.05547 12.75074 -0.02656
C 34.41073 11.35457 -0.02442
C 1.24866 10.70741 -0.00027
C 1.21749 9.18052 -0.00583
C 34.38423 8.53412 -0.02302
C 0.02782 7.05179 -0.02849
C 1.17464 6.33163 0.02931
C 1.17049 4.95956 0.00628
C 34.38814 4.23174 -0.0345
C 34.39093 2.84237 -0.00931
C 1.22085 2.13454 -0.00939
C 1.20253 0.68152 -0.00468
C 1.33913 19.12816 -0.01678
C 31.95739 8.58353 0.02806
C 0.06908 19.87296 0.01951
C 1.22873 21.95662 0.02712
C 33.22149 6.39228 -0.00069
C 33.23516 4.94322 0.04926
C 31.93516 4.26377 -0.03838
C 31.97039 2.80985 0.00349
C 33.19409 2.14076 -0.00323
C 33.21098 0.73975 -0.00841
C 31.99504 0.0635 0.0001
C 34.43102 32.6837 -0.02927
C 1.25279 31.99858 -0.01404
C 1.18757 30.57889 0.01027
C 0.01096 29.83093 0.01831
C 0.01425 28.3807 -0.01037
C 1.29087 27.74234 -0.00439
C 1.26436 26.2604 -0.00598
C 34.38223 25.5318 -0.05239
C 34.42778 24.18269 0.03076
C 1.21034 23.43977 0.00723
C 0.0292 21.35151 -0.02213
C 23.33376 6.34027 0.01852
C 30.72134 19.14002 0.03531
C 29.51743 21.29169 -0.03039
C 24.62895 15.65529 -0.04078
C 25.76946 14.87489 0.02117
C 25.77611 13.49168 0.02737
C 24.59057 12.72987 -0.00498
C 24.57679 11.34985 0.00135
C 25.79642 10.609 0.03102
C 25.82004 9.29261 0.02555
C 24.58308 8.54945 0.01423
C 24.58989 7.09124 -0.00285
C 25.83473 6.34991 -0.009
C 25.73636 4.93463 -0.01199
C 24.5232 4.27709 -0.00229
C 24.57801 2.86055 -0.00938
C 25.89283 2.0998 -0.0264
C 25.80578 0.70509 -0.01154
C 24.56592 0.09806 0.00684
C 27.05749 32.67192 -0.01052
C 24.57387 17.11475 0.03005
C 28.2169 31.95166 -0.01679
C 25.78451 17.74531 -0.0276
C 24.57765 19.92175 -0.00178
C 22.14803 4.26911 0.03046
C 22.16519 2.84702 0.0296
C 23.36036 2.09729 0.03374
C 23.31585 0.70643 -0.02845
C 22.11547 0.0102 -0.03213
C 24.58975 32.75313 0.02239
C 25.81194 31.88398 0.01153
C 25.812 30.48718 0.02734
C 24.51478 29.79198 -0.0055
C 24.59567 28.40449 0.01515
C 25.85347 27.68857 -0.00225
C 25.75919 26.20179 0.00071
C 24.55743 25.53928 -0.01107
C 24.6167 24.14456 -0.01586
C 25.80673 23.3717 -0.01971
C 25.78817 22.01587 -0.02118
C 24.61071 21.2453 0.00733
C 25.84702 19.1704 0.00768
C 29.539 19.90262 0.01836
C 28.27311 30.50213 0.00367
C 27.08467 28.34564 0.00996
C 28.24793 4.93734 0.00235
C 27.00985 4.23862 0.01495
C 27.07804 2.81721 0.01259
C 28.33329 2.10595 0.01799
C 28.27373 0.72444 0.01699
C 26.97162 34.06641 -0.00416
C 29.46403 32.61599 0.01177
C 30.71898 31.89549 0.04266
C 30.71333 30.51217 0.01324
C 29.54192 29.7955 0.0014
C 29.53469 28.39857 0.00924
C 30.64218 27.67628 0.02326
C 30.67139 26.19539 0.00261
C 29.51599 25.4883 0.03265
C 29.52348 24.09571 -0.02049
C 30.80287 23.37248 -0.01854
C 30.80626 21.96939 -0.01415
C 28.34144 6.36522 0.01094
C 27.01375 29.80966 0.04306
C 27.10144 7.03279 0.02198
C 28.24189 9.216 -0.00621
C 28.27533 27.70729 0.00195
C 28.34837 26.21431 -0.00802
C 27.12903 25.50993 -0.00218
C 27.0303 24.09287 -0.01654
C 28.26854 23.40922 -0.00037
C 28.29711 21.99364 -0.0032
C 27.0591 21.27966 0.00622
C 27.08995 19.89548 -0.02815
C 28.2657 19.1608 -0.00942
C 28.26325 17.7753 0.00487
C 27.08647 17.03916 0.00826
C 27.10489 15.63389 -0.00294
C 28.30448 14.96487 0.00152
C 28.26256 13.51991 0.01257
C 27.09471 12.71142 0.02316
C 27.04115 11.33093 0.04185
C 28.33081 10.67803 0.00194
C 27.00891 8.57053 0.02611
C 2.43769 32.678 0.01396
