307
Graphene
C 34.33394 0.0642 0.01295
C 18.27294 23.30976 -0.01979
C 18.48432 22.00054 0.02691
C 18.43298 19.18309 -0.01581
C 18.60229 17.803 0.01452
C 18.35936 0.90264 0.04892
C 17.13716 0.24429 -0.00111
C 19.60091 32.72438 -0.03557
C 20.81344 31.99336 0.03754
C 20.85166 30.58383 0.01739
C 19.63505 29.92915 0.00755
C 19.63213 28.53814 -0.0054
C 20.79516 27.70264 0.00667
C 20.86347 26.26333 0.00143
C 19.57355 25.49605 -0.017
C 19.49601 24.15007 0.00364
C 17.20153 24.21885 0.02188
C 20.83007 23.44301 -0.00831
C 16.99818 25.54679 -0.00316
C 18.43418 27.80034 -0.0258
C 12.16503 0.20491 0.00979
C 14.70852 32.78231 0.01443
C 15.90783 32.06468 0.03505
C 15.99204 30.66632 -0.02815
C 14.77135 29.95195 -0.04147
C 14.77115 28.52308 -0.05302
C 16.03981 27.7149 0.00213
C 15.83567 26.25318 -0.00066
C 15.77129 0.89329 -0.00289
C 14.60077 0.26739 0.00028
C 17.16436 32.87787 -0.02213
C 18.39572 32.12925 0.03698
C 18.46334 30.7159 -0.00109
C 17.27147 29.92297 -0.00491
C 17.19711 28.58022 0.03338
C 18.40046 26.3845 -0.0331
C 20.96038 22.03605 -0.02957
C 19.68568 21.22467 -0.04422
C 19.61317 19.76762 0.00654
C 23.38093 17.67659 -0.01662
C 22.1805 17.01396 -0.01185
C 22.12121 15.58307 0.01126
C 23.20643 14.84133 0.01852
C 23.38159 13.47809 -0.00381
C 23.67856 5.60252 0.03046
C 21.91297 2.79019 0.0296
C 23.28121 2.31583 0.03374
C 23.25698 0.74606 -0.02845
C 22.00211 0.00986 -0.03213
C 24.52474 32.77849 0.02239
C 25.76661 31.96945 0.01153
C 25.76176 30.59361 0.02734
C 24.53636 29.7948 -0.0055
C 24.49139 28.4278 0.01515
C 23.43595 19.10377 -0.00478
C 22.17147 19.79845 0.01511
C 22.20953 21.35779 0.00199
C 23.37765 21.99124 0.01087
C 20.87116 19.07879 -0.00703
C 20.9329 17.61973 -0.04076
C 19.6674 17.04245 -0.00652
C 20.97274 2.12719 0.0058
C 20.72874 0.76759 -0.00865
C 19.54899 0.07792 0.00675
C 22.00891 32.66462 -0.00311
C 13.34727 0.90827 -0.00481
C 23.26731 32.01028 0.00742
C 22.04148 29.81823 0.0106
C 22.01518 28.41858 -0.01154
C 23.29747 27.71732 -0.01721
C 23.27693 26.23617 -0.02422
C 22.07335 25.56727 0.01277
C 22.04675 24.16487 0.00096
C 23.26412 23.42615 -0.01527
C 23.33862 30.53781 -0.01594
C 25.75633 27.75052 -0.00225
C 13.50064 27.78488 0.00889
C 12.41219 29.89344 -0.00619
C 3.65995 5.00292 0.00943
C 2.45781 4.27296 0.02841
C 2.38192 2.82924 -0.01111
C 3.59501 2.15469 -0.01275
C 3.63636 0.74837 0.00985
C 2.39229 0.02975 -0.02245
C 4.82222 32.71775 -0.00428
C 6.06266 31.83872 0.03101
C 6.09468 30.35028 -0.01536
C 4.81867 29.7217 -0.02689
C 4.61558 28.42052 -0.01046
C 5.85771 27.48998 -0.00891
C 5.38223 26.33016 0.02819
C 5.00097 12.84728 0.00165
C 5.00778 11.4925 -0.02971
C 3.61697 6.41833 0.00406
C 6.27922 10.53312 0.02894
C 2.37301 7.14054 0.03592
C 3.67738 9.29843 0.0402
C 3.63175 30.53555 -0.00191
C 2.38905 29.81193 0.00438
C 2.26702 28.40235 0.01291
C 3.46601 27.61091 0.00093
C 3.81549 26.23487 0.00057
C 2.63591 25.50446 -0.01634
C 2.40621 24.12051 -0.00334
C 1.94648 20.63694 0.02339
C 2.49718 17.40223 0.01641
C 2.67105 15.99081 -0.00719
C 3.69589 15.03087 0.01364
C 3.72609 13.60178 -0.01062
C 2.48657 12.81492 -0.00033
C 2.44478 11.42871 0.03589
C 3.71615 10.7387 -0.02759
C 2.34309 8.59261 0.00572
C 6.07837 9.19367 -0.01789
C 4.90228 8.49583 0.00444
C 4.84113 7.01872 -0.00925
C 8.5222 0.67131 -0.03682
C 7.23925 33.94213 0.01965
C 9.80994 32.54299 0.02058
C 11.06743 31.9574 -0.01957
C 11.11971 30.45255 -0.0108
C 9.84349 29.66304 -0.00368
C 9.78734 28.15354 -0.02696
C 11.0856 27.69802 -0.00114
C 9.55001 3.10496 0.00228
C 10.79529 2.2635 0.00798
C 10.90054 0.87413 0.00422
C 9.71919 34.05208 0.0351
C 12.24094 32.76832 -0.03113
C 13.50608 32.04948 0.02098
C 13.55812 30.62522 0.01848
C 8.4703 2.08657 0.00052
C 7.23796 2.81741 0.00374
C 7.42384 4.28101 -0.02813
C 8.93997 4.37435 -0.01952
C 6.08189 6.35191 0.01877
C 6.22118 4.94561 0.01363
C 4.92482 4.29345 -0.02162
C 4.75666 2.92401 0.00415
C 6.02004 2.05383 -0.0014
C 6.10063 0.61915 0.02162
C 4.81233 34.0679 0.0076
C 12.27656 28.27642 -0.02162
C 7.36863 32.57148 0.01241
C 8.58261 30.40618 0.01945
C 7.29909 29.55029 0.01416
C 7.1489 28.12434 0.03542
C 8.42053 27.46527 0.02299
C 7.59266 10.5587 0.00244
C 7.2672 8.35132 -0.01717
C 7.32953 7.14915 0.05265
C 8.55528 31.79392 -0.01454
C 3.62242 31.955 0.00373
C 25.77589 26.28033 0.00071
C 24.5747 24.09393 -0.01586
C 33.13011 23.53362 0.01927
C 33.07852 22.15625 0.01574
C 31.81265 21.38797 -0.02383
C 31.87184 19.99223 -0.01429
C 33.03297 19.32735 -0.0136
C 33.22386 17.93758 0.00594
C 31.96445 17.19415 -0.02474
C 31.98529 15.71663 0.00369
C 33.22741 15.08945 0.00455
C 33.27373 13.63588 -0.00644
C 31.9619 12.95205 -0.01839
C 31.89324 11.43202 0.00137
C 33.1526 10.76269 0.00199
C 33.13954 9.31436 0.04381
C 31.91147 8.63632 0.02806
C 31.87252 24.21959 0.03794
C 31.89194 7.17977 0.01504
C 31.89335 25.54647 -0.01779
C 33.15776 27.72688 0.00026
C 30.66753 9.32879 -0.03735
C 29.37799 8.53326 -0.00971
C 29.46727 7.09869 0.01518
C 30.73779 6.46758 0.01908
C 30.72192 5.05508 0.07705
C 29.54661 4.3244 0.0103
C 29.43321 2.90724 0.02108
C 30.62469 2.19454 0.00716
C 30.62384 0.79022 0.00307
C 29.33307 0.02933 0.00346
C 31.89828 32.77699 0.01713
C 33.18637 32.0272 -0.01694
C 33.19639 30.62131 0.01428
C 31.94375 29.86094 -0.02142
C 31.92439 28.41824 0.0544
C 33.13781 26.23034 0.00682
C 33.16569 6.50079 -0.00069
C 33.3015 5.02441 0.04926
C 31.99361 4.35186 -0.03838
C 0.09656 15.83061 0.02114
C 1.33498 15.10511 -0.02957
C 1.31569 13.63426 0.00343
C 34.40851 12.86344 -0.02656
C 34.38497 11.4916 -0.02442
C 1.22287 10.79664 -0.00027
C 1.11627 9.28874 -0.00583
C 34.35051 8.62788 -0.02302
C 34.41868 7.20021 -0.02849
C 1.16661 6.38249 0.02931
C 1.22067 4.9615 0.00628
C 34.42761 4.24476 -0.0345
C 34.41295 2.88754 -0.00931
C 1.11319 2.16149 -0.00939
C 1.16884 0.72864 -0.00468
C 0.10875 17.26673 0.00648
C 1.30411 18.00801 0.01223
C 0.9582 19.32205 -0.01678
C 34.20746 20.04402 0.01951
C 31.90563 2.89468 0.00349
C 33.13752 2.17814 -0.00323
C 33.1062 0.76059 -0.00841
C 31.85229 0.03728 0.0001
C 0.02053 32.76909 -0.02927
C 1.23598 32.01942 -0.01404
C 1.14764 30.56136 0.01027
C 30.67727 10.7026 -0.00944
C 34.33961 29.84809 0.01831
C 1.11758 27.62 -0.00439
C 1.18145 26.21506 -0.00598
C 34.41772 25.52554 -0.05239
C 34.39786 24.07259 0.03076
C 1.33641 23.29575 0.00723
C 1.15362 21.87344 0.02712
C 34.28342 21.41486 -0.02213
C 34.36154 28.45687 -0.01037
C 24.5435 25.53948 -0.01107
C 29.49855 11.41123 -0.02155
C 30.72768 13.58467 -0.01303
C 24.40484 3.06162 -0.00938
C 25.67967 2.27035 -0.0264
C 25.72276 0.85646 -0.01154
C 24.60883 0.08165 0.00684
C 26.95761 32.73772 -0.01052
C 28.15019 31.96794 -0.01679
C 28.27243 30.5709 0.00367
C 26.98435 29.86216 0.04306
C 27.04454 28.46494 0.00996
C 28.23989 27.80889 0.00195
C 28.27538 26.38558 -0.00802
C 27.06166 25.60045 -0.00218
C 27.03057 24.2158 -0.01654
C 28.24088 23.46421 -0.00037
C 28.17959 22.07385 -0.0032
C 24.41923 4.47376 -0.00229
C 27.05776 21.26453 0.00622
C 25.78454 4.96094 -0.01199
C 24.4446 6.88345 -0.00285
C 25.84012 23.40133 -0.01971
C 25.83522 22.00007 -0.02118
C 24.67563 21.35101 0.00733
C 24.55822 19.81979 -0.00178
C 25.79654 19.18023 0.00768
C 25.80923 17.72314 -0.0276
C 24.61047 17.05627 0.03005
C 24.49472 15.54106 -0.04078
C 25.66012 14.81367 0.02117
C 25.63614 13.32202 0.02737
C 24.33203 12.60639 -0.00498
C 24.42182 11.17312 0.00135
C 25.64232 10.4695 0.03102
C 25.63562 8.94587 0.02555
C 24.53033 8.36106 0.01423
C 25.76572 6.28809 -0.009
C 27.07133 19.85457 -0.02815
C 28.2451 19.13463 -0.00942
C 28.19532 17.6829 0.00487
C 29.46228 29.90332 0.0014
C 29.5148 28.45852 0.00924
C 30.69377 27.72208 0.02326
C 30.7069 26.362 0.00261
C 29.48511 25.63483 0.03265
C 29.44944 24.16494 -0.02049
C 30.6248 23.49119 -0.01854
C 30.5423 22.09097 -0.01415
C 29.38059 21.32026 -0.03039
C 29.48773 19.87261 0.01836
C 30.70141 19.1886 0.03531
C 30.71644 17.84372 -0.00669
C 29.43385 17.01835 0.0101
C 29.42818 15.58681 0.01705
C 30.78717 15.0008 -0.0405
C 30.69571 30.51872 0.01324
C 30.66191 31.98842 0.04266
C 29.38408 32.68908 0.01177
C 26.8943 0.10078 -0.00416
C 26.91049 16.97073 0.00826
C 26.91392 15.53092 -0.00294
C 28.16779 14.87298 0.00152
C 28.16665 13.49702 0.01257
C 26.87169 12.68944 0.02316
C 26.95726 11.28029 0.04185
C 28.22427 10.6193 0.00194
C 29.43399 12.88075 -0.01461
C 28.15012 9.20482 -0.00621
C 27.04479 7.00727 0.02198
C 28.32574 6.33246 0.01094
C 28.32778 4.94551 0.00235
C 27.02594 4.30288 0.01495
C 27.02547 2.80677 0.01259
C 28.22922 2.19285 0.01799
C 28.21084 0.733 0.01699
C 26.96035 8.41673 0.02611
C 2.39182 32.68104 0.02147
