409
Graphene
C 34.3828 0.04638 0.01295
C 13.43722 5.31402 -0.01536
C 12.15923 4.56708 -0.02689
C 12.25176 3.11091 -0.01046
C 13.51362 2.34425 -0.00891
C 13.47188 0.90913 0.02819
C 12.21042 0.09867 0.00165
C 14.64944 32.67341 -0.02971
C 15.7785 31.99597 0.02894
C 15.86156 30.64973 -0.01789
C 14.63897 29.88568 0.00444
C 14.52006 28.54102 -0.00925
C 15.78929 27.74742 0.01877
C 15.83623 26.30289 0.01363
C 14.6342 25.60453 -0.02162
C 14.62776 24.17225 0.00415
C 15.76087 23.3471 -0.0014
C 15.81995 21.99956 0.02162
C 14.52578 21.37504 0.0076
C 14.52265 19.82257 0.01241
C 15.58384 19.18225 -0.01454
C 14.73913 7.24216 0.01945
C 13.39065 6.72501 0.03101
C 12.1235 7.41694 -0.00428
C 12.09934 20.08532 -0.02245
C 12.11872 21.52865 0.00985
C 9.75219 19.95348 0.00438
C 11.08816 19.36771 0.01291
C 9.55618 8.91779 0.00093
C 9.62911 7.52147 0.00057
C 11.00107 6.75256 -0.01634
C 10.89763 5.19426 -0.00334
C 9.76063 4.47719 0.02339
C 9.81231 3.14183 0.01641
C 11.09162 2.49606 -0.00719
C 11.07775 0.93209 0.01364
C 15.95335 6.47386 0.01416
C 9.91035 0.13968 -0.01062
C 13.42705 32.03945 0.03589
C 13.40471 30.65009 -0.02759
C 12.20295 29.91014 0.0402
C 12.07139 28.36181 0.00572
C 13.28748 27.7357 0.03592
C 13.40733 26.36453 0.00406
C 12.13948 25.68393 0.00943
C 12.16355 24.28626 0.02841
C 13.25583 23.47505 -0.01111
C 13.25934 22.13388 -0.01275
C 12.21894 32.75737 -0.00033
C 9.76804 21.40826 -0.00191
C 15.9262 5.05852 0.03542
C 14.68826 3.00583 0.00244
C 18.32374 2.27942 0.01443
C 18.2085 0.81019 0.03505
C 16.98011 0.14626 -0.02815
C 19.42713 32.76508 -0.04147
C 20.71883 31.9802 -0.05302
C 20.6811 30.38136 0.00213
C 19.5036 29.78469 -0.00066
C 19.47716 28.38063 -0.00289
C 20.69965 27.58554 0.00028
C 20.63851 26.18694 -0.02213
C 19.45371 25.51921 0.03698
C 19.3523 24.15174 -0.00109
C 20.52439 23.34907 -0.00491
C 20.57785 21.81928 0.03338
C 19.31468 21.16984 -0.0258
C 19.39924 19.73717 -0.0331
C 20.62691 19.01632 -0.00316
C 20.66255 17.65399 0.02188
C 19.39843 16.84862 -0.01979
C 19.35996 15.42498 0.02691
C 20.63876 14.88399 -0.01581
C 17.11998 2.94075 0.00979
C 17.14037 4.35085 -0.00481
C 18.26038 5.09972 0.00889
C 18.36937 6.47139 -0.02162
C 15.85421 2.27658 -0.01717
C 15.73205 0.79158 0.05265
C 14.58452 0.06135 -0.01952
C 16.97692 32.76752 -0.02813
C 18.21559 31.97091 0.00374
C 18.28073 30.58478 0.00052
C 17.03407 29.89303 -0.03682
C 16.92901 28.38273 0.01965
C 18.22143 27.74681 0.02058
C 18.24645 26.28436 -0.01957
C 14.65704 4.4068 0.02299
C 17.05646 25.52119 -0.0108
C 18.19255 23.42294 -0.02696
C 18.18468 22.00758 -0.00114
C 16.96144 21.23782 0.00228
C 16.88474 19.70614 0.00798
C 18.23847 19.0342 0.00422
C 18.29121 17.72171 0.0351
C 18.50971 10.53555 -0.03113
C 18.15161 9.11953 0.02098
C 16.88032 8.65455 0.01848
C 17.12967 7.22091 -0.00619
C 17.0057 24.07861 -0.00368
C 10.86052 22.14302 0.00373
C 10.91514 23.52816 0.02147
C 9.73267 24.24879 -0.014
C 2.44564 2.90423 -0.003
C 3.68657 2.2343 0.01402
C 3.74186 0.74265 0.02379
C 2.38487 0.02804 0.00907
C 4.77654 32.83743 0.00643
C 6.06427 32.13219 -0.01509
C 6.10925 30.65244 0.03267
C 4.87103 29.92686 0.02374
C 4.81099 28.462 0.00402
C 6.14676 27.78972 0.0073
C 6.03789 26.30118 0.0174
C 4.90225 25.5734 0.03828
C 4.85124 24.16202 0.01226
C 6.03449 23.4023 -0.00279
C 6.11431 22.01017 0.01996
C 4.76903 21.38981 -0.03996
C 4.93944 19.85161 0.01465
C 6.09842 19.05504 -0.00074
C 6.0878 17.71603 -0.00518
C 4.81929 17.03552 0.0086
C 4.90725 15.5616 -0.00643
C 2.35497 4.27056 0.00031
C 3.54302 5.02788 0.03189
C 3.51623 6.47039 -0.04307
C 2.33896 7.2253 0.03284
C 3.54979 30.57095 -0.02375
C 2.37725 29.86484 0.00558
C 2.28528 28.46187 -0.0059
C 3.632 27.6728 -0.01386
C 3.67702 26.28826 -0.02805
C 2.40646 25.60106 0.00081
C 2.33496 24.1731 0.00245
C 3.61339 23.50216 0.02728
C 3.51761 22.16893 -0.00039
C 2.28681 21.4073 0.0064
C 6.21272 14.85856 0.017
C 2.36833 19.97999 0.00211
C 3.52681 17.75054 -0.01979
C 2.35825 17.11515 0.02784
C 2.45729 15.76396 -0.01977
C 3.63073 15.01131 -0.00561
C 3.60465 13.5919 0.00208
C 2.43583 12.87206 0.01707
C 2.44035 11.51138 0.02769
C 3.53025 10.76762 -0.03291
C 3.55632 9.37444 -0.04999
C 2.37849 8.67097 0.04505
C 3.5806 19.20582 -0.00449
C 6.10293 13.43219 -0.03113
C 4.86811 12.80476 -0.02566
C 4.8302 11.40311 -0.00094
C 7.3022 16.97468 0.00054
C 7.40526 15.55658 0.03007
C 7.27384 12.61345 -0.00095
C 7.50886 11.27265 0.01572
C 8.40121 9.59514 -0.04848
C 7.18548 8.65158 -0.00892
C 7.21073 7.27158 -0.01362
C 8.52375 6.58928 -0.0008
C 8.56059 5.18555 0.0288
C 7.27841 4.4471 0.00393
C 8.46712 17.83613 -0.00494
C 7.42075 3.11569 0.00895
C 8.62053 0.97297 0.02888
C 7.31165 0.3257 -0.00482
C 9.79421 32.8432 -0.01384
C 11.04793 32.0482 0.03693
C 10.93575 30.59269 0.01745
C 9.75197 29.90799 0.00488
C 9.64775 28.33233 -0.01004
C 10.91842 27.67982 -0.02896
C 10.92169 26.38118 -0.00131
C 9.69776 25.61753 -0.01118
C 8.61518 2.35042 0.00685
C 20.6516 13.44062 0.01452
C 8.50659 19.1808 -0.00562
C 7.26232 21.22789 0.01849
C 6.07522 10.77399 0.02322
C 5.96854 9.33016 -0.00725
C 4.76939 8.62496 -0.05697
C 4.72077 7.16798 0.01087
C 6.02589 6.57986 -0.01343
C 6.04172 5.17277 0.00988
C 4.88079 4.38788 0.0276
C 4.94364 2.98819 0.01305
C 6.17416 2.29181 -0.00077
C 6.1692 0.94391 0.03368
C 7.30748 19.81114 -0.01142
C 4.91119 0.20253 -0.02929
C 8.52459 32.18832 -0.03337
C 8.60365 30.68725 0.01227
C 7.31875 29.98072 0.00873
C 7.31941 28.51438 -0.00049
C 8.44894 27.69635 0.00848
C 8.54159 26.26368 -0.01303
C 7.25906 25.61782 -0.01378
C 7.30081 24.28403 0.02635
C 8.45557 23.53394 0.0127
C 8.41364 22.13507 0.01396
C 7.27515 32.86321 -0.00966
C 3.63167 31.98986 0.00828
C 19.56577 12.67142 0.04892
C 20.81503 10.57452 -0.03557
C 29.50718 8.60989 -0.00971
C 29.35211 7.19378 0.01518
C 30.61722 6.42474 0.01908
C 30.5501 5.02047 0.07705
C 29.33995 4.24015 0.0103
C 29.5022 2.80868 0.02108
C 30.77846 2.19011 0.00716
C 30.63056 0.82636 0.00307
C 29.38438 0.10805 0.00346
C 31.92163 32.77201 0.01713
C 33.09865 32.06938 -0.01694
C 33.01189 30.58314 0.01428
C 31.77568 29.85942 -0.02142
C 31.67616 28.4861 0.0544
C 32.95911 27.8522 0.00026
C 33.01561 26.50392 0.00682
C 31.76326 25.65022 -0.01779
C 31.87754 24.0914 0.03794
C 33.07946 23.48625 0.01927
C 33.15733 22.00813 0.01574
C 31.89764 21.27475 -0.02383
C 30.68702 9.36052 -0.03735
C 30.59104 10.76469 -0.00944
C 29.33389 11.4168 -0.02155
C 29.39266 12.80594 -0.01461
C 28.16397 2.10615 0.01799
C 28.17377 0.74581 0.01699
C 26.89127 34.01471 -0.00416
C 29.32332 32.75777 0.01177
C 30.58452 32.0481 0.04266
C 30.65985 30.58761 0.01324
C 29.46883 29.8574 0.0014
C 29.27892 28.39832 0.00924
C 30.54038 27.64121 0.02326
C 30.50571 26.19767 0.00261
C 31.88958 19.79379 -0.01429
C 29.37808 25.50498 0.03265
C 30.67765 23.49744 -0.01854
C 30.65887 22.05376 -0.01415
C 29.36242 21.34671 -0.03039
C 29.3625 19.89968 0.01836
C 30.71622 19.11277 0.03531
C 30.59706 17.71428 -0.00669
C 29.38562 16.91229 0.0101
C 29.37933 15.5039 0.01705
C 30.656 14.83861 -0.0405
C 30.65248 13.46662 -0.01303
C 29.27765 24.09786 -0.02049
C 26.95433 2.78369 0.01259
C 33.09462 19.14537 -0.0136
C 31.89753 17.0401 -0.02474
C 1.07819 22.03565 0.02712
C 34.33733 21.21673 -0.02213
C 34.25792 19.86286 0.01951
C 1.11586 19.28557 -0.01678
C 1.0686 17.7794 0.01223
C 34.30229 17.11522 0.00648
C 34.42484 15.5947 0.02114
C 1.22824 14.87113 -0.02957
C 1.19656 13.47583 0.00343
C 0.05432 12.83033 -0.02656
C 34.36387 11.34615 -0.02442
C 1.16155 10.62609 -0.00027
C 1.07674 9.31724 -0.00583
C 34.33993 8.50127 -0.02302
C 34.26063 7.07023 -0.02849
C 1.1438 6.4636 0.02931
C 1.08421 4.95949 0.00628
C 34.21915 4.27847 -0.0345
C 34.36963 2.97045 -0.00931
C 1.19555 2.19374 -0.00939
C 1.18123 0.74372 -0.00468
C 1.07768 23.55276 0.00723
C 34.24871 24.20802 0.03076
C 34.26603 25.68273 -0.05239
C 1.08151 26.3665 -0.00598
C 31.89843 15.70456 0.00369
C 33.20345 14.92649 0.00455
C 33.2821 13.51961 -0.00644
C 31.95034 12.86616 -0.01839
C 31.8031 11.42417 0.00137
C 33.16307 10.6478 0.00199
C 33.19237 9.28598 0.04381
C 31.92138 8.59411 0.02806
C 31.80433 7.20148 0.01504
C 32.97289 6.45117 -0.00069
C 33.09477 17.7851 0.00594
C 32.98327 5.04167 0.04926
C 31.88342 3.01356 0.00349
C 33.07596 2.21874 -0.00323
C 33.13295 0.81752 -0.00841
C 31.905 0.09634 0.0001
C 34.42111 32.69268 -0.02927
C 1.17095 32.0419 -0.01404
C 1.14799 30.65937 0.01027
C 34.36368 29.85054 0.01831
C 34.26688 28.49294 -0.01037
C 1.14083 27.8154 -0.00439
C 31.80707 4.32985 -0.03838
C 26.88996 4.25456 0.01495
C 28.04448 4.98914 0.00235
C 28.14096 6.4529 0.01094
C 21.79659 15.51714 0.00096
C 23.10218 14.84781 -0.01527
C 23.13104 13.33953 0.01087
C 21.90839 12.71149 0.00199
C 21.95864 11.32032 0.01511
C 23.2384 10.67856 -0.00478
C 23.31747 9.30706 -0.01662
C 22.06707 8.56501 -0.01185
C 22.11913 7.16366 0.01126
C 23.39951 6.3946 0.01852
C 23.30509 5.00844 -0.00381
C 21.96126 4.29641 0.03046
C 21.97545 2.85178 0.0296
C 23.2008 2.13418 0.03374
C 23.24335 0.56943 -0.02845
C 21.88713 34.03931 -0.03213
C 24.46317 32.61515 0.02239
C 25.57313 31.84535 0.01153
C 25.55054 30.40171 0.02734
C 24.32772 29.68643 -0.0055
C 24.29944 28.30525 0.01515
C 21.86987 16.87846 0.01277
C 23.07882 17.62003 -0.02422
C 23.12526 19.04528 -0.01721
C 21.8346 19.78678 -0.01154
C 20.71853 9.20735 0.03754
C 19.52235 8.50719 0.01739
C 19.59902 7.10761 0.00755
C 20.85623 6.41124 -0.0054
C 20.79165 4.92819 0.00667
C 19.55341 4.37851 0.00143
C 19.56148 2.87516 -0.017
C 20.71826 2.12232 0.00364
C 20.73087 0.71678 -0.00831
C 19.46544 0.09872 -0.02957
C 25.60134 27.58174 -0.00225
C 21.97378 32.63336 -0.04422
C 23.11371 30.49452 -0.00703
C 21.86826 29.69962 -0.04076
C 21.94035 28.26761 -0.00652
C 23.15977 27.56249 0.0058
C 23.06414 26.07646 -0.00865
C 21.92955 25.32397 0.00675
C 21.86432 23.97567 -0.00311
C 23.15357 23.29089 0.00742
C 23.05168 21.82651 -0.01594
C 21.79539 21.22562 0.0106
C 23.19469 31.85135 0.00654
C 25.59699 26.11119 0.00071
C 24.32237 25.31277 -0.01107
C 24.45216 24.01198 -0.01586
C 26.89749 29.79274 0.04306
C 26.77682 28.37426 0.00996
C 28.10595 27.66912 0.00195
C 28.14732 26.20585 -0.00802
C 26.8372 25.43051 -0.00218
C 26.87631 23.98492 -0.01654
C 28.03619 23.31967 -0.00037
C 28.12511 21.91338 -0.0032
C 26.91486 21.15776 0.00622
C 26.87139 19.64574 -0.02815
C 28.15461 30.61622 0.00367
C 28.20846 19.09526 -0.00942
C 26.95722 17.02159 0.00826
C 26.95941 15.56312 -0.00294
C 28.09661 14.88166 0.00152
C 28.12849 13.50003 0.01257
C 26.80569 12.81665 0.02316
C 26.84927 11.38645 0.04185
C 28.03848 10.69906 0.00194
C 28.13392 9.24308 -0.00621
C 27.00762 8.50623 0.02611
C 26.97231 7.04163 0.02198
C 28.2 17.72004 0.00487
C 19.58224 11.35877 -0.00111
C 28.13752 31.99907 -0.01679
C 24.44931 0.00215 0.00684
C 25.5995 23.23652 -0.01971
C 25.58574 21.78716 -0.02118
C 24.34541 21.05906 0.00733
C 24.36682 19.69138 -0.00178
C 25.60722 19.00026 0.00768
C 25.64402 17.595 -0.0276
C 24.39351 17.00268 0.03005
C 24.39089 15.56233 -0.04078
C 25.64198 14.91866 0.02117
C 25.52025 13.52647 0.02737
C 26.82603 32.62179 -0.01052
C 24.41132 12.7508 -0.00498
C 25.7149 10.51991 0.03102
C 25.77395 9.1895 0.02555
C 24.47673 8.56678 0.01423
C 24.56733 7.08901 -0.00285
C 25.77137 6.32443 -0.009
C 25.70946 4.97396 -0.01199
C 24.43221 4.23671 -0.00229
C 24.48663 2.88903 -0.00938
C 25.63304 2.05856 -0.0264
C 25.67856 0.68375 -0.01154
C 24.47191 11.36269 0.00135
C 2.42916 32.70591 0.00088
