413
Graphene
C 34.32181 34.04599 0.01295
C 15.95016 30.55463 -0.02245
C 14.7711 29.83495 -0.00428
C 14.77858 28.43846 0.03101
C 15.98586 27.74854 -0.01536
C 15.9904 26.24207 -0.02689
C 14.82564 25.54695 -0.01046
C 14.74434 24.14987 -0.00891
C 15.90913 23.3175 0.02819
C 15.95095 21.9941 0.00165
C 14.71061 21.2736 -0.02971
C 14.76453 19.81714 0.02894
C 16.0474 19.19268 -0.01789
C 16.09682 17.72845 0.00444
C 14.81177 17.05164 -0.00925
C 14.78092 15.52897 0.01877
C 15.91962 14.84925 0.01363
C 15.91594 13.45358 -0.02162
C 14.71499 12.74044 0.00415
C 14.71725 11.34034 -0.0014
C 15.9882 10.61695 0.02162
C 15.94158 9.13238 0.0076
C 15.917 31.98829 0.00985
C 14.77022 32.73195 -0.01275
C 12.21052 0.23166 -0.01111
C 13.38629 0.83624 0.02841
C 13.51229 30.64615 0.02147
C 12.32857 29.91383 0.00373
C 12.28228 28.48386 -0.00191
C 13.5866 27.74623 0.00438
C 13.60472 26.35816 0.01291
C 12.35524 25.69121 0.00093
C 12.26123 24.22759 0.00057
C 13.46171 23.48904 -0.01634
C 13.5309 22.01556 -0.00334
C 12.27149 21.40758 0.02339
C 14.69209 8.44913 0.01241
C 12.23858 19.8974 0.01641
C 13.50914 17.76358 0.01364
C 12.30733 17.15838 -0.01062
C 12.2557 15.6113 -0.00033
C 13.48924 14.93412 0.03589
C 13.54511 13.47186 -0.02759
C 12.25422 12.81779 0.0402
C 12.26116 11.31808 0.00572
C 13.53073 10.58762 0.03592
C 13.57876 9.19037 0.00406
C 12.28561 8.82002 0.00943
C 13.58725 19.14147 -0.00719
C 14.64772 7.07267 -0.01454
C 15.84097 6.30818 0.01945
C 16.05661 4.88999 0.01416
C 18.39885 9.23646 0.00889
C 17.15909 8.51061 -0.00481
C 17.16421 7.07498 0.00979
C 18.41724 6.46795 0.01443
C 18.43267 4.97087 0.03505
C 17.33189 4.25127 -0.02815
C 17.22087 2.82376 -0.04147
C 18.43166 2.09526 -0.05302
C 18.35359 0.67554 0.00213
C 17.13473 0.01053 -0.00066
C 18.49795 10.61498 -0.02162
C 19.59732 32.61742 -0.00289
C 20.97011 30.55213 -0.02213
C 19.74849 29.8522 0.03698
C 19.6444 28.43556 -0.00109
C 20.81583 27.71861 -0.00491
C 20.81907 26.30098 0.03338
C 19.64365 25.50289 -0.0258
C 19.65506 24.08485 -0.0331
C 20.84983 23.43629 -0.00316
C 20.95805 21.98378 0.02188
C 19.69628 21.29107 -0.01979
C 20.88723 31.88391 0.00028
C 13.41469 32.11066 -0.014
C 17.2298 11.28732 -0.00619
C 18.40409 13.5147 0.02098
C 14.63732 2.71075 0.03542
C 15.94907 2.17814 0.02299
C 15.87111 0.7333 0.00244
C 14.68499 0.10615 -0.01717
C 17.17559 32.66245 0.05265
C 18.38523 31.92828 -0.01952
C 18.44632 30.55085 -0.02813
C 17.28528 29.81382 0.00374
C 17.25199 28.36904 0.00052
C 18.3911 27.62615 -0.03682
C 17.1851 12.72576 0.01848
C 18.37917 26.23031 0.01965
C 17.13756 24.01204 -0.01957
C 18.40493 23.40364 -0.0108
C 18.46877 22.01098 -0.00368
C 17.2032 21.25091 -0.02696
C 17.27012 19.8324 -0.00114
C 18.53613 19.08746 0.00228
C 18.4977 17.74587 0.00798
C 17.30448 16.99428 0.00422
C 17.20852 15.54399 0.0351
C 18.4048 14.84624 -0.03113
C 17.16912 25.46773 0.02058
C 12.21881 32.89047 -0.01118
C 9.88096 0.00311 -0.00131
C 9.76177 8.50272 -0.02896
C 4.89171 32.62275 0.03284
C 6.15198 31.88784 -0.04307
C 6.19068 30.57931 0.03189
C 4.94793 29.84484 0.00031
C 4.88458 28.47416 -0.003
C 6.10948 27.77704 0.01402
C 6.12693 26.30615 0.02379
C 4.90548 25.4702 0.00907
C 4.77927 24.01371 0.00643
C 6.04146 23.41441 -0.01509
C 2.36606 34.0124 0.04505
C 4.88853 15.465 0.03267
C 6.11699 13.51205 0.00402
C 4.98308 12.77045 0.0073
C 4.95152 11.37645 0.0174
C 6.18643 10.65644 0.03828
C 6.21139 9.23238 0.01226
C 4.90342 8.46868 -0.00279
C 4.91688 7.07267 0.01996
C 6.13993 6.47917 -0.03996
C 6.14174 5.03684 0.01465
C 4.85477 4.26918 -0.00074
C 6.19768 15.05443 0.02374
C 4.88577 2.88192 -0.00518
C 3.68022 0.69297 -0.04999
C 2.44571 2.77211 0.02769
C 3.71925 30.53194 -0.00177
C 2.50712 29.82447 0.04421
C 2.47109 28.40213 0.00088
C 3.72428 27.74779 0.00828
C 3.68823 26.28697 -0.02375
C 2.44825 25.63101 0.00558
C 2.41317 24.25682 -0.0059
C 3.56344 23.43568 -0.01386
C 2.27242 21.12928 -0.02805
C 2.36189 16.9806 0.00081
C 3.64323 2.09408 -0.03291
C 2.4715 15.61783 0.00245
C 3.73115 13.44248 -0.00039
C 2.46215 12.79309 0.0064
C 2.49447 11.44158 0.00211
C 3.66358 10.77267 -0.00449
C 3.66179 9.25542 -0.01979
C 2.43661 8.48417 0.02784
C 2.47935 7.13804 -0.01977
C 3.69219 6.35741 -0.00561
C 3.67621 4.9243 0.00208
C 2.43045 4.26729 0.01707
C 3.6684 14.87651 0.02728
C 19.70879 19.88595 0.02691
C 6.23012 2.16318 0.0086
C 4.85336 0.05845 0.017
C 11.06987 32.05676 -0.01142
C 11.11657 30.61228 -0.00562
C 9.86089 29.87612 -0.00494
C 9.82891 28.47963 0.00054
C 11.0459 27.78461 0.03007
C 11.06761 26.35219 -0.00095
C 9.84189 25.61857 0.01572
C 9.80699 24.16766 -0.04848
C 11.01401 23.56373 -0.00892
C 11.10621 22.12877 -0.01362
C 9.78345 32.69324 0.01849
C 9.95731 21.42869 -0.0008
C 10.93762 19.29758 0.00393
C 11.00052 17.8866 0.00895
C 9.89336 17.08036 0.00685
C 9.78286 15.71171 0.02888
C 11.00384 14.95126 -0.00482
C 10.99846 13.57009 -0.01384
C 9.79885 12.92051 0.03693
C 9.84534 11.43901 0.01745
C 11.0646 10.68065 0.00488
C 10.95221 9.18849 -0.01004
C 9.66912 20.12194 0.0288
C 6.12849 0.73577 -0.00643
C 7.31822 0.07239 0.01396
C 8.57339 2.08134 0.02635
C 7.36542 32.69144 -0.03113
C 8.56426 32.04285 -0.02566
C 8.62702 30.60179 -0.00094
C 7.44841 29.9315 0.02322
C 7.40532 28.44969 -0.00725
C 8.60153 27.69441 -0.05697
C 8.56084 26.26538 0.01087
C 7.29997 25.58121 -0.01343
C 7.32211 24.09129 0.00988
C 8.58351 23.47221 0.0276
C 8.65967 0.76655 0.0127
C 7.32265 15.77906 0.01305
C 8.5829 13.58623 0.03368
C 7.33575 12.76886 -0.02929
C 7.40528 11.4241 -0.00966
C 8.63303 10.71467 -0.03337
C 8.5626 9.25429 0.01227
C 7.35614 8.5629 0.00873
C 7.39374 7.08979 -0.00049
C 8.57566 6.31271 0.00848
C 7.3717 4.36329 -0.01303
C 7.56287 2.96248 -0.01378
C 8.55759 14.97864 -0.00077
C 3.64117 32.0017 0.03278
C 20.94425 19.22813 -0.01581
C 19.66294 17.02443 0.04892
C 30.76807 9.23091 -0.03735
C 29.48768 8.4982 -0.00971
C 29.50345 7.08703 0.01518
C 30.73722 6.3834 0.01908
C 30.71913 4.94618 0.07705
C 29.49216 4.18681 0.0103
C 29.53988 2.79695 0.02108
C 30.73125 2.11351 0.00716
C 30.69986 0.70824 0.00307
C 29.48107 34.05906 0.00346
C 31.95318 32.62465 0.01713
C 33.18522 31.93356 -0.01694
C 33.21619 30.46798 0.01428
C 31.91586 29.82118 -0.02142
C 31.88161 28.40855 0.0544
C 33.12734 27.66557 0.00026
C 33.16841 26.26999 0.00682
C 31.96673 25.5346 -0.01779
C 31.95814 24.12941 0.03794
C 33.17964 23.45839 0.01927
C 33.17658 21.97057 0.01574
C 30.76806 10.60415 -0.00944
C 29.46483 11.2923 -0.02155
C 29.471 12.74257 -0.01461
C 30.70734 13.37539 -0.01303
C 27.08631 2.86126 0.01259
C 28.37159 2.12653 0.01799
C 28.29281 0.75554 0.01699
C 27.05442 0.1101 -0.00416
C 29.45171 32.66685 0.01177
C 30.73857 31.93835 0.04266
C 30.76735 30.59863 0.01324
C 29.50992 29.88965 0.0014
C 29.47507 28.51314 0.00924
C 30.61533 27.73264 0.02326
C 31.97189 21.18991 -0.02383
C 30.67975 26.27804 0.00261
C 29.46204 24.1386 -0.02049
C 30.73432 23.44452 -0.01854
C 30.74103 21.95903 -0.01415
C 29.51608 21.30524 -0.03039
C 29.5073 19.85765 0.01836
C 30.70384 19.15289 0.03531
C 30.72625 17.67306 -0.00669
C 29.4762 16.9744 0.0101
C 29.41581 15.55796 0.01705
C 30.70464 14.82075 -0.0405
C 29.56412 25.56231 0.03265
C 31.91657 19.78569 -0.01429
C 33.12593 19.04639 -0.0136
C 33.10003 17.67433 0.00594
C 1.24684 23.49891 0.00723
C 1.25673 22.05586 0.02712
C 0.00719 21.31084 -0.02213
C 34.30346 19.86777 0.01951
C 1.11935 19.19202 -0.01678
C 1.33224 17.78654 0.01223
C 34.40964 17.00048 0.00648
C 34.40196 15.65251 0.02114
C 1.24048 14.91469 -0.02957
C 1.23351 13.491 0.00343
C 34.40154 24.16619 0.03076
C 34.38184 12.7649 -0.02656
C 1.27897 10.67837 -0.00027
C 1.26016 9.21611 -0.00583
C 34.42906 8.47308 -0.02302
C 34.38422 7.06153 -0.02849
C 1.15335 6.35429 0.02931
C 1.12284 4.97844 0.00628
C 34.33327 4.23969 -0.0345
C 34.40292 2.84993 -0.00931
C 1.20131 2.0693 -0.00939
C 1.10232 0.74805 -0.00468
C 0.01556 11.41323 -0.02442
C 27.02972 4.25086 0.01495
C 34.41692 25.60882 -0.05239
C 1.17635 27.75185 -0.00439
C 31.91127 16.96331 -0.02474
C 31.91291 15.48485 0.00369
C 33.15314 14.89049 0.00455
C 33.15708 13.53749 -0.00644
C 31.95165 12.75378 -0.01839
C 32.00193 11.37017 0.00137
C 33.23328 10.64963 0.00199
C 33.17254 9.20148 0.04381
C 31.98733 8.47627 0.02806
C 31.93623 7.09045 0.01504
C 1.22211 26.3847 -0.00598
C 33.20716 6.34351 -0.00069
C 31.88035 4.16581 -0.03838
C 31.92523 2.80875 0.00349
C 33.20967 2.08644 -0.00323
C 33.20074 0.70136 -0.00841
C 31.99389 0.01355 0.0001
C 34.38256 32.67252 -0.02927
C 1.19649 31.88186 -0.01404
C 1.19751 30.47499 0.01027
C 34.3672 29.78717 0.01831
C 0.01316 28.39433 -0.01037
C 33.13335 4.95161 0.04926
C 28.27167 4.9539 0.00235
C 28.28446 6.38344 0.01094
C 27.00917 7.0326 0.02198
C 23.3731 19.20341 -0.02422
C 23.38884 17.75236 0.01277
C 22.16139 17.02705 0.00096
C 22.13099 15.68527 -0.01527
C 23.43837 14.95604 0.01087
C 23.4033 13.46606 0.00199
C 22.13039 12.76832 0.01511
C 22.16392 11.3284 -0.00478
C 23.42716 10.60346 -0.01662
C 23.33777 9.17316 -0.01185
C 22.20577 19.87686 -0.01721
C 22.10176 8.5113 0.01126
C 23.32449 6.38315 -0.00381
C 23.32469 4.97811 0.03046
C 22.08366 4.25023 0.0296
C 22.11706 2.8605 0.03374
C 23.34983 2.11299 -0.02845
C 23.38821 0.65902 -0.03213
C 22.11001 0.0256 0.02239
C 24.55515 32.6281 0.01153
C 25.81731 31.90041 0.02734
C 25.82813 30.4375 -0.0055
C 22.11313 7.04537 0.01852
C 24.616 29.7545 0.01515
C 22.26532 21.30185 -0.01154
C 23.33583 23.51442 -0.01594
C 19.69716 15.60783 -0.00111
C 20.89556 14.849 -0.03557
C 20.96375 13.41541 0.03754
C 19.69396 12.79673 0.01739
C 19.71261 11.28418 0.00755
C 20.94057 10.60371 -0.0054
C 20.81689 9.24654 0.00667
C 19.69838 8.54517 0.00143
C 19.64986 7.10629 -0.017
C 20.90586 6.4041 0.00364
C 23.35587 22.06637 0.0106
C 20.86802 4.92011 -0.00831
C 19.68365 2.81684 -0.04422
C 20.92606 2.17336 0.00654
C 20.88249 0.66299 -0.00703
C 19.65401 34.00381 -0.04076
C 22.10542 32.67655 -0.00652
C 23.30057 31.89312 0.0058
C 23.34554 30.47704 -0.00865
C 23.28503 26.1709 0.00675
C 21.95607 25.56006 -0.00311
C 22.05709 24.17904 0.00742
C 19.65548 4.25815 -0.02957
C 20.95343 17.725 0.01452
C 25.8064 27.71695 -0.00225
C 24.50882 25.64065 -0.01107
C 28.23887 30.57086 0.00367
C 27.06652 29.82141 0.04306
C 27.02459 28.35149 0.00996
C 28.30721 27.73516 0.00195
C 28.3192 26.30921 -0.00802
C 26.99354 25.55083 -0.00218
C 27.03896 24.16529 -0.01654
C 28.28153 23.45985 -0.00037
C 28.28549 22.00471 -0.0032
C 27.06154 21.24435 0.00622
C 28.25906 31.98113 -0.01679
C 27.08101 19.88085 -0.02815
C 28.3287 17.79742 0.00487
C 27.13917 17.04452 0.00826
C 27.11844 15.63548 -0.00294
C 28.27365 14.88934 0.00152
C 28.31989 13.42714 0.01257
C 27.04552 12.7378 0.02316
C 27.07129 11.33282 0.04185
C 28.26176 10.59399 0.00194
C 28.22349 9.17193 -0.00621
C 27.02621 8.44397 0.02611
C 28.31293 19.25156 -0.00942
C 25.74747 26.36235 0.00071
C 27.01236 32.71446 -0.01052
C 25.81899 0.70619 -0.01154
C 24.59029 24.21339 -0.01586
C 25.8037 23.52089 -0.01971
C 25.91353 22.02528 -0.02118
C 24.68943 21.30323 0.00733
C 24.68478 19.88873 -0.00178
C 25.8821 19.1554 0.00768
C 25.85737 17.71577 -0.0276
C 24.6583 17.00491 0.03005
C 24.60843 15.61594 -0.04078
C 25.84026 14.88748 0.02117
C 24.60864 34.05493 0.00684
C 25.79896 13.52512 0.02737
C 24.6386 11.32748 0.00135
C 25.79009 10.61649 0.03102
C 25.79332 9.19027 0.02555
C 24.61395 8.47935 0.01423
C 24.59085 7.08858 -0.00285
C 25.80649 6.34792 -0.009
C 25.74566 4.94611 -0.01199
C 24.54832 4.30125 -0.00229
C 24.68047 2.83264 -0.00938
C 25.83779 2.10169 -0.0264
C 24.5762 12.67996 -0.00498
C 2.38705 32.66879 0.01138
