329
Graphene
C 34.39433 0.01106 0.01295
C 9.84329 2.86127 -0.05302
C 11.00714 2.14292 0.00213
C 11.11104 0.69916 -0.00066
C 9.91483 0.00683 -0.00289
C 12.28853 32.74261 0.00028
C 13.47898 32.04237 -0.02213
C 13.53202 30.61649 0.03698
C 9.8391 4.28947 -0.04147
C 12.05971 12.6987 -0.00109
C 13.53261 10.77759 0.03338
C 13.55243 9.31264 -0.0258
C 12.25369 8.50774 -0.0331
C 12.34111 7.0595 -0.00316
C 13.52319 6.34896 0.02188
C 13.49639 4.9549 -0.01979
C 12.28129 4.20451 0.02691
C 12.22356 11.24393 -0.00491
C 11.05958 4.98529 -0.02815
C 11.09016 6.39871 0.03505
C 9.79037 7.06319 0.01443
C 7.30145 2.81531 -0.01957
C 8.61605 2.17873 -0.0108
C 8.5913 0.72033 -0.00368
C 7.40501 34.02791 -0.02696
C 9.85813 32.70823 -0.00114
C 11.10818 31.99293 0.00228
C 11.27052 19.37788 0.00798
C 10.92161 18.09974 0.00422
C 9.86057 17.034 0.0351
C 9.90916 15.63503 -0.03113
C 11.12828 15.07117 0.02098
C 11.11218 13.68187 0.01848
C 9.92792 12.76122 -0.00619
C 9.87584 11.33439 -0.02162
C 11.00959 10.50762 0.00889
C 11.00109 9.11883 -0.00481
C 9.76226 8.48596 0.00979
C 12.28925 2.83582 -0.01581
C 7.2713 4.30014 0.02058
C 13.5647 2.10941 0.01452
C 12.38621 0.01843 -0.00111
C 17.15454 4.19819 -0.01594
C 17.15891 2.82896 0.0106
C 18.44092 2.19942 -0.01154
C 18.44311 0.73676 -0.01721
C 17.25034 34.07236 -0.02422
C 19.62818 32.67295 0.01277
C 20.88415 31.92469 0.00096
C 18.30385 5.04729 0.00742
C 20.81697 30.43793 -0.01527
C 19.55008 28.41246 0.00199
C 20.86095 27.73363 0.01511
C 20.89419 26.30079 -0.00478
C 19.77148 25.60007 -0.01662
C 20.91305 5.0053 -0.01185
C 19.65273 4.40803 0.01126
C 19.63656 2.91796 0.01852
C 19.59621 29.77858 0.01087
C 18.54629 26.26427 -0.00311
C 18.28659 27.64478 0.00675
C 16.98571 28.34501 -0.00865
C 14.74111 32.64048 -0.03557
C 15.93609 31.90543 0.03754
C 15.94302 30.59706 0.01739
C 14.71301 30.01362 0.00755
C 14.7386 8.4785 -0.0054
C 14.89304 7.02715 0.00667
C 16.16792 6.29182 0.00143
C 15.99276 4.91946 -0.017
C 14.75407 4.18686 0.00364
C 14.75152 2.784 -0.00831
C 15.97922 2.05471 -0.02957
C 15.99173 0.68393 -0.04422
C 14.78853 34.03481 0.00654
C 17.25233 32.66529 -0.00703
C 18.43138 31.94454 -0.04076
C 18.42843 30.4793 -0.00652
C 17.16772 29.78869 0.0058
C 13.61698 0.72156 0.04892
C 8.61835 4.92972 0.01965
C 8.56348 6.34412 -0.03682
C 7.39593 7.12176 0.00052
C 2.43511 8.52923 0.00373
C 2.4435 7.05831 -0.00191
C 3.5839 6.33937 0.00438
C 3.65184 4.92353 0.01291
C 2.42802 4.22671 0.00093
C 2.48592 2.84469 0.00057
C 3.66807 2.13671 -0.01634
C 3.63931 9.23006 0.02147
C 3.63795 0.74193 -0.00334
C 4.98613 32.6969 0.01641
C 6.20146 31.95258 -0.00719
C 6.22515 30.60291 0.01364
C 4.91323 29.87037 -0.01062
C 4.88518 28.4661 -0.00033
C 6.09544 27.72534 0.03589
C 6.05511 26.45002 -0.02759
C 2.46328 34.00692 0.02339
C 3.63446 10.61069 -0.014
C 2.28665 11.36886 -0.01118
C 2.33389 12.73353 -0.00131
C 3.72545 30.56407 0.01572
C 2.52159 29.89588 -0.04848
C 2.4342 28.52208 -0.00892
C 3.67333 27.76249 -0.01362
C 3.63696 26.3426 -0.0008
C 2.4465 25.6338 0.0288
C 2.4237 24.21235 0.00393
C 3.5498 23.47505 0.00895
C 3.61783 22.04266 0.00685
C 2.37354 21.40078 0.02888
C 2.51617 19.94886 -0.00482
C 3.71913 19.2428 -0.01384
C 3.68374 17.71258 0.03693
C 2.43164 17.10113 0.01745
C 2.36864 15.61771 0.00488
C 3.70853 14.86419 -0.01004
C 3.60361 13.41348 -0.02896
C 4.78166 25.66388 0.0402
C 4.79021 24.19149 0.00572
C 6.1682 23.65831 0.03592
C 6.16696 22.07908 0.00406
C 7.40634 32.60969 -0.02162
C 8.64241 31.99023 0.00415
C 8.48787 30.65327 -0.0014
C 7.38056 29.92004 0.02162
C 7.25539 21.30165 0.0076
C 7.41231 19.90865 0.01241
C 8.64597 19.0661 -0.01454
C 8.61452 17.70912 0.01945
C 7.35127 17.06258 0.01416
C 7.45705 15.58421 0.03542
C 8.68152 14.84745 0.02299
C 8.72001 13.46458 0.00244
C 7.42631 12.75897 -0.01717
C 7.36815 11.29565 0.05265
C 8.60236 10.60969 -0.01952
C 8.5904 9.19367 -0.02813
C 7.36956 8.51213 0.00374
C 4.90713 0.0559 0.01363
C 20.87935 2.32665 -0.00381
C 6.24281 0.63923 0.01877
C 4.93255 2.81949 0.00444
C 4.91378 21.37293 0.00943
C 4.95829 19.94166 0.02841
C 6.1379 19.26422 -0.01111
C 6.10553 17.73169 -0.01275
C 4.91045 17.0016 0.00985
C 4.88712 15.61414 -0.02245
C 6.14444 14.84374 -0.00428
C 6.1467 13.42554 0.03101
C 4.8462 12.79094 -0.01536
C 4.85116 11.34741 -0.02689
C 6.10287 10.59297 -0.01046
C 6.09575 9.2223 -0.00891
C 4.84965 8.56619 0.02819
C 4.89351 7.09735 0.00165
C 6.13618 6.40987 -0.02971
C 6.06681 5.00246 0.02894
C 4.87229 4.27156 -0.01789
C 6.16365 2.06076 -0.00925
C 3.80331 31.9663 -0.00095
C 20.95652 0.85249 0.03046
C 22.11305 32.66344 0.03374
C 33.15806 26.31594 0.00682
C 31.92945 25.62305 -0.01779
C 31.92282 24.16417 0.03794
C 33.1426 23.50659 0.01927
C 33.21695 22.08379 0.01574
C 31.90965 21.40072 -0.02383
C 31.95127 19.9902 -0.01429
C 33.21381 27.70865 0.00026
C 33.23076 19.25866 -0.0136
C 31.92857 17.0786 -0.02474
C 31.96561 15.68856 0.00369
C 33.14347 14.95464 0.00455
C 33.06955 13.56545 -0.00644
C 31.85206 12.87011 -0.01839
C 31.90227 11.46087 0.00137
C 33.05495 10.66809 0.00199
C 33.1578 17.80088 0.00594
C 31.96728 28.41606 0.0544
C 31.9519 29.82519 -0.02142
C 33.17733 30.52178 0.01428
C 30.67846 14.90902 -0.0405
C 30.57451 13.50912 -0.01303
C 29.35374 12.81293 -0.01461
C 29.38185 11.36372 -0.02155
C 30.62589 10.71973 -0.00944
C 30.69883 9.19927 -0.03735
C 29.53957 8.48287 -0.00971
C 29.61144 7.01848 0.01518
C 30.75073 6.27082 0.01908
C 30.76072 4.89491 0.07705
C 29.54993 4.26092 0.0103
C 29.48187 2.80623 0.02108
C 30.69641 2.09807 0.00716
C 30.68858 0.63557 0.00307
C 29.40764 34.07421 0.00346
C 32.01458 32.70552 0.01713
C 33.14124 31.91798 -0.01694
C 33.13234 9.24213 0.04381
C 29.48613 15.69529 0.01705
C 31.93637 8.52857 0.02806
C 33.1557 6.3977 -0.00069
C 34.36111 17.06958 0.00648
C 34.34926 15.61598 0.02114
C 1.12946 14.95565 -0.02957
C 1.15526 13.50674 0.00343
C 34.33069 12.84878 -0.02656
C 34.26095 11.40158 -0.02442
C 1.07522 10.68329 -0.00027
C 1.20163 17.85183 0.01223
C 1.16038 9.24723 -0.00583
C 34.40133 7.09433 -0.02849
C 1.24779 6.34402 0.02931
C 1.22867 4.88849 0.00628
C 34.37724 4.26492 -0.0345
C 34.42842 2.82253 -0.00931
C 1.24046 2.10844 -0.00939
C 1.21261 0.70697 -0.00468
C 34.35117 8.55101 -0.02302
C 1.24636 19.26071 -0.01678
C 0.03166 19.96876 0.01951
C 34.40741 21.38987 -0.02213
C 33.20782 4.94342 0.04926
C 32.02965 4.2412 -0.03838
C 31.95034 2.77207 0.00349
C 33.21587 2.11003 -0.00323
C 33.21163 0.69578 -0.00841
C 31.96427 34.06048 0.0001
C 34.39991 32.69811 -0.02927
C 1.22284 31.92697 -0.01404
C 1.23849 30.57855 0.01027
C 0.03626 29.91409 0.01831
C 0.0526 28.4939 -0.01037
C 1.24013 27.8231 -0.00439
C 1.19911 26.2839 -0.00598
C 34.32414 25.63738 -0.05239
C 34.36335 24.2644 0.03076
C 1.1718 23.53041 0.00723
C 1.17599 22.09447 0.02712
C 31.93553 7.08463 0.01504
C 29.62293 17.08853 0.0101
C 30.78549 17.80035 -0.00669
C 30.70831 19.22072 0.03531
C 25.76052 27.62908 -0.00498
C 25.76306 26.16799 0.00135
C 24.43591 25.43036 0.03102
C 24.463 24.04341 0.02555
C 25.68524 23.3074 0.01423
C 25.64018 21.92446 -0.00285
C 24.45126 21.04192 -0.009
C 24.58801 28.36177 0.02737
C 24.41276 19.65502 -0.01199
C 25.9214 17.6354 -0.00938
C 25.95208 6.34121 -0.0264
C 25.85427 4.92179 -0.01154
C 24.62466 4.33766 0.00684
C 24.61383 2.83933 -0.01052
C 25.8325 2.15198 -0.01679
C 25.89913 0.71237 0.00367
C 25.71389 19.032 -0.00229
C 24.60282 29.73373 0.02117
C 25.8181 30.56092 -0.04078
C 25.80354 31.95724 0.03005
C 23.35139 31.89922 -0.02845
C 23.32362 30.48211 -0.03213
C 22.05926 29.78564 0.02239
C 22.0742 28.43075 0.01153
C 23.41064 27.73904 0.02734
C 23.3828 26.29166 -0.0055
C 22.15636 25.58201 0.01515
C 22.00746 24.20325 -0.00225
C 23.23248 23.30117 0.00071
C 23.34624 21.92983 -0.01107
C 23.35701 5.09851 -0.01586
C 22.09157 4.41814 -0.01971
C 22.1341 2.91659 -0.02118
C 23.33722 2.10476 0.00733
C 23.37136 0.75944 -0.00178
C 22.2023 0.08914 0.00768
C 24.60961 32.65619 -0.0276
C 24.59868 0.01752 0.04306
C 27.06868 32.6208 0.00996
C 28.29559 31.91081 0.00195
C 28.29122 30.49705 -0.00802
C 27.04976 2.84403 0.01259
C 28.28287 2.1396 0.01799
C 28.24929 0.72439 0.01699
C 27.04585 34.05261 -0.00416
C 29.52865 32.64723 0.01177
C 30.74222 31.97755 0.04266
C 30.78118 30.55705 0.01324
C 29.49168 29.79686 0.0014
C 29.43207 28.37164 0.00924
C 30.69149 27.70945 0.02326
C 30.74942 26.26982 0.00261
C 29.47917 25.56181 0.03265
C 29.4649 24.13747 -0.02049
C 30.72251 23.42276 -0.01854
C 30.69821 22.04653 -0.01415
C 29.36452 21.31899 -0.03039
C 29.42943 19.94334 0.01836
C 27.03488 4.23539 0.01495
C 19.63126 0.02011 0.0296
C 28.27168 4.90379 0.00235
C 26.9597 7.11011 0.02198
C 27.01407 29.77759 -0.00218
C 26.99454 28.36878 -0.01654
C 28.17805 27.67271 -0.00037
C 28.21141 26.18064 -0.0032
C 27.0038 25.43801 0.00622
C 26.92228 24.04925 -0.02815
C 28.18546 23.41003 -0.00942
C 28.12428 21.94983 0.00487
C 26.87337 21.18096 0.00826
C 26.90345 19.78638 -0.00294
C 28.16836 19.17143 0.00152
C 28.31143 17.72372 0.01257
C 27.06216 16.93996 0.02316
C 28.2361 15.02475 0.04185
C 28.09569 13.72842 0.00194
C 28.16797 10.48445 -0.00621
C 28.25605 9.21792 0.02611
C 28.35053 6.3625 0.01094
C 2.5595 32.64576 0.03007
