312
Graphene
C 34.39769 0.02879 0.01295
C 12.27947 2.73844 -0.0331
C 13.62736 2.10207 -0.00316
C 13.56657 0.6687 0.02188
C 12.23488 0.03536 -0.01979
C 14.75059 32.4514 0.02691
C 15.91562 31.78423 -0.01581
C 16.05485 30.39865 0.01452
C 15.76583 28.09414 0.04892
C 16.0105 9.48834 -0.00111
C 14.70939 8.81221 -0.03557
C 14.66227 7.15747 0.03754
C 15.85941 6.3963 0.01739
C 15.93301 4.99212 0.00755
C 14.72618 4.28265 -0.0054
C 14.84397 2.86317 0.00667
C 12.3362 4.20711 -0.0258
C 13.52122 4.9869 0.03338
C 13.50929 6.37557 -0.00491
C 12.20576 7.09873 -0.00109
C 10.91435 9.27644 -0.00619
C 9.69498 8.48213 -0.02162
C 9.76842 7.09065 0.00889
C 11.04151 6.38083 -0.00481
C 11.17145 4.86438 0.00979
C 9.89485 4.30691 0.01443
C 9.82221 2.83708 0.03505
C 15.97549 2.1559 0.00143
C 11.02065 2.07232 -0.02815
C 9.76287 33.96091 -0.05302
C 12.44447 32.7289 0.00213
C 13.43415 32.10838 -0.00066
C 12.03389 11.43639 -0.00289
C 13.19912 10.75178 0.00028
C 13.35343 9.34705 -0.02213
C 12.10778 8.57817 0.03698
C 10.98203 0.67331 -0.04147
C 10.75412 10.57524 0.01848
C 15.98342 0.69487 -0.017
C 17.24155 32.62002 -0.00831
C 20.96483 27.54589 0.00199
C 20.93877 9.39352 0.01511
C 19.70896 8.89021 -0.00478
C 19.61816 7.26195 -0.01662
C 20.87228 6.55593 -0.01185
C 20.84285 5.14279 0.01126
C 19.65397 4.33693 0.01852
C 19.72284 2.85506 -0.00381
C 20.96066 2.08257 0.03046
C 20.86622 0.73889 0.0296
C 19.66359 34.07894 0.03374
C 22.03222 32.54348 -0.02845
C 23.29408 31.96116 -0.03213
C 23.25325 30.52448 0.02239
C 22.04509 29.72239 0.01153
C 19.61914 28.18628 0.01087
C 19.62821 29.65056 -0.01527
C 20.8005 30.49379 0.00096
C 20.83622 31.86672 0.01277
C 18.49411 31.94315 -0.02957
C 18.46156 30.52642 -0.04422
C 17.26365 29.78298 0.00654
C 17.15952 28.24388 -0.00703
C 18.33453 27.59198 -0.04076
C 18.34888 9.28961 -0.00652
C 17.14387 8.68249 0.0058
C 14.80584 34.03958 0.00364
C 17.11511 7.10061 -0.00865
C 18.41216 5.00621 -0.00311
C 17.26798 4.24361 0.00742
C 17.21772 2.87064 -0.01594
C 18.4607 2.17841 0.0106
C 18.44419 0.71627 -0.01154
C 17.27597 33.98732 -0.01721
C 19.67913 32.60266 -0.02422
C 18.38899 6.46631 0.00675
C 22.07485 28.3654 0.02734
C 9.6049 11.35114 0.02098
C 11.53063 12.57816 0.0351
C 3.69571 5.22621 0.0402
C 2.49604 4.40159 0.00572
C 2.43624 2.98605 0.03592
C 3.68683 2.18981 0.00406
C 3.73233 0.68094 0.00943
C 2.52098 0.06624 0.02841
C 4.99579 32.60024 -0.01111
C 6.29319 31.97459 -0.01275
C 4.86087 29.92399 0.00985
C 4.91077 21.16983 -0.02245
C 4.88855 19.79512 -0.00428
C 6.12194 19.1566 0.03101
C 6.17534 17.70017 -0.01536
C 4.96607 16.9441 -0.02689
C 4.92584 15.53737 -0.01046
C 3.68236 6.71506 -0.02759
C 2.53547 11.17318 0.03589
C 2.34829 12.6686 -0.00033
C 3.58486 13.40334 -0.01062
C 3.74949 30.56856 -0.00131
C 2.51131 29.87095 -0.01118
C 2.38537 28.519 -0.014
C 3.62963 27.74356 0.02147
C 3.65587 26.44348 0.00373
C 2.51 25.62357 -0.00191
C 2.57645 24.1858 0.00438
C 6.16196 14.77201 -0.00891
C 3.77926 23.54646 0.01291
C 2.56706 21.3661 0.00057
C 2.42461 19.95599 -0.01634
C 3.66089 19.10399 -0.00334
C 3.72285 17.62869 0.02339
C 2.40291 16.98044 0.01641
C 2.41244 15.55397 -0.00719
C 3.62952 14.83259 0.01364
C 3.93136 22.02112 0.00093
C 10.01384 12.70138 -0.03113
C 6.03155 13.34395 0.02819
C 4.45747 11.16068 -0.02971
C 8.31276 10.5507 -0.01952
C 8.41093 9.19329 -0.02813
C 7.32402 8.43767 0.00374
C 7.387 6.98522 0.00052
C 8.61769 6.34278 -0.03682
C 8.62252 4.96709 0.01965
C 7.3619 4.32553 0.02058
C 7.38411 2.92279 -0.01957
C 8.59248 2.16387 -0.0108
C 8.54175 0.75533 -0.00368
C 7.39977 0.02673 -0.02696
C 9.26479 32.5763 -0.00114
C 8.92551 20.47508 0.00228
C 9.77026 16.80748 0.00798
C 9.60897 15.65743 0.00422
C 7.00606 11.08412 0.05265
C 7.27798 12.56515 -0.01717
C 8.72532 13.31804 0.00244
C 8.56705 14.75212 0.02299
C 5.75918 10.31941 0.02894
C 5.8414 8.84128 -0.01789
C 4.93015 7.52897 0.00444
C 6.0691 6.46848 -0.00925
C 6.05834 5.09342 0.01877
C 4.83948 4.37124 0.01363
C 4.85031 2.85673 -0.02162
C 4.74029 12.65931 0.00165
C 6.07743 2.15702 0.00415
C 4.92479 34.04188 0.02162
C 7.49859 32.64799 0.0076
C 7.17945 20.1011 0.01241
C 8.35014 19.21508 -0.01454
C 8.59578 17.65651 0.01945
C 7.41868 16.91931 0.01416
C 7.36417 15.47234 0.03542
C 6.17236 0.71933 -0.0014
C 23.33034 27.61488 -0.0055
C 23.49027 26.22905 0.01515
C 23.4829 9.14523 -0.00225
C 31.90216 24.09233 0.01927
C 33.07665 23.42529 0.01574
C 33.17958 22.03842 -0.02383
C 31.88171 21.36314 -0.01429
C 31.89509 19.96193 -0.0136
C 33.13684 19.20433 0.00594
C 33.16796 17.79915 -0.02474
C 31.94081 17.04008 0.00369
C 31.89305 15.6558 0.00455
C 33.12472 14.97811 -0.00644
C 33.01823 13.58369 -0.01839
C 31.86173 12.8427 0.00137
C 31.85909 11.42907 0.00199
C 33.09421 10.7364 0.04381
C 33.21815 9.31008 0.02806
C 31.97086 25.54483 0.03794
C 33.124 26.28257 -0.01779
C 33.09975 27.7265 0.00682
C 31.93424 28.41513 0.00026
C 29.28025 11.33037 -0.00944
C 30.56581 10.76591 -0.03735
C 30.71395 9.26439 -0.00971
C 29.45913 8.54413 0.01518
C 29.55022 7.17741 0.01908
C 30.80656 6.51803 0.07705
C 30.73173 5.0294 0.0103
C 32.00464 8.60609 0.01504
C 29.43405 4.28593 0.02108
C 30.77969 2.23571 0.00307
C 30.71351 0.75813 0.00346
C 29.4212 0.04739 0.01713
C 31.91738 32.67702 -0.01694
C 33.17846 31.90081 0.01428
C 33.19436 30.51417 -0.02142
C 31.94858 29.83898 0.0544
C 29.50228 2.89512 0.00716
C 29.35954 12.81149 -0.02155
C 32.05465 7.25242 -0.00069
C 33.22604 5.06988 -0.03838
C 34.40046 17.1044 0.02114
C 34.35246 15.64582 -0.02957
C 1.16125 14.89508 0.00343
C 1.18611 13.42839 -0.02656
C 34.33468 12.76669 -0.02442
C 0.03918 11.36299 -0.00027
C 1.21353 10.49218 -0.00583
C 0.22565 8.94674 -0.02302
C 0.30354 7.42233 -0.02849
C 1.45563 6.56675 0.02931
C 1.32443 5.19095 0.00628
C 0.01448 4.39629 -0.0345
C 0.02255 2.90933 -0.00931
C 1.21794 2.21063 -0.00939
C 1.22451 0.77359 -0.00468
C 1.21553 17.81859 0.00648
C 1.22503 19.23601 0.01223
C 34.42962 19.91486 -0.01678
C 34.40382 21.3368 0.01951
C 31.99015 4.42281 0.00349
C 31.9894 2.95547 -0.00323
C 33.26442 2.17854 -0.00841
C 33.19432 0.76885 0.0001
C 31.92702 0.07272 -0.02927
C 34.40903 32.69145 -0.01404
C 1.17585 32.02484 0.01027
C 33.35485 6.65245 0.04926
C 1.23268 30.54596 0.01831
C 34.3347 28.39762 -0.00439
C 1.18038 27.72864 -0.00598
C 1.18798 26.32309 -0.05239
C 34.35099 25.59287 0.03076
C 34.31482 24.12589 0.00723
C 1.2455 23.49265 0.02712
C 1.25496 22.06734 -0.02213
C 0.00373 29.89106 -0.01037
C 30.57868 13.55446 -0.01461
C 30.63749 14.99656 -0.01303
C 29.42542 15.7405 -0.0405
C 25.8632 9.17756 -0.01199
C 24.71886 8.43925 -0.00229
C 24.57507 7.07309 -0.00938
C 25.76955 6.2593 -0.0264
C 25.77326 4.85369 -0.01154
C 24.48626 4.20776 0.00684
C 24.50846 2.82518 -0.01052
C 25.77823 2.18801 -0.01679
C 25.7988 0.77942 0.00367
C 24.59959 0.06252 0.04306
C 26.96955 32.69466 0.00996
C 28.18615 31.9962 0.00195
C 28.21611 30.56079 -0.00802
C 27.01159 29.79438 -0.00218
C 27.01572 28.33221 -0.01654
C 25.48137 10.60047 -0.009
C 24.02834 10.69685 -0.00285
C 25.69286 23.63703 0.01423
C 24.65842 25.39842 0.02555
C 22.14746 8.70018 0.00071
C 22.16532 7.30452 -0.01107
C 23.31458 6.4987 -0.01586
C 23.33135 5.07846 -0.01971
C 22.06628 4.36467 -0.02118
C 22.11599 2.89116 0.00733
C 23.35707 2.12078 -0.00178
C 28.25456 27.68921 -0.00037
C 23.2516 0.68379 0.00768
C 24.5306 32.73376 0.03005
C 25.78754 31.9695 -0.04078
C 25.77762 30.58314 0.02117
C 24.49445 29.84014 0.02737
C 24.57707 28.3657 -0.00498
C 25.83438 27.61749 0.00135
C 25.86581 26.22575 0.03102
C 22.03595 34.02316 -0.0276
C 28.28785 26.28886 -0.0032
C 27.0299 25.55701 0.00622
C 26.96877 24.14302 -0.02815
C 29.48355 32.69166 0.04266
C 30.66345 31.94408 0.01324
C 30.67924 30.55643 0.0014
C 29.43261 29.86306 0.00924
C 29.49912 28.43491 0.02326
C 30.69578 27.65258 0.00261
C 30.73848 26.27475 0.03265
C 26.95551 0.02654 0.01177
C 29.50682 25.53257 -0.02049
C 30.67102 23.41714 -0.01415
C 30.63946 22.04399 -0.03039
C 29.43426 21.35935 0.01836
C 29.46493 19.97679 0.03531
C 30.67612 19.2058 -0.00669
C 30.70604 17.86001 0.0101
C 29.40357 17.12424 0.01705
C 29.45485 24.13211 -0.01854
C 3.74218 31.99856 -0.02896
C 28.20385 0.73146 -0.00416
C 27.01825 2.83014 0.01799
C 28.12664 23.46059 -0.00942
C 28.19759 22.05644 0.00487
C 27.05433 21.32773 0.00826
C 28.25059 19.3064 -0.00294
C 28.22133 17.86339 0.00152
C 28.14847 15.02779 0.01257
C 28.14512 13.64907 0.02316
C 28.22937 2.15536 0.01699
C 26.89344 12.89143 0.04185
C 28.02255 10.68453 -0.00621
C 28.20232 9.259 0.02611
C 27.03237 8.4819 0.02198
C 27.12604 7.04595 0.01094
C 28.3466 6.45494 0.00235
C 28.16814 4.99573 0.01495
C 27.02229 4.27798 0.01259
C 26.63673 11.43473 0.00194
C 2.3937 32.74032 -0.01004
