330
Graphene
C 34.41224 0.06901 0.01295
C 11.0607 22.0085 -0.04147
C 9.843 21.21681 -0.05302
C 9.99625 19.75561 0.00213
C 11.21533 19.02402 -0.00066
C 10.99625 17.74226 -0.00289
C 9.86698 17.01933 0.00028
C 9.83955 15.57273 -0.02213
C 11.06014 23.46115 -0.02815
C 10.89098 14.48002 0.03698
C 9.82731 12.5994 -0.00491
C 9.85921 11.23818 0.03338
C 11.16963 10.60134 -0.0258
C 11.11171 9.15338 -0.0331
C 9.83441 8.48392 -0.00316
C 9.83098 7.14236 0.02188
C 11.0728 6.28825 -0.01979
C 11.12275 13.35977 -0.00109
C 9.82403 24.22688 0.03505
C 9.82754 25.57338 0.01443
C 10.96592 26.27722 0.00979
C 8.55439 10.62938 0.02058
C 8.5767 9.16638 -0.01957
C 7.36357 8.57895 -0.0108
C 7.36458 7.15959 -0.00368
C 8.68442 6.3925 -0.02696
C 8.60947 4.98319 -0.00114
C 7.35825 4.34763 0.00228
C 7.42969 2.90048 0.00798
C 8.63093 2.21967 0.00422
C 8.5988 0.76055 0.0351
C 7.41389 0.00075 -0.03113
C 9.77162 32.70812 0.02098
C 11.02705 31.99426 0.01848
C 11.08755 30.57215 -0.00619
C 9.77012 29.82474 -0.02162
C 9.80479 28.38594 0.00889
C 11.01773 27.70872 -0.00481
C 11.09787 4.91236 0.02691
C 7.36541 11.29286 0.01965
C 9.80298 4.27797 -0.01581
C 11.09031 2.16506 0.04892
C 12.27075 4.32263 0.00742
C 12.27966 2.92383 -0.01594
C 13.53904 2.17686 0.0106
C 13.53335 0.75517 -0.01154
C 12.30649 0.1218 -0.01721
C 14.7375 32.70628 -0.02422
C 15.92159 31.96375 0.01277
C 13.56079 5.00363 -0.00311
C 15.95482 30.56292 0.00096
C 14.6558 28.51263 0.01087
C 15.86882 27.73502 0.00199
C 15.8701 26.35692 0.01511
C 14.6971 25.58961 -0.00478
C 14.70885 24.17141 -0.01662
C 15.9859 23.60488 -0.01185
C 15.98139 22.01623 0.01126
C 14.71371 29.93275 -0.01527
C 13.53181 6.44833 0.00675
C 12.27541 6.95689 -0.00865
C 12.32496 8.44525 0.0058
C 11.03911 0.77213 -0.00111
C 9.86129 0.02127 -0.03557
C 12.30952 32.69849 0.03754
C 13.48753 32.04527 0.01739
C 13.47897 30.61123 0.00755
C 12.32393 29.84565 -0.0054
C 12.20085 28.42722 0.00667
C 13.44259 27.68638 0.00143
C 13.47751 26.27437 -0.017
C 12.28386 25.5363 0.00364
C 12.34199 24.16494 -0.00831
C 13.51631 23.4521 -0.02957
C 13.49814 22.05698 -0.04422
C 12.25998 21.33741 0.00654
C 12.34922 19.93173 -0.00703
C 12.46076 11.13559 -0.04076
C 13.62478 9.06102 -0.00652
C 9.83473 2.88207 0.01452
C 7.38237 12.7656 -0.03682
C 8.59583 13.37808 0.00052
C 8.62075 14.79355 0.00374
C 2.37247 8.54987 0.02147
C 2.47289 7.07466 0.00373
C 3.62839 6.30466 -0.00191
C 3.6385 4.92512 0.00438
C 2.4845 4.21125 0.01291
C 2.44091 2.85169 0.00093
C 3.74534 2.1158 0.00057
C 3.59627 9.27656 -0.014
C 3.70874 0.71266 -0.01634
C 4.96063 32.73193 0.02339
C 6.17421 31.92135 0.01641
C 6.11063 30.53632 -0.00719
C 4.85301 29.88764 0.01364
C 4.87479 28.41766 -0.01062
C 6.14536 27.80744 -0.00033
C 6.11846 26.31607 0.03589
C 2.48727 0.02732 -0.00334
C 3.64168 10.63604 -0.01118
C 2.36379 11.32381 -0.00131
C 2.41862 12.72994 -0.02896
C 3.71555 30.62351 -0.00095
C 2.4608 29.94893 0.01572
C 2.29878 28.54105 -0.04848
C 3.61796 27.76436 -0.00892
C 3.62346 26.36498 -0.01362
C 2.38223 25.64864 -0.0008
C 2.43621 24.13564 0.0288
C 3.64011 23.44466 0.00393
C 3.69792 22.02005 0.00895
C 2.43325 21.30723 0.00685
C 2.54973 19.91451 0.02888
C 3.72001 19.18245 -0.00482
C 3.73057 17.69576 -0.01384
C 2.44587 17.07864 0.03693
C 2.39133 15.64816 0.01745
C 3.70705 14.83443 0.00488
C 3.67189 13.40765 -0.01004
C 4.83765 25.55202 -0.02759
C 4.87332 24.18884 0.0402
C 6.11507 23.49707 0.00572
C 6.12689 22.04344 0.03592
C 7.34301 32.65334 0.01363
C 8.5713 31.96046 -0.02162
C 8.49346 30.57179 0.00415
C 7.3603 29.85862 -0.0014
C 7.37686 28.40407 0.02162
C 8.57602 27.64851 0.0076
C 8.54147 26.22868 0.01241
C 7.32449 25.57438 -0.01454
C 7.35402 24.19947 0.01945
C 8.61868 23.46487 0.01416
C 8.66157 21.98913 0.03542
C 7.36054 21.25482 0.02299
C 7.38159 19.8062 0.00244
C 8.7008 19.12067 -0.01717
C 8.64309 17.71448 0.05265
C 7.44036 17.03587 -0.01952
C 7.48523 15.58574 -0.02813
C 4.93376 0.03926 0.01877
C 14.88665 21.50483 0.01852
C 6.15817 0.73949 -0.00925
C 4.9584 2.84298 -0.01789
C 4.94102 21.33488 0.00406
C 4.96602 19.92567 0.00943
C 6.12713 19.20765 0.02841
C 6.17331 17.716 -0.01111
C 4.96273 17.03214 -0.01275
C 4.90602 15.58812 0.00985
C 6.12402 14.78213 -0.02245
C 6.14221 13.41587 -0.00428
C 4.862 12.74633 0.03101
C 4.87067 11.352 -0.01536
C 6.14985 10.62064 -0.02689
C 6.11021 9.24773 -0.01046
C 4.83889 8.54334 -0.00891
C 4.89034 7.10755 0.02819
C 6.12798 6.44096 0.00165
C 6.11698 5.04619 -0.02971
C 4.92755 4.28353 0.02894
C 6.2089 2.11765 0.00444
C 14.71536 7.14786 -0.00381
C 16.07247 6.55835 0.03046
C 16.05066 5.1158 0.0296
C 29.56526 0.04122 0.00026
C 31.93466 32.76359 0.00682
C 33.10998 32.04925 -0.01779
C 33.10233 30.60893 0.03794
C 31.90993 29.94991 0.01927
C 31.88505 28.52516 0.01574
C 33.16026 27.86078 -0.02383
C 30.53806 0.69101 0.0544
C 33.1241 26.3713 -0.01429
C 31.88845 24.14564 0.00594
C 33.1448 23.52189 -0.02474
C 33.20349 22.079 0.00369
C 31.93912 21.34915 0.00455
C 31.88838 19.98912 -0.00644
C 33.16251 19.24154 -0.01839
C 33.19564 17.79606 0.00137
C 31.89165 25.59438 -0.0136
C 30.75418 10.58131 -0.02142
C 29.8019 11.53241 0.01428
C 29.45601 12.76482 -0.01694
C 30.68201 30.65251 0.01705
C 29.44498 29.89598 -0.0405
C 29.45794 28.42822 -0.01303
C 30.71269 27.75513 -0.01461
C 30.68094 26.28401 -0.02155
C 29.46132 25.66215 -0.00944
C 29.43051 24.17064 -0.03735
C 30.66654 23.48744 -0.00971
C 30.63837 21.99748 0.01518
C 29.42385 21.31286 0.01908
C 29.36431 19.82505 0.07705
C 30.65613 19.19288 0.0103
C 30.77847 17.78756 0.02108
C 29.58294 16.97608 0.00716
C 29.50761 15.56108 0.00307
C 30.79181 14.96042 0.00346
C 30.77632 13.5326 0.01713
C 32.00248 17.05559 0.00199
C 31.96962 15.68932 0.04381
C 33.23682 14.92335 0.02806
C 33.15879 13.4769 0.01504
C 1.22965 17.76973 0.01223
C 34.36459 17.04848 0.00648
C 34.40188 15.60708 0.02114
C 1.22813 14.93289 -0.02957
C 1.26348 13.47005 0.00343
C 34.42477 12.76763 -0.02656
C 34.3779 11.35075 -0.02442
C 1.19711 10.62643 -0.00027
C 1.12449 9.06356 -0.00583
C 34.29161 8.36219 -0.02302
C 0.03629 6.95045 -0.02849
C 1.27962 6.34753 0.02931
C 1.29103 4.88323 0.00628
C 0.05899 4.37309 -0.0345
C 34.27646 3.0198 -0.00931
C 1.16576 2.18009 -0.00939
C 1.19295 0.78835 -0.00468
C 1.25791 19.21813 -0.01678
C 30.64695 32.04571 0.0101
C 34.42073 19.98186 0.01951
C 1.17352 21.99463 0.02712
C 31.98681 12.7462 -0.00069
C 32.05111 11.36026 0.04926
C 33.26645 10.61268 -0.03838
C 33.13467 9.21114 0.00349
C 33.24963 2.13291 -0.00323
C 33.20495 0.74219 -0.00841
C 31.87323 0.08065 0.0001
C 34.38082 32.69309 -0.02927
C 1.16575 31.99632 -0.01404
C 1.17583 30.60121 0.01027
C 34.38389 29.95111 0.01831
C 34.34124 28.50591 -0.01037
C 1.11885 27.81121 -0.00439
C 1.0963 26.3863 -0.00598
C 34.32134 25.70249 -0.05239
C 34.36138 24.25397 0.03076
C 1.18273 23.49924 0.00723
C 34.3821 21.34231 -0.02213
C 3.76163 31.99194 0.03007
C 29.42938 32.66736 -0.00669
C 28.30217 17.68789 0.01836
C 17.21351 0.06586 0.02737
C 19.63162 32.55457 -0.00498
C 20.90647 31.86748 0.00135
C 20.85771 30.44505 0.03102
C 19.65078 29.80387 0.02555
C 19.66064 28.31699 0.01423
C 20.90553 27.61558 -0.00285
C 18.4207 0.69939 0.02117
C 20.84924 26.14876 -0.009
C 19.63629 24.09087 -0.00229
C 20.89512 23.5948 -0.00938
C 20.97275 4.75592 -0.0264
C 19.59244 4.33222 -0.01154
C 19.69926 2.86287 0.00684
C 20.90956 2.11081 -0.01052
C 20.98085 0.68437 -0.01679
C 19.59861 25.47357 -0.01199
C 18.44805 2.16922 -0.04078
C 17.21086 2.89972 0.03005
C 17.23082 4.39233 -0.0276
C 14.80201 4.29842 0.03374
C 14.73933 2.86302 -0.02845
C 15.96826 2.16783 -0.03213
C 15.97973 0.69685 0.02239
C 14.73425 0.021 0.01153
C 17.19953 32.67034 0.02734
C 18.40042 31.94592 -0.0055
C 18.3406 30.51758 0.01515
C 17.11243 29.84451 -0.00225
C 17.14173 28.42772 0.00071
C 18.42805 27.75806 -0.01107
C 18.40909 26.21452 -0.01586
C 17.12664 25.62516 -0.01971
C 17.16895 24.21269 -0.02118
C 18.34079 23.31163 0.00733
C 18.28354 6.48618 -0.00178
C 18.37913 5.06276 0.00768
C 19.68102 0.00823 0.00367
C 22.14218 32.65292 0.04306
C 23.30821 31.89211 0.00996
C 23.29907 30.52365 0.00195
C 25.79643 23.41723 0.01495
C 25.64426 22.03151 0.01259
C 24.88027 33.98425 0.01799
C 26.93865 32.7351 0.01699
C 28.19107 31.97085 -0.00416
C 28.27686 30.62414 0.01177
C 27.0504 29.84623 0.04266
C 26.96395 28.41236 0.01324
C 28.19858 27.65457 0.0014
C 28.21933 26.27481 0.00924
C 26.92213 25.52796 0.02326
C 26.97615 24.08977 0.00261
C 28.24574 23.39428 0.03265
C 28.13338 22.01683 -0.02049
C 26.92445 21.25018 -0.01854
C 26.94084 19.83385 -0.01415
C 28.14915 19.14067 -0.03039
C 24.48095 24.04776 0.00235
C 26.74595 0.03813 0.03531
C 24.48739 25.46572 0.01094
C 25.74559 27.58479 0.02611
C 22.15587 29.73433 -0.00802
C 22.18345 28.34362 -0.00218
C 23.3051 27.66629 -0.01654
C 23.34793 26.19958 -0.00037
C 22.11408 25.50923 -0.0032
C 22.1708 24.03591 0.00622
C 23.44987 23.26137 -0.02815
C 21.95713 4.24111 -0.00942
C 22.24152 2.71161 0.00487
C 23.38108 1.97258 0.00826
C 23.56409 0.63218 -0.00294
C 22.22214 34.01394 0.00152
C 24.63248 32.62473 0.01257
C 25.77313 31.84663 0.02316
C 25.82348 30.4843 0.04185
C 24.6041 29.74423 0.00194
C 24.55906 28.34262 -0.00621
C 25.76879 26.20002 0.02198
C 2.47423 32.66276 0.00054
