279
Graphene
C 0.01887 0.03234 0.01295
C 13.58484 9.20154 0.01277
C 13.43846 10.70914 -0.02422
C 12.31202 11.38923 -0.01721
C 13.54056 31.94592 -0.01154
C 12.3566 32.67714 0.0106
C 9.88036 34.06828 -0.01594
C 11.03547 0.66762 0.00742
C 11.02587 2.11773 -0.00311
C 9.80049 2.72573 0.00675
C 11.05845 4.93364 -0.00865
C 11.12539 9.27695 0.0058
C 11.12378 10.62154 -0.00652
C 9.88001 11.31926 -0.04076
C 9.88427 12.74127 -0.00703
C 11.02013 13.59478 0.00654
C 9.83307 15.5987 -0.04422
C 9.83061 28.3565 -0.02957
C 7.34157 17.00877 -0.01581
C 7.42772 15.5626 0.01452
C 8.57812 14.88578 0.04892
C 8.60074 13.51409 -0.00111
C 7.37592 12.7426 -0.03557
C 7.37306 11.37954 0.03754
C 12.17984 8.53577 0.00096
C 8.65927 10.68293 0.01739
C 8.64856 0.72424 -0.0054
C 7.40357 0.01525 0.00667
C 9.86127 32.64482 0.00143
C 11.06802 31.95811 -0.017
C 11.08434 30.56332 0.00364
C 9.90175 29.83543 -0.00831
C 8.62182 2.20817 0.00755
C 8.58025 17.82114 0.02691
C 12.28647 7.15183 -0.01527
C 13.55569 4.89187 0.00199
C 19.74224 32.64734 0.02737
C 17.23323 0.03316 0.02117
C 18.49316 0.69468 -0.04078
C 18.41702 2.08023 0.03005
C 17.20129 2.88542 -0.0276
C 17.20805 4.23394 0.00768
C 18.38489 4.92715 -0.00178
C 18.44614 6.37419 0.00733
C 17.27645 7.10725 -0.02118
C 17.21614 8.54954 -0.01971
C 18.47425 9.24906 -0.01586
C 18.39803 10.71135 -0.01107
C 17.13468 32.70077 0.00071
C 14.7333 34.02666 -0.00225
C 15.97724 0.68617 0.01515
C 15.98159 2.17101 -0.0055
C 14.73453 2.79523 0.02734
C 12.2403 4.27069 0.01511
C 12.27993 2.85484 -0.00478
C 13.51824 2.10873 -0.01662
C 13.56823 0.75506 -0.01185
C 12.33029 34.03299 0.01126
C 14.75936 32.61694 0.01852
C 13.53155 6.36228 0.01087
C 16.07461 31.91909 -0.00381
C 15.93914 9.24613 0.0296
C 14.72916 8.47441 0.03374
C 14.77431 7.04534 -0.02845
C 16.00775 6.36357 -0.03213
C 15.97395 5.02979 0.02239
C 14.73499 4.24845 0.01153
C 15.94843 10.63352 0.03046
C 20.84685 32.05561 -0.00498
C 8.60824 19.16263 -0.01979
C 7.34741 21.32415 -0.00316
C 6.19478 31.93055 -0.03682
C 4.91473 32.64847 0.00052
C 2.47319 0.01168 0.00374
C 3.68511 0.73089 -0.02813
C 3.71621 2.12976 -0.01952
C 2.4756 2.83305 0.05265
C 2.48766 4.22673 -0.01717
C 3.66442 4.92604 0.00244
C 2.47623 7.07821 0.02299
C 2.51404 8.53358 0.03542
C 3.64604 9.27205 0.01416
C 3.65196 10.66086 0.01945
C 2.4166 11.36511 -0.01454
C 2.44706 12.76187 0.01241
C 3.63355 13.48024 0.0076
C 3.69719 14.93201 0.02162
C 2.5049 15.61241 -0.0014
C 3.66677 30.50898 -0.02689
C 2.46661 29.77852 -0.01046
C 2.45411 28.37381 -0.00891
C 3.71344 27.66493 0.02819
C 3.65936 26.25469 0.00165
C 2.48522 25.55929 -0.02971
C 6.21009 30.54288 0.01965
C 2.42579 24.19362 0.02894
C 3.68629 21.97942 0.00444
C 2.4182 21.30992 -0.00925
C 2.4487 19.89162 0.01877
C 3.7076 19.20419 0.01363
C 3.70291 17.6792 -0.02162
C 2.42413 17.05518 0.00415
C 3.65099 23.46673 -0.01789
C 7.34741 19.87945 0.02188
C 4.9218 29.81756 0.02058
C 6.14609 27.74612 -0.0108
C 8.61422 21.99623 -0.0331
C 8.61849 23.41132 -0.0258
C 7.38607 24.14602 0.03338
C 7.38674 25.55048 -0.00491
C 8.53041 26.29449 -0.00109
C 8.64352 27.70604 0.03698
C 7.37902 28.37898 -0.02213
C 7.38694 29.80923 0.00028
C 8.5768 30.56109 -0.00289
C 8.64072 31.89714 -0.00066
C 7.42944 32.67973 0.00213
C 4.89537 0.00609 -0.05302
C 6.23384 0.7119 -0.04147
C 6.1297 2.13084 -0.02815
C 4.87255 2.78481 0.03505
C 6.12517 10.77842 0.01443
C 4.90946 11.36116 0.00979
C 6.18352 26.25514 -0.00368
C 4.90647 25.56229 -0.02696
C 4.96068 24.12691 -0.00114
C 6.12226 23.39588 0.00228
C 6.17202 21.9991 0.00798
C 4.8181 21.26732 0.00422
C 4.89746 28.46582 -0.01957
C 4.88461 19.90611 0.0351
C 6.1309 17.74993 0.02098
C 4.95153 17.05282 0.01848
C 4.92833 15.55564 -0.00619
C 6.18819 14.93658 -0.02162
C 6.16546 13.53789 0.00889
C 4.90071 12.82551 -0.00481
C 6.12902 19.14881 -0.03113
C 3.63674 31.88776 -0.01536
C 20.92978 9.20157 0.00135
C 19.70197 7.08226 0.02555
C 31.98722 4.23769 -0.03838
C 33.20364 5.00055 0.04926
C 33.19937 6.45223 -0.00069
C 31.91933 7.11216 0.01504
C 32.0289 8.50259 0.02806
C 33.24121 9.23731 0.04381
C 33.21371 10.67975 0.00199
C 31.90898 11.24942 0.00137
C 31.94887 12.75484 -0.01839
C 33.16277 13.49288 -0.00644
C 33.17024 14.83173 0.00455
C 33.23659 17.72559 0.00369
C 33.1717 19.19133 -0.02474
C 31.94553 19.91811 0.00594
C 31.98631 21.24707 -0.0136
C 33.19098 22.04959 -0.01429
C 33.20725 23.45712 -0.02383
C 29.54315 4.26456 0.00716
C 29.51232 2.81831 0.00307
C 30.75733 2.12161 0.00346
C 30.75744 0.73324 0.01713
C 29.50928 34.07694 -0.01694
C 31.94214 32.69494 0.01428
C 32.01745 2.84092 0.00349
C 33.22032 31.98817 -0.02142
C 31.97931 29.85771 0.00026
C 32.00439 28.45073 0.00682
C 33.16363 27.76225 -0.01779
C 33.19213 26.31722 0.03794
C 32.00177 25.56151 0.01927
C 31.93571 24.1283 0.01574
C 33.22909 30.56399 0.0544
C 30.76222 4.96573 0.02108
C 33.21826 2.09973 -0.00323
C 31.95138 0.03536 0.0001
C 1.22621 0.75255 -0.00468
C 1.26898 2.14932 -0.00939
C 34.38453 2.82091 -0.00931
C 34.39292 4.27295 -0.0345
C 1.21276 4.92214 0.00628
C 1.2481 6.3594 0.02931
C 34.38388 7.15111 -0.02849
C 34.40371 8.54494 -0.02302
C 1.26811 9.2828 -0.00583
C 1.23475 10.62641 -0.00027
C 34.40835 11.38043 -0.02442
C 34.39547 12.75427 -0.02656
C 1.23664 13.49495 0.00343
C 1.2062 14.94112 -0.02957
C 34.3363 15.60162 0.02114
C 34.3829 17.01642 0.00648
C 1.19231 17.6937 0.01223
C 0.00508 32.7076 -0.02927
C 1.18046 31.96027 -0.01404
C 1.2429 30.56316 0.01027
C 34.43275 29.79059 0.01831
C 34.4285 28.40638 -0.01037
C 1.22808 27.70233 -0.00439
C 33.23457 0.69001 -0.00841
C 1.26085 26.31339 -0.00598
C 34.41618 24.14389 0.03076
C 1.21011 23.45172 0.00723
C 1.19461 22.02558 0.02712
C 34.3686 21.35316 -0.02213
C 0.04342 19.88798 0.01951
C 1.24726 19.13601 -0.01678
C 0.05078 25.5587 -0.05239
C 19.68084 8.53641 0.03102
C 30.72049 6.40755 0.0103
C 29.52991 8.54522 0.01908
C 25.81177 2.11396 0.00194
C 24.59442 2.82195 0.04185
C 24.56135 4.27352 0.02316
C 25.87215 5.00508 0.01257
C 25.83602 6.31499 0.00152
C 24.62764 7.09666 -0.00294
C 24.59423 8.52363 0.00826
C 25.81647 27.72215 0.00487
C 24.57572 29.77913 -0.00942
C 25.77136 30.5184 -0.02815
C 25.86117 31.90549 0.00622
C 24.57862 32.62997 -0.0032
C 22.1099 0.01822 -0.00037
C 23.33761 0.69861 -0.01654
C 23.33171 2.17454 -0.00218
C 22.12366 2.86174 -0.00802
C 22.14358 4.2143 0.00195
C 20.93356 6.38496 0.01423
C 20.91488 4.98953 -0.00285
C 19.73171 4.23875 -0.009
C 19.67423 2.75812 -0.01199
C 20.90941 2.14849 -0.00229
C 20.96057 0.70655 -0.00938
C 25.8035 0.71577 -0.00621
C 19.67947 34.06442 -0.0264
C 23.35894 31.95341 0.00684
C 23.3729 30.49023 -0.01052
C 22.16183 8.5929 -0.01679
C 22.12368 7.12423 0.00367
C 23.40723 6.4471 0.04306
C 23.32181 5.00166 0.00996
C 22.16104 32.67059 -0.01154
C 29.50945 7.0978 0.07705
C 24.63928 0.05173 0.02611
C 28.32386 31.93498 0.01094
C 30.73021 9.19484 0.01518
C 30.72393 10.65753 -0.00971
C 30.75867 22.06273 -0.03735
C 30.78073 23.46441 -0.00944
C 29.48442 24.06338 -0.02155
C 29.46894 25.54231 -0.01461
C 30.74181 26.26915 -0.01303
C 30.82519 27.69608 -0.0405
C 29.46557 28.35508 0.01705
C 29.45419 29.82085 0.0101
C 30.73475 30.47892 -0.00669
C 30.71672 31.93353 0.03531
C 29.51175 32.59523 0.01836
C 27.07512 0.07203 -0.03039
C 28.29647 0.76834 -0.01415
C 28.29353 2.13856 -0.01854
C 27.05538 2.78881 -0.02049
C 28.23932 30.50167 0.00235
C 26.99293 29.83428 0.01495
C 27.04906 28.41816 0.01259
C 28.32501 27.63815 0.01799
C 28.27297 26.24892 0.01699
C 27.02062 25.56524 -0.00416
C 27.06797 32.68457 0.02198
C 27.04566 24.21154 0.01177
C 28.2211 9.22165 0.01324
C 27.05888 8.51846 0.0014
C 27.05435 7.12208 0.00924
C 28.31637 6.37659 0.02326
C 28.28368 4.95615 0.00261
C 27.03114 4.20646 0.03265
C 28.26079 23.42563 0.04266
C 2.44004 32.67395 0.03101
