324
Graphene
C 34.40785 0.01684 0.01295
C 9.80384 12.79244 -0.00066
C 9.78697 11.32234 -0.00289
C 11.09329 10.6439 0.00028
C 11.01251 9.27001 -0.02213
C 9.73101 8.56354 0.03698
C 9.81778 7.11689 -0.00109
C 11.11032 6.45565 -0.00491
C 10.88833 13.65964 0.00213
C 11.11524 5.08888 0.03338
C 9.8738 2.9067 -0.0331
C 11.10049 2.14553 -0.00316
C 11.08927 0.71629 0.02188
C 9.88494 34.02775 -0.01979
C 12.24871 32.67444 0.02691
C 13.54562 31.90673 -0.01581
C 13.54869 30.42843 0.01452
C 9.8519 4.3894 -0.0258
C 12.35738 29.69954 0.04892
C 9.67017 24.17447 -0.05302
C 11.1433 26.19927 -0.02815
C 8.55527 9.18875 -0.02696
C 7.319 8.48475 -0.00114
C 7.38261 7.07715 0.00228
C 8.64782 6.35955 0.00798
C 8.52523 4.9645 0.00422
C 7.31416 4.21546 0.0351
C 7.3923 2.84387 -0.03113
C 9.74895 25.55674 -0.04147
C 8.676 2.17251 0.02098
C 7.43865 0.01949 -0.00619
C 9.89443 32.55662 -0.02162
C 11.06628 31.85365 0.00889
C 11.1484 30.46088 -0.00481
C 9.84231 29.73422 0.00979
C 9.8874 28.40505 0.01443
C 11.17128 27.5897 0.03505
C 8.67631 0.71275 0.01848
C 12.36158 28.27812 -0.00111
C 13.65534 27.49045 -0.03557
C 13.47457 26.02884 0.03754
C 15.05343 11.49578 -0.01154
C 16.0752 10.62685 -0.01721
C 15.90121 9.20586 -0.02422
C 14.71874 8.65515 0.01277
C 14.75964 7.16464 0.00096
C 16.00403 6.42066 -0.01527
C 15.98193 4.9513 0.01087
C 14.57427 12.812 0.0106
C 14.78858 4.23857 0.00199
C 16.0011 2.15285 -0.00478
C 15.94909 0.75894 -0.01662
C 14.75724 0.08768 -0.01185
C 17.15644 32.71854 0.01126
C 17.59603 10.80477 0.01852
C 18.19088 9.48889 -0.00381
C 17.0932 8.48431 0.03046
C 14.7479 2.84855 0.01511
C 14.78748 25.82651 -0.01594
C 14.63163 28.37071 0.00742
C 14.7605 29.61321 -0.00311
C 12.21295 25.253 0.01739
C 13.62167 13.34934 0.00755
C 12.16716 13.12022 -0.0054
C 12.3 11.46565 0.00667
C 13.63062 10.76525 0.00143
C 13.52255 9.32859 -0.017
C 12.263 8.72048 0.00364
C 12.35312 7.18708 -0.00831
C 13.54922 6.40501 -0.02957
C 13.53217 4.98846 -0.04422
C 12.31184 4.30236 0.00654
C 12.29374 2.85428 -0.00703
C 13.52436 2.1503 -0.04076
C 13.51187 0.71776 -0.00652
C 12.25914 34.06502 0.0058
C 14.84022 32.60808 -0.00865
C 16.09317 31.97712 0.00675
C 8.57381 10.62 -0.00368
C 17.20824 7.14796 0.0296
C 7.24027 11.34173 -0.0108
C 8.49829 13.43253 0.02058
C 3.59607 9.20528 0.00093
C 2.36986 8.47137 0.00057
C 2.41211 7.12864 -0.01634
C 3.70525 6.31806 -0.00334
C 3.63114 4.92593 0.02339
C 2.33469 4.2545 0.01641
C 2.46194 2.84334 -0.00719
C 3.55866 10.71932 0.01291
C 3.68478 2.12312 0.01364
C 2.4166 0.045 -0.00033
C 4.96571 32.73032 0.03589
C 6.15321 31.95678 -0.02759
C 6.24991 30.48845 0.0402
C 4.95025 29.82977 0.00572
C 4.9108 28.43878 0.03592
C 6.20393 27.73751 0.00406
C 3.69008 0.75583 -0.01062
C 6.18874 26.25254 0.00943
C 2.39966 11.43839 0.00438
C 3.65226 13.56221 0.00373
C 3.76246 30.55433 0.0288
C 2.51215 29.96856 0.00393
C 2.36294 28.50725 0.00895
C 3.55046 27.71258 0.00685
C 3.64425 26.29109 0.02888
C 2.37369 25.62481 -0.00482
C 2.4475 24.15991 -0.01384
C 2.44803 12.85216 -0.00191
C 3.64076 23.45904 0.03693
C 2.4263 21.37998 0.00488
C 2.4714 19.95831 -0.01004
C 3.64456 19.16197 -0.02896
C 3.69276 17.73352 -0.00131
C 2.42164 17.11506 -0.01118
C 2.42436 15.70684 -0.014
C 3.67224 14.93101 0.02147
C 3.61612 22.02959 0.01745
C 4.88751 25.65678 0.02841
C 4.8559 24.11397 -0.01111
C 6.07341 23.48377 -0.01275
C 4.92423 0.0076 0.0076
C 7.43153 32.70901 0.01241
C 8.65448 31.90596 -0.01454
C 8.63788 30.49818 0.01945
C 7.47548 29.83171 0.01416
C 7.43134 28.4385 0.03542
C 8.65306 27.75161 0.02299
C 6.21275 0.70179 0.02162
C 8.56272 26.2992 0.00244
C 7.3178 24.14854 0.05265
C 8.51399 23.35214 -0.01952
C 7.35241 21.37364 -0.02813
C 7.25928 20.15824 0.00374
C 7.3817 17.02215 0.00052
C 7.57965 15.64662 -0.03682
C 8.61901 14.82411 0.01965
C 7.3813 25.63302 -0.01717
C 6.17476 2.14264 -0.0014
C 4.8632 2.87772 0.00415
C 4.88181 4.28486 -0.02162
C 6.17627 22.04863 0.00985
C 4.93274 21.27273 -0.02245
C 4.88928 19.83762 -0.00428
C 6.1395 19.20837 0.03101
C 6.16125 17.74562 -0.01536
C 4.90308 16.97284 -0.02689
C 4.95746 15.68577 -0.01046
C 6.16297 14.92802 -0.00891
C 6.08755 13.50296 0.02819
C 4.82432 12.89776 0.00165
C 4.85581 11.41459 -0.02971
C 6.06869 10.53974 0.02894
C 6.07425 9.21892 -0.01789
C 4.80679 8.5078 0.00444
C 4.87162 7.07635 -0.00925
C 6.12036 6.341 0.01877
C 6.10847 4.98381 0.01363
C 7.25098 12.72903 -0.01957
C 18.39957 6.47466 0.03374
C 18.44683 5.06233 -0.02845
C 17.22323 4.31928 -0.03213
C 33.11198 26.25725 0.00682
C 31.85058 25.56369 -0.01779
C 31.82352 24.18011 0.03794
C 33.09435 23.50535 0.01927
C 33.10717 22.08832 0.01574
C 31.94807 21.31303 -0.02383
C 32.02906 19.92175 -0.01429
C 33.14016 27.69273 0.00026
C 33.27802 19.24849 -0.0136
C 31.93533 17.0547 -0.02474
C 31.93106 15.63961 0.00369
C 33.1582 14.93021 0.00455
C 33.0927 13.47074 -0.00644
C 31.85185 12.78053 -0.01839
C 31.85742 11.35456 0.00137
C 33.15312 10.63237 0.00199
C 33.23435 17.81009 0.00594
C 33.13068 9.20812 0.04381
C 31.87619 28.4133 0.0544
C 33.1745 30.52104 0.01428
C 30.67925 13.48213 -0.01303
C 29.4254 12.73582 -0.01461
C 29.51998 11.39054 -0.02155
C 30.70778 10.61733 -0.00944
C 30.64139 9.26076 -0.03735
C 29.43224 8.45531 -0.00971
C 29.46826 7.03846 0.01518
C 31.9155 29.83939 -0.02142
C 30.66361 6.3448 0.01908
C 29.45483 4.2228 0.0103
C 29.48977 2.8188 0.02108
C 30.7039 2.0598 0.00716
C 30.68099 0.63756 0.00307
C 29.4687 34.04234 0.00346
C 31.81074 32.64596 0.01713
C 33.11108 31.947 -0.01694
C 30.65943 4.95251 0.07705
C 31.84993 8.51402 0.02806
C 31.84475 7.13482 0.01504
C 33.15332 6.40383 -0.00069
C 0.02346 17.14124 0.00648
C 34.39327 15.68199 0.02114
C 1.193 14.9603 -0.02957
C 1.194 13.56723 0.00343
C 34.30198 12.83099 -0.02656
C 34.34653 11.35195 -0.02442
C 1.12621 10.65432 -0.00027
C 1.2459 17.86202 0.01223
C 1.17619 9.19779 -0.00583
C 34.41345 7.07198 -0.02849
C 1.18731 6.36307 0.02931
C 1.11186 4.98039 0.00628
C 34.37602 4.23365 -0.0345
C 34.39967 2.80431 -0.00931
C 1.22757 2.05923 -0.00939
C 1.2273 0.66056 -0.00468
C 34.38183 8.51233 -0.02302
C 1.35723 19.20753 -0.01678
C 0.05624 19.95485 0.01951
C 34.3552 21.41852 -0.02213
C 33.12004 4.94312 0.04926
C 31.87041 4.17959 -0.03838
C 31.92812 2.81585 0.00349
C 33.14254 2.10715 -0.00323
C 33.13553 0.73389 -0.00841
C 31.89146 34.0642 0.0001
C 34.36389 32.64969 -0.02927
C 1.20905 32.00321 -0.01404
C 1.27267 30.60752 0.01027
C 34.39163 29.83169 0.01831
C 34.36282 28.44786 -0.01037
C 1.17854 27.74272 -0.00439
C 1.10736 26.30097 -0.00598
C 34.30829 25.57692 -0.05239
C 34.37635 24.16437 0.03076
C 1.22371 23.51552 0.00723
C 1.20704 22.0586 0.02712
C 30.69733 14.92571 -0.0405
C 29.51747 15.65664 0.01705
C 29.38587 17.14606 0.0101
C 30.68916 17.78539 -0.00669
C 22.05302 2.76063 0.03102
C 23.27439 2.09934 0.02555
C 23.40594 0.50986 0.01423
C 22.18298 0.06873 -0.00285
C 26.05498 22.19962 -0.009
C 24.59837 11.26475 -0.01199
C 25.82346 10.65116 -0.00229
C 22.06479 4.26698 0.00135
C 25.84153 9.20502 -0.00938
C 24.53574 7.12651 -0.01154
C 25.779 6.43453 0.00684
C 25.67858 4.93184 -0.01052
C 24.4659 4.23349 -0.01679
C 24.50649 2.81275 0.00367
C 25.73825 2.08418 0.04306
C 25.7556 0.67976 0.00996
C 24.51093 8.48563 -0.0264
C 23.26021 4.915 -0.00498
C 23.29021 6.38347 0.02737
C 22.03133 7.1392 0.02117
C 17.22442 2.91201 0.02239
C 18.44578 2.10842 0.01153
C 18.40214 0.69146 0.02734
C 17.18956 0.06049 -0.0055
C 20.82424 9.38228 0.01515
C 19.47841 8.82536 -0.00225
C 19.51286 7.24677 0.00071
C 20.78046 6.42435 -0.01107
C 20.92271 5.04694 -0.01586
C 19.72479 4.32106 -0.01971
C 19.62414 2.88938 -0.02118
C 20.80265 2.13468 0.00733
C 20.84039 0.55922 -0.00178
C 19.63184 34.00516 0.00768
C 23.53115 10.65131 -0.0276
C 23.31613 9.21047 0.03005
C 22.03119 8.68243 -0.04078
C 24.70505 33.97115 0.00195
C 3.72136 32.01642 -0.0008
C 26.95069 32.67741 -0.00802
C 28.11457 30.44824 -0.01654
C 28.24119 0.71809 0.01699
C 27.01567 34.07004 -0.00416
C 29.40263 32.61234 0.01177
C 30.6459 31.92804 0.04266
C 30.61584 30.55404 0.01324
C 29.40878 29.85641 0.0014
C 29.3717 28.48572 0.00924
C 28.19618 2.07376 0.01799
C 30.64257 27.70993 0.02326
C 29.35993 25.5605 0.03265
C 29.33102 24.10927 -0.02049
C 30.66342 23.41499 -0.01854
C 30.70583 22.03085 -0.01415
C 29.51225 21.31226 -0.03039
C 29.46776 19.84975 0.01836
C 30.74502 19.21107 0.03531
C 30.66761 26.30728 0.00261
C 26.89775 2.83595 0.01259
C 26.93617 4.21975 0.01495
C 28.22914 4.99735 0.00235
C 28.25934 27.56601 -0.00037
C 28.23939 26.34863 -0.0032
C 26.58871 23.18212 0.00622
C 28.01336 23.32594 -0.02815
C 28.2773 21.87929 -0.00942
C 27.10344 21.0308 0.00487
C 28.22005 19.25368 0.00826
C 28.22751 17.94346 -0.00294
C 28.296 15.02213 0.00152
C 28.21118 13.61936 0.01257
C 26.96283 12.76905 0.02316
C 27.09682 11.34274 0.04185
C 28.24313 10.64874 0.00194
C 28.21021 9.19488 -0.00621
C 27.00987 8.51746 0.02611
C 26.96717 7.11326 0.02198
C 28.14372 6.41082 0.01094
C 28.05105 31.79243 -0.00218
C 2.41369 32.72674 -0.01362
