348
Graphene
C 0.01393 0.01419 0.01295
C 14.74964 2.85254 0.00422
C 15.97247 2.13894 0.0351
C 15.97235 0.70212 -0.03113
C 14.76389 34.05647 0.02098
C 17.2441 32.65936 0.01848
C 18.4674 31.97134 -0.00619
C 18.41213 30.53439 -0.02162
C 17.19077 29.82746 0.00889
C 17.17846 28.35872 -0.00481
C 18.42175 27.67153 0.00979
C 18.48933 26.30468 0.01443
C 17.21049 25.52821 0.03505
C 18.47247 10.64228 -0.02815
C 18.48345 9.24071 -0.04147
C 17.19439 8.58482 -0.05302
C 17.21201 7.07688 0.00213
C 18.43493 6.34652 -0.00066
C 14.72749 4.23507 0.00798
C 16.0183 4.95335 0.00228
C 15.96253 6.36988 -0.00114
C 14.75028 7.09101 -0.02696
C 13.54184 27.63531 -0.01454
C 13.50032 26.30639 0.01945
C 12.24475 7.15819 0.01416
C 13.52194 6.41071 0.03542
C 13.58419 4.97645 0.02299
C 12.32116 4.26029 0.00244
C 12.31578 2.84687 -0.01717
C 13.53732 2.11948 0.05265
C 18.45442 4.96818 -0.00289
C 13.52436 0.69525 -0.01952
C 14.77175 32.68722 0.00374
C 15.95396 31.94363 0.00052
C 16.00566 30.58073 -0.03682
C 14.77671 29.79188 0.01965
C 14.77203 28.3649 0.02058
C 15.98487 27.70473 -0.01957
C 16.03721 26.26687 -0.0108
C 14.76116 8.49018 -0.00368
C 12.27878 0.00476 -0.02813
C 17.27179 4.2401 0.00028
C 17.2044 2.82676 -0.02213
C 18.4534 2.13372 0.03698
C 19.7359 2.85176 -0.00831
C 20.91101 2.15445 -0.02957
C 20.91566 0.73261 -0.04422
C 19.6564 0.07372 0.00654
C 22.11152 32.64034 -0.00703
C 23.37495 31.90963 -0.04076
C 23.40191 30.52784 -0.00652
C 22.14658 29.83848 0.0058
C 19.68912 4.28576 0.00364
C 22.11336 28.39974 -0.00865
C 23.34789 26.28601 -0.00311
C 22.15377 25.54253 0.00742
C 22.19033 24.12993 -0.01594
C 23.38175 23.3903 0.0106
C 23.36775 22.02834 -0.01154
C 22.12365 21.29494 -0.01721
C 22.12642 19.8543 -0.02422
C 23.34056 19.15699 0.01277
C 23.37419 27.68714 0.00675
C 12.30551 28.37591 0.01241
C 20.92163 4.94571 -0.017
C 19.65928 7.12621 0.00667
C 18.41782 0.6605 -0.00109
C 17.19228 34.05465 -0.00491
C 19.62312 32.68001 0.03338
C 20.90908 31.96756 -0.0258
C 20.88873 30.52045 -0.0331
C 19.66085 29.82899 -0.00316
C 19.67976 28.39969 0.02188
C 20.93803 27.69436 -0.01979
C 20.92157 6.3915 0.00143
C 20.93833 26.31049 0.02691
C 19.68084 24.1509 0.01452
C 20.91086 23.38555 0.04892
C 20.92357 22.00966 -0.00111
C 20.88726 13.46145 -0.03557
C 19.71608 11.37475 0.03754
C 20.90328 10.63523 0.01739
C 20.87256 9.22509 0.00755
C 19.67342 8.52 -0.0054
C 19.68423 25.55664 -0.01581
C 23.30133 17.72269 0.00096
C 12.29973 29.80632 0.0076
C 13.56179 31.94897 -0.0014
C 3.65194 4.96708 -0.01362
C 2.4426 4.26095 -0.0008
C 2.45327 2.83138 0.0288
C 3.70719 2.14194 0.00393
C 3.6766 0.71183 0.00895
C 2.4726 0.01102 0.00685
C 4.9511 32.64796 0.02888
C 6.13267 31.98054 -0.00482
C 6.14257 30.48388 -0.01384
C 4.91623 29.81908 0.03693
C 4.89832 28.38314 0.01745
C 6.1344 27.72649 0.00488
C 6.11712 26.24709 -0.01004
C 4.89789 25.6019 -0.02896
C 4.90809 24.18705 -0.00131
C 4.93162 11.32209 -0.01118
C 6.11329 10.66071 -0.014
C 3.70011 6.40773 -0.00892
C 2.43487 7.06546 -0.04848
C 2.43602 8.54749 0.01572
C 3.70369 9.22043 -0.00095
C 3.72036 30.51421 -0.02929
C 2.43583 29.86309 -0.00966
C 2.44946 28.40845 -0.03337
C 3.68386 27.68071 0.01227
C 3.71082 26.29755 0.00873
C 2.45027 25.56589 -0.00049
C 2.46958 24.10856 0.00848
C 3.75362 23.44484 -0.01303
C 6.13512 9.22981 0.02147
C 3.72868 22.03902 -0.01378
C 2.46876 19.89169 0.0127
C 2.42399 17.0175 0.01396
C 2.46079 15.69537 0.01849
C 3.72211 14.90952 -0.01142
C 3.69187 13.47152 -0.00562
C 2.45504 12.75429 -0.00494
C 2.4994 11.34769 0.00054
C 3.67434 10.6108 0.03007
C 2.50873 21.28115 0.02635
C 4.878 8.50694 0.00373
C 4.91588 7.16469 -0.00191
C 6.16333 6.40799 0.00438
C 7.3697 0.01841 -0.02245
C 9.83949 32.698 -0.00428
C 11.06392 31.91231 0.03101
C 11.07182 30.51775 -0.01536
C 9.84284 29.83737 -0.02689
C 9.86152 28.44594 -0.01046
C 11.10119 27.67952 -0.00891
C 11.06756 26.23441 0.02819
C 8.60798 0.70451 0.00985
C 9.86079 8.5378 0.00165
C 11.0705 6.36959 0.02894
C 11.06066 5.00375 -0.01789
C 9.83497 4.28539 0.00444
C 9.80913 2.84512 -0.00925
C 11.09554 2.12531 0.01877
C 11.11469 0.70759 0.01363
C 9.85538 0.00317 -0.02162
C 12.24806 32.61335 0.00415
C 9.83137 7.11168 -0.02971
C 13.51746 30.54838 0.02162
C 8.58456 2.14296 -0.01275
C 7.36673 4.27719 0.02841
C 6.11784 4.99726 0.01291
C 4.92879 4.277 0.00093
C 4.94206 2.80527 0.00057
C 6.14293 2.16598 -0.01634
C 6.1666 0.73656 -0.00334
C 4.94412 0.03074 0.02339
C 7.38242 32.67381 0.01641
C 8.64398 31.96327 -0.00719
C 7.38561 2.85028 -0.01111
C 8.59732 30.55207 0.01364
C 7.35041 28.42694 -0.00033
C 8.6181 27.68231 0.03589
C 8.6007 26.27641 -0.02759
C 7.38863 25.5954 0.0402
C 7.38409 8.53464 0.00572
C 7.33023 7.17056 0.03592
C 8.58513 6.4207 0.00406
C 8.60481 4.96474 0.00943
C 7.36561 29.86426 -0.01062
C 22.12699 17.05657 -0.01527
C 22.15859 15.59098 0.01087
C 23.38236 14.88225 0.00199
C 33.19737 31.96494 0.01428
C 33.19671 30.53676 -0.02142
C 32.01322 29.82075 0.0544
C 33.18051 27.70616 0.00026
C 33.16506 26.29508 0.00682
C 31.96441 25.53556 -0.01779
C 31.9914 24.14377 0.03794
C 33.19856 23.44072 0.01927
C 33.20167 22.00424 0.01574
C 32.03133 21.33881 -0.02383
C 31.98694 19.861 -0.01429
C 33.20363 19.18603 -0.0136
C 33.15431 17.75604 0.00594
C 31.98234 17.0521 -0.02474
C 31.98584 15.61046 0.00369
C 33.17638 14.88523 0.00455
C 33.2054 13.47665 -0.00644
C 31.9678 32.62906 -0.01694
C 29.49077 0.0175 0.01713
C 30.71997 0.68653 0.00346
C 30.75615 2.13555 0.00307
C 29.52382 21.26082 0.01836
C 29.50258 19.86499 0.03531
C 30.75493 19.16268 -0.00669
C 30.74922 17.74666 0.0101
C 29.5269 17.05438 0.01705
C 29.5423 15.62356 -0.0405
C 30.74354 14.91512 -0.01303
C 30.72309 13.50274 -0.01461
C 31.92531 12.8164 -0.01839
C 29.55569 12.77923 -0.02155
C 30.75032 10.66595 -0.03735
C 30.75898 9.21228 -0.00971
C 29.5207 8.5283 0.01518
C 29.52083 7.13208 0.01908
C 30.75864 6.40201 0.07705
C 30.71292 4.95154 0.0103
C 29.5185 4.26969 0.02108
C 29.50434 2.83379 0.00716
C 29.54914 11.35677 -0.00944
C 31.96607 11.29791 0.00137
C 33.20078 10.62238 0.00199
C 33.18736 9.24775 0.04381
C 1.24508 19.2068 -0.01678
C 1.2272 17.71329 0.01223
C 34.41151 17.01651 0.00648
C 0.0117 15.58739 0.02114
C 1.20657 14.88214 -0.02957
C 1.21654 13.5146 0.00343
C 34.42145 12.73431 -0.02656
C 34.39324 11.38858 -0.02442
C 34.42163 19.89236 0.01951
C 1.2244 10.65601 -0.00027
C 0.00586 8.51724 -0.02302
C 34.42752 7.11949 -0.02849
C 1.24162 6.35645 0.02931
C 1.21526 4.91444 0.00628
C 0.00818 4.22931 -0.0345
C 0.03022 2.81707 -0.00931
C 1.24202 2.13794 -0.00939
C 1.26306 0.69736 -0.00468
C 1.232 9.22853 -0.00583
C 30.77478 22.03435 -0.03039
C 0.00333 21.33128 -0.02213
C 1.21892 23.44935 0.00723
C 32.00523 8.5324 0.02806
C 31.93341 7.13306 0.01504
C 33.20028 6.39887 -0.00069
C 33.20094 4.9661 0.04926
C 31.99991 4.28361 -0.03838
C 31.99852 2.87021 0.00349
C 33.18274 2.09407 -0.00323
C 33.19756 0.70089 -0.00841
C 1.20895 22.0329 0.02712
C 31.99379 0.03386 0.0001
C 1.21018 31.9282 -0.01404
C 1.21501 30.51035 0.01027
C 34.41577 29.81184 0.01831
C 0.03576 28.42461 -0.01037
C 1.20089 27.63866 -0.00439
C 1.21718 26.27648 -0.00598
C 34.42529 25.56914 -0.05239
C 34.4061 24.14928 0.03076
C 34.42275 32.62542 -0.02927
C 30.73632 23.48523 -0.01415
C 29.52375 24.1713 -0.01854
C 29.51504 25.50735 -0.02049
C 24.57969 24.12618 -0.02118
C 25.77912 23.42582 0.00733
C 25.79311 21.98269 -0.00178
C 24.56513 21.31091 0.00768
C 24.61356 19.88559 -0.0276
C 25.82263 19.17758 0.03005
C 25.77392 17.75149 -0.04078
C 24.57762 17.0631 0.02117
C 24.58688 25.6071 -0.01971
C 24.60087 15.64069 0.02737
C 25.81323 13.50976 0.00135
C 24.60049 12.78675 0.03102
C 24.58335 11.33348 0.02555
C 25.83439 10.65962 0.01423
C 25.82557 9.19598 -0.00285
C 24.58806 8.5138 -0.009
C 24.60495 7.08083 -0.01199
C 25.79039 6.45151 -0.00229
C 25.86445 14.91632 -0.00498
C 25.85665 4.97864 -0.00938
C 25.80437 26.25573 -0.01586
C 24.57311 28.44583 0.00071
C 23.37218 13.47958 0.01511
C 22.10216 12.75074 -0.00478
C 22.10538 11.35696 -0.01662
C 23.36069 10.64222 -0.01185
C 23.39038 9.17951 0.01126
C 22.10464 8.50549 0.01852
C 22.15962 7.06137 -0.00381
C 23.37529 6.36998 0.03046
C 25.83967 27.68259 -0.01107
C 23.36726 4.96154 0.0296
C 22.1492 2.79857 -0.02845
C 23.35712 2.10708 -0.03213
C 23.35578 0.75649 0.02239
C 22.16822 34.07683 0.01153
C 24.5781 32.62008 0.02734
C 25.80774 31.95916 -0.0055
C 25.78159 30.5409 0.01515
C 24.55092 29.81717 -0.00225
C 22.12638 4.20712 0.03374
C 3.6746 31.97506 0.03368
C 24.60274 4.26335 -0.0264
C 25.82588 2.12818 0.00684
C 27.00836 11.37954 -0.00621
C 28.2669 10.63583 0.02611
C 28.28888 9.22328 0.02198
C 27.07872 8.50005 0.01094
C 27.0833 7.07827 0.00235
C 28.29065 6.35956 0.01495
C 28.3074 4.97804 0.01259
C 27.05426 4.2527 0.01799
C 27.07129 12.74686 0.00194
C 27.02607 2.81479 0.01699
C 28.24007 0.72269 0.01177
C 27.10306 34.03055 0.04266
C 29.54721 32.64545 0.01324
C 30.73493 31.91946 0.0014
C 30.74516 30.50294 0.00924
C 29.54723 29.79363 0.02326
C 29.48536 28.37942 0.00261
C 30.75655 26.25079 0.03265
C 28.27084 2.1142 -0.00416
C 24.62906 2.8677 -0.01154
C 28.31667 13.46939 0.04185
C 27.09833 15.63893 0.01257
C 25.83164 0.69017 -0.01052
C 24.63369 0.00387 -0.01679
C 27.05927 32.63568 0.00367
C 28.30144 31.97029 0.04306
C 28.28452 30.53903 0.00996
C 27.04485 29.85303 0.00195
C 27.04526 28.41257 -0.00802
C 28.29709 27.72919 -0.00218
C 28.25305 14.90311 0.02316
C 28.27405 26.26631 -0.01654
C 27.0966 24.16353 -0.0032
C 28.26361 23.45817 0.00622
C 28.28699 21.96266 -0.02815
C 27.07103 21.31741 -0.00942
C 27.06348 19.86687 0.00487
C 28.29374 19.15151 0.00826
C 28.23573 17.74817 -0.00294
C 27.06703 17.03972 0.00152
C 27.04525 25.53032 -0.00037
C 2.5205 32.70219 -0.00077
