         324
 CSIRO Nanostructure Databank - Neutral Graphene Oxide Data Set
C          1.14838         3.49744         0.25046
C         -0.00154         4.21964         0.36742
C          1.11563         6.39228         0.02355
C         -0.02365         5.64731         0.24426
C          1.15037         7.85224         0.16548
C         -0.02719         8.56916         0.45700
C          1.19023        10.67390         0.47508
C         -0.00770         9.95050         0.58353
C          1.17321        12.14919         0.67565
C         -0.07943        12.91406         0.43207
C          1.17749        14.91431        -0.40519
C         -0.07084        14.18715         0.02145
C          1.16778        16.40923        -0.17333
C          0.02302        17.12565         0.13742
C          1.09822        19.28342        -0.22867
C          0.00088        18.54458         0.17303
C          1.10741        20.73188        -0.31392
C         -0.09850        21.44249        -0.31174
C          1.07111        23.57157        -0.21857
C         -0.11323        22.84005        -0.31135
C          1.00035        25.05216        -0.08898
C         -0.08365        25.81096        -0.72772
C          1.22070        27.89340        -0.67332
C          0.00760        27.15455        -0.92548
C          1.31574        29.27965        -1.03740
C          3.68380         3.52911         0.00814
C          2.37290         4.13927        -0.22795
C          3.64577         6.38489        -0.27138
C          2.35470         5.68570        -0.34062
C          3.59752         7.85291        -0.37488
C          2.35890         8.57658         0.00203
C          3.66983        10.72397         0.14004
C          2.39740         9.98551         0.18385
C          3.69741        12.10403         0.33483
C          2.47017        12.89165         0.55117
C          3.63786        15.01181        -0.04409
C          2.46890        14.30986         0.11368
C          3.63248        16.42187        -0.42868
C          2.39897        17.09887        -0.43412
C          3.58421        19.34330        -0.82207
C          2.31059        18.55926        -0.64767
C          3.59159        20.78162        -0.47037
C          2.35244        21.46080        -0.34266
C          3.56189        23.60763        -0.03862
C          2.32945        22.89260        -0.19175
C          3.56547        25.03746         0.13726
C          2.30295        25.80243         0.15440
C          3.61086        27.91513        -0.08947
C          2.36653        27.22828        -0.21622
C          3.70252        29.30519        -0.49179
C          2.50663        29.94818        -0.97528
C          6.12749         3.49925         0.24558
C          4.84414         4.23989        -0.06575
C          6.11969         6.40349        -0.18803
C          4.85176         5.69098        -0.23793
C          6.15297         7.80588        -0.14077
C          4.92200         8.59544        -0.32117
C          6.16254        10.69885         0.08101
C          4.91995        10.02773         0.01372
C          6.21290        12.12182         0.15919
C          4.96256        12.83478         0.40376
C          6.18756        15.02836        -0.20050
C          4.94360        14.37028         0.25069
C          6.12463        16.45218        -0.49098
C          4.89165        17.11224        -0.60086
C          6.14681        19.36060        -0.71562
C          4.87378        18.57389        -0.88558
C          6.08096        20.79632        -0.33287
C          4.81948        21.47842        -0.30143
C          6.03973        23.57563         0.14044
C          4.80191        22.89145        -0.05265
C          6.04049        25.04961         0.13431
C          4.75447        25.75925         0.22805
C          5.98404        27.92648         0.64390
C          4.76588        27.19129         0.28310
C          6.08545        29.39039         0.16975
C          4.93284        29.94834        -0.52384
C          8.54369         3.48241        -0.30708
C          7.38195         4.20140        -0.21604
C          8.57806         6.33436        -0.22715
C          7.36760         5.65310        -0.25173
C          8.61340         7.74141         0.20548
C          7.37283         8.53612         0.07250
C          8.65174        10.70086         0.22002
C          7.39031         9.93075         0.09980
C          8.62867        12.13399        -0.13974
C          7.42097        12.85622        -0.05519
C          8.61896        15.02002        -0.63833
C          7.37139        14.29908        -0.27242
C          8.60827        16.49115        -0.58259
C          7.38848        17.20093        -0.55119
C          8.62947        19.46323        -0.60956
C          7.39057        18.61037        -0.50478
C          8.49640        20.68147         0.28861
C          7.24078        21.45697         0.08334
C          8.48533        23.55385         0.66583
C          7.23788        22.86233         0.32323
C          8.49733        24.95751         0.76545
C          7.31804        25.77999         0.44455
C          8.56829        27.98733         1.11077
C          7.21438        27.15115         1.11160
C          8.57581        29.32119         0.37798
C          7.42605        29.95626        -0.02804
C         11.10535         3.44464        -0.49949
C          9.81783         4.10994        -0.66210
C         11.12971         6.34702        -0.39436
C          9.83056         5.66390        -0.56053
C         11.15518         7.72077        -0.20883
C          9.95515         8.44301         0.24017
C         11.23018        10.59321        -0.12645
C          9.97294         9.93689         0.24801
C         11.20400        12.03348        -0.38983
C          9.89431        12.77612        -0.51007
C         11.28256        15.00478        -0.53686
C          9.92876        14.27353        -0.67477
C         11.04370        16.43452        -0.01736
C          9.90948        17.19581        -0.59027
C         11.08402        19.36497         0.23325
C          9.93057        18.69810        -0.42980
C         11.06366        20.71718         0.62146
C          9.74338        21.39151         0.74686
C         10.93476        23.54276         1.27431
C          9.68865        22.84131         0.90236
C         11.02406        24.98265         0.99529
C          9.77297        25.67566         0.69652
C         11.07647        27.85421         0.72676
C          9.76845        27.17345         0.61472
C         11.07777        29.29167         0.48474
C          9.85416        29.94217         0.22485
C         13.55315         3.45486        -0.59040
C         12.31895         4.15470        -0.55768
C         13.60227         6.28488        -0.38373
C         12.35243         5.60385        -0.52549
C         13.65073         7.70660        -0.37099
C         12.38355         8.45371        -0.66877
C         13.66508        10.60549        -0.40335
C         12.42003         9.91091        -0.31046
C         13.66333        12.05071        -0.30479
C         12.46846        12.75848        -0.24859
C         13.76215        14.85413         0.11846
C         12.38853        14.19162         0.22126
C         13.89931        16.12877         0.62581
C         12.01255        17.17278         0.60069
C         13.51514        19.18281         0.78247
C         12.23198        18.59380         0.50874
C         13.48604        20.58152         1.05743
C         12.26899        21.31454         1.05917
C         13.49706        23.54501         1.22295
C         12.25400        22.76637         1.42254
C         13.47276        24.90625         1.02113
C         12.22980        25.66750         0.98175
C         13.52083        27.85489         0.84486
C         12.23840        27.11929         0.81719
C         13.54739        29.27907         0.44325
C         12.31380        29.95993         0.32203
C         15.99796         3.39516        -0.61457
C         14.80296         4.10885        -0.45897
C         16.03752         6.24418        -0.06366
C         14.82980         5.55407        -0.25496
C         16.09240         7.68280        -0.12498
C         14.86345         8.41166        -0.29242
C         16.13679        10.53211        -0.35738
C         14.88995         9.86128        -0.37216
C         16.16633        12.00132        -0.56320
C         14.92057        12.77169        -0.39581
C         16.21598        14.92790        -0.38887
C         14.94257        14.15522        -0.31532
C         16.20738        16.45431        -0.06807
C         14.93158        17.08619         0.37268
C         16.09002        19.24490         0.61906
C         14.79446        18.46163         0.58298
C         16.04104        20.58670         1.30618
C         14.74066        21.30140         1.38264
C         15.98467        23.38555         0.52063
C         14.78353        22.79170         1.19519
C         15.89506        24.81592         0.07184
C         14.68149        25.59195         0.47927
C         15.99526        27.74717         0.19034
C         14.79699        27.06408         0.68617
C         15.99182        29.13694        -0.02123
C         14.76918        29.87799         0.11758
C         18.55363         3.36984        -0.57477
C         17.26201         3.97580        -0.18824
C         18.58223         6.17040         0.23891
C         17.26205         5.46123         0.17785
C         18.59137         7.68971         0.19239
C         17.31528         8.39572        -0.05098
C         18.62656        10.49700        -0.09755
C         17.35299         9.80928        -0.21004
C         18.61533        11.95157         0.16818
C         17.46245        12.75136        -0.32244
C         18.64569        14.90008         0.20885
C         17.47103        14.21811        -0.12357
C         18.62170        16.33442         0.47103
C         17.42737        17.04680         0.44438
C         18.59324        19.17012         0.90493
C         17.30666        18.40464         1.10461
C         18.53141        20.54942         0.65328
C         17.15683        21.10464         0.39023
C         18.41478        23.34339        -0.05707
C         17.09613        22.55707        -0.13762
C         18.38940        24.77633        -0.22308
C         17.19155        25.50992        -0.05585
C         18.49532        27.69931        -0.46729
C         17.22201        26.95886         0.08241
C         18.29200        29.06862        -0.95588
C         17.13996        29.77188        -0.61247
C         19.71759         4.06671        -0.55547
C         20.97509         6.18471        -0.32266
C         19.80013         5.46548        -0.18926
C         21.01468         7.60305        -0.23415
C         19.86831         8.36997        -0.09847
C         21.08478        10.57599        -0.01502
C         19.84865         9.82098        -0.07165
C         21.13171        11.91920         0.18468
C         19.90827        12.69599         0.41831
C         21.02889        14.88318         0.77702
C         19.89583        14.18842         0.40578
C         21.01556        16.28888         0.96703
C         19.84709        17.01576         0.84268
C         21.00525        19.23813         0.76786
C         19.82391        18.48057         0.89723
C         20.94942        20.60617         0.54569
C         19.71555        21.27778         0.41012
C         20.84512        23.41811        -0.23792
C         19.65040        22.69316         0.03350
C         20.80913        24.74366        -0.62692
C         19.59984        25.46838        -0.59690
C         20.46780        27.44166        -1.88749
C         19.55814        26.85659        -1.01051
C         20.34112        28.80236        -2.26582
C         19.29224        29.59213        -1.83286
O         15.89573        23.36178         1.97138
O          6.88515        25.66832        -0.93962
O         19.04757        12.23681         1.53688
O          2.23729         4.81774        -1.51285
O         16.25669        15.95414        -1.43447
O          9.35981         7.89874         1.46943
O          2.75351        19.01546        -1.98703
O          9.40623        10.49195         1.48470
O          5.74854        29.02415         1.57749
O          5.03341        13.76476         1.56666
O         10.51543        12.19840        -1.72880
O          1.37841        25.50480         1.25774
O         11.47141        23.12522         2.59563
O         14.89200        25.18547        -0.93424
O         18.67411         6.95160         1.46922
O          9.76101         4.96881        -1.85104
O          4.22969         8.34742        -1.60736
O         14.35683        27.51820         2.00863
O         15.51860        20.86809         2.59677
O         16.57735        20.05376        -0.60109
O          1.86375        12.61864         1.88703
O         12.88875        16.54640         1.48805
O         18.28338        27.48380         0.94800
O          9.25959        14.58981        -1.93653
O          5.61480        19.01817        -2.06548
O          8.86487        20.57030         1.68176
O         17.04131        12.39581        -1.68323
O          9.70861        26.43985        -0.63463
O         17.17177         4.44666         1.21900
O         10.27135        18.06925        -1.72889
O         11.79459        15.21053        -1.85853
H         11.02352        15.30643        -2.46524
O          8.89494        28.31390         2.47618
H          8.44071        27.65235         3.05150
O          6.07381         2.15974        -0.25000
H          5.99296         2.19814        -1.22509
O         12.27893         8.48001        -2.14967
H         12.27599         7.54842        -2.45953
O         11.93636        14.11735         1.59831
H         12.63953        13.70629         2.14250
O          8.63851        20.04251        -1.94312
H          8.94265        19.33339        -2.55575
O         16.77168        22.50645        -1.54583
H         16.71444        21.56386        -1.81975
O          1.21890        14.74104        -1.86536
H          1.88312        15.36903        -2.22311
O         17.13876        18.19673         2.53201
H         16.22057        17.89758         2.70031
O          6.91987        26.81569         2.49572
H          6.38786        27.56053         2.86057
H          1.17745         2.43355         0.52743
H         -0.92996         3.71942         0.67766
H         -0.97763         6.14613         0.46233
H         -0.98289         8.04399         0.57868
H         -0.94632        10.47233         0.81090
H         -1.04188        12.42681         0.64857
H         -1.03250        14.69222        -0.15152
H         -0.90721        16.59598         0.38289
H         -0.92485        19.04345         0.49053
H         -1.05461        20.90231        -0.32128
H         -1.07993        23.36143        -0.32189
H         -0.96722        25.26928        -1.09534
H         -0.83205        27.69212        -1.39074
H          0.41172        29.79198        -1.39741
H          3.72874         2.46235         0.27716
H          2.56568        31.00477        -1.27355
H          6.19682         3.41298         1.36897
H          5.03740        30.91504        -1.03814
H          8.52564         2.40598        -0.07852
H          7.50007        30.92153        -0.55235
H         11.12642         2.35831        -0.32691
H          9.88089        30.98661        -0.12258
H         13.53916         2.35960        -0.69302
H         12.31443        31.02127         0.03102
H         15.97536         2.36156        -0.99084
H         14.77789        30.94485        -0.15300
H         18.54497         2.32537        -0.92025
H         17.04362        30.82123        -0.93023
H         20.64992         3.57151        -0.86636
H         21.90144         5.65238        -0.58442
H         21.98785         8.09108        -0.38198
H         22.03043        10.03594        -0.16172
H         22.09601        12.44384         0.12229
H         21.96960        14.34297         0.95238
H         21.95518        16.78437         1.24659
H         21.98567        18.74320         0.78838
H         21.89436        21.14884         0.41721
H         21.81749        22.91209        -0.19512
H         21.74367        25.25631        -0.89355
H         21.28937        26.84641        -2.31032
H         21.08418        29.22594        -2.95575
H         19.19939        30.62891        -2.18681
