         324
 CSIRO Nanostructure Databank - Neutral Graphene Oxide Data Set
C          1.31789         1.98420         0.56756
C          1.24920         3.37991         0.39082
C          2.49561         1.32311         0.30463
C          2.35173         4.10959        -0.05830
C          1.26314         6.32022         0.55335
C          1.27302         7.71050         0.61635
C          2.22063         5.57448        -0.24871
C          2.29013         8.47990         0.05766
C          1.08540        10.75061        -0.01995
C          1.13229        12.10369        -0.09880
C          2.29272         9.95339         0.25440
C          2.36778        12.85825         0.05986
C          1.17644        15.07748         0.00640
C          1.19176        16.47526        -0.05682
C          2.36215        14.32877         0.04244
C          2.40159        17.18844        -0.09702
C          2.44047        18.62671        -0.15628
C          3.64497         2.02815        -0.17366
C          3.57773         3.45786        -0.38567
C          4.83427         1.31416        -0.33369
C          4.75323         4.21114        -0.74378
C          3.46597         6.35414        -0.76446
C          3.45852         7.85364        -0.59052
C          4.73084         5.61301        -0.85649
C          4.75542         8.63095        -0.70682
C          3.60201        10.69836         0.23963
C          3.56161        12.17193         0.14519
C          4.85520        10.00432        -0.15124
C          4.84723        12.87347         0.48211
C          3.61210        15.03331         0.02794
C          3.63217        16.46395        -0.06098
C          4.84285        14.33142         0.09387
C          4.86726        17.17045        -0.06783
C          3.62544        19.30670        -0.15553
C          4.88664        18.61056        -0.10129
C          6.03757         1.92991        -0.84854
C          6.02717         3.46831        -0.97694
C          7.33179         1.15808        -0.64341
C          7.31556         4.14148        -0.74807
C          5.99427         6.36674        -1.09848
C          6.04836         7.92798        -1.15473
C          7.29434         5.61376        -0.89474
C          7.30801         8.55729        -0.57092
C          6.05500        10.69636        -0.19031
C          6.08897        12.13257         0.04425
C          7.30560         9.96776        -0.40219
C          7.26038        12.84330        -0.07749
C          6.06133        15.02405         0.01686
C          6.09360        16.45612        -0.03302
C          7.30054        14.29530         0.01376
C          7.33548        17.15571         0.00751
C          6.10431        19.29132        -0.07359
C          7.34778        18.59527        -0.00465
C          8.58748         1.99111        -0.70848
C          8.53131         3.43716        -0.68457
C          9.79440         1.32509        -0.68974
C          9.79163         4.13615        -0.56487
C          8.49812         6.37869        -0.45969
C          8.52604         7.85982        -0.53678
C          9.77778         5.60940        -0.35967
C          9.77998         8.54128        -0.40349
C          8.53752        10.65721        -0.36287
C          8.50872        12.12622        -0.39943
C          9.78123         9.97874        -0.38620
C          9.80891        12.85383        -0.19796
C          8.50422        15.00288         0.06930
C          8.55768        16.43246         0.09291
C          9.75757        14.25950         0.27865
C          9.81031        17.13484         0.14097
C          8.58070        19.27262         0.05893
C          9.81143        18.57192         0.12223
C         11.04195         2.01211        -0.53435
C         10.98910         3.44190        -0.44537
C         12.26997         1.33020        -0.45506
C         12.22106         4.14170        -0.00696
C         11.02742         6.37481        -0.62833
C         11.01714         7.83111        -0.52270
C         12.34692         5.57277        -0.42220
C         12.27871         8.54021        -0.68708
C         11.02011        10.71275        -0.28412
C         11.04503        12.07708        -0.04617
C         12.35980        10.06699        -0.57761
C         12.27915        12.80267         0.18142
C         11.05578        14.99692         0.36229
C         11.06414        16.46117         0.17460
C         12.29574        14.21091         0.23913
C         12.29726        17.13985         0.05390
C         11.05361        19.25062         0.21074
C         12.30030        18.59509         0.15711
C         13.51575         1.91979        -0.09673
C         13.47771         3.36107         0.34082
C         14.69432         1.17775        -0.34676
C         14.71534         4.18725         0.44279
C         13.55875         6.31093        -0.12944
C         13.60290         7.73695        -0.41569
C         14.72786         5.60233         0.25146
C         14.79750         8.47250         0.02505
C         13.42423        10.57268         0.43086
C         13.49817        12.09020         0.37723
C         14.78082         9.91999         0.22768
C         14.68022        12.78452         0.60692
C         13.51292        14.91768         0.29247
C         13.51416        16.33829         0.06493
C         14.74119        14.20720         0.46314
C         14.76751        16.87564        -0.23611
C         13.47880        19.39373         0.41462
C         14.77489        19.01560         0.03685
C         15.98123         1.50570         0.18251
C         15.91764         3.59657         0.82230
C         17.27792         1.25062        -0.25346
C         17.18169         4.19063         0.66462
C         15.98067         6.29861         0.31431
C         15.94486         7.72978         0.26364
C         17.21499         5.58195         0.44725
C         17.21765         8.46993         0.23000
C         15.91818        10.61566         0.54332
C         15.88714        12.03206         1.08955
C         17.19069         9.88274         0.69936
C         17.18631        12.80466         0.92231
C         15.98386        14.91060         0.50997
C         16.00851        16.29799         0.16225
C         17.21453        14.18080         0.74946
C         17.18870        17.10938         0.26557
C         16.05448        19.38287         0.48658
C         17.22167        18.55276         0.30149
C         18.45738         1.94974         0.22617
C         18.40694         3.34301         0.80436
C         19.70898         1.38744        -0.01324
C         19.70971         4.11008         0.89395
C         18.49983         6.26195         0.46040
C         18.49615         7.72507         0.23421
C         19.66591         5.58762         0.73043
C         19.76149         8.49740         0.38760
C         18.46787        10.60039         0.97408
C         18.45133        12.08907         1.11449
C         19.75988         9.92892         0.70098
C         19.75084        12.83235         0.89418
C         18.47129        14.90234         0.58585
C         18.43607        16.39082         0.57174
C         19.67915        14.24996         0.52470
C         19.76330        17.13275         0.48009
C         18.48448        19.22402         0.26037
C         19.72386        18.57363         0.15979
C         20.97864         2.02045         0.22999
C         21.00807         3.42447         0.62390
C         22.19151         1.38192        -0.04810
C         22.19998         4.08609         0.75519
C         20.95090         6.30772         0.90087
C         21.04125         7.75452         0.54509
C         22.22941         5.54180         0.99380
C         22.24776         8.51864         0.89447
C         20.95355        10.60378         0.75962
C         20.96667        12.06253         0.42223
C         22.22738         9.91471         0.84863
C         22.23942        12.78653         0.75869
C         20.90112        14.89052        -0.11176
C         21.00322        16.38423         0.18263
C         22.22347        14.13845         0.15379
C         22.14032        17.07344        -0.14289
C         20.93671        19.23010        -0.14666
C         22.16202        18.52911        -0.26889
C         23.46563         2.01761         0.12034
C         23.51412         3.34479         0.84667
C         24.66000         1.41814        -0.23332
C         24.75674         4.17219         0.55401
C         23.48676         6.27889         0.64919
C         23.49984         7.77508         0.70882
C         24.77559         5.56583         0.70390
C         24.76246         8.46983         0.94054
C         23.43553        10.67144         1.05198
C         23.43775        12.10859         1.00323
C         24.66732         9.89730         1.28047
C         24.71549        12.89962         1.18796
C         23.49746        14.89081         0.01920
C         23.38709        16.32353        -0.43824
C         24.74000        14.40583         0.73187
C         24.64160        17.06405        -0.71663
C         23.36498        19.20180        -0.59242
C         24.61211        18.54934        -0.77970
C         25.92878         2.10285        -0.13801
C         25.95658         3.50188         0.22367
C         27.12462         1.47686        -0.48381
C         27.17783         4.23746         0.17271
C         25.98546         6.32727         0.67556
C         25.97198         7.78931         0.86685
C         27.18952         5.62614         0.47663
C         27.20549         8.55967         0.80469
C         25.99256        10.66685         1.23653
C         25.97682        12.12571         1.19759
C         27.19969         9.94308         0.83109
C         27.26311        12.69635         1.33931
C         25.98685        15.17996         0.39388
C         25.93442        16.40570        -0.41135
C         27.20853        14.84491         0.92461
C         27.07340        17.10270        -0.73314
C         25.79675        19.19766        -1.12166
C         27.03329        18.46692        -1.26454
C         28.36247         2.18253        -0.49786
C         28.39852         3.56492        -0.17649
C         29.57700         1.52289        -0.87118
C         29.63887         4.28571        -0.24866
C         28.48771         6.32325         0.58774
C         28.49735         7.83838         0.71335
C         29.70277         5.67079         0.07577
C         29.72589         8.54674         0.32997
C         28.39003        10.74436         0.42679
C         28.44287        12.16779         0.83259
C         29.68721        10.01701         0.18118
C         29.74946        12.97494         0.87908
C         28.51338        15.31418         0.42393
C         28.40727        16.54913        -0.41520
C         29.68888        14.40749         0.25244
C         29.53245        16.88906        -1.30777
C         28.19518        19.05118        -1.74133
C         29.43499        18.27788        -1.95639
C         30.76545         2.20774        -0.93722
C         30.82633         3.60309        -0.63521
C         32.04302         4.33314        -0.69870
C         30.90871         6.39708        -0.03279
C         30.91003         7.85625         0.11260
C         32.08032         5.68421        -0.42029
C         32.11743         8.63706        -0.07212
C         30.95188        10.78616         0.23755
C         30.94519        12.17164         0.36649
C         32.14297        10.00111         0.01948
C         32.13982        12.92866         0.09550
C         30.83727        14.98271        -0.28273
C         30.83496        16.28350        -0.97706
C         32.08713        14.24767        -0.23436
C         31.95902        16.93490        -1.43925
C         30.72068        18.92404        -2.21385
C         31.88959        18.24183        -2.02830
O          3.79237         8.58893        -1.83421
O         17.87698         8.17440        -1.04505
O         17.72074         9.95917         2.09202
O         19.14365        16.87288         1.78583
O          2.38798         5.94923        -1.65468
O          9.23157        12.71744        -1.54206
O         27.31092        13.94545         1.98029
O         19.06497         3.55438         2.09737
O         10.33123        14.53145         1.59279
O         12.51813         3.77781         1.37841
O         20.59539         8.14090        -0.79156
O         28.82496        10.45781        -0.95778
O         19.29337        12.54103         2.24087
O         23.06397        14.02721        -1.08945
O         13.12464         8.07409        -1.77626
O         28.82148        16.65912         0.99415
O         28.69094         6.96866         1.89455
O         21.57480         6.03086         2.21167
O          5.96385         2.57859        -2.14857
O         15.88815         2.30630         1.33905
O         25.38953        10.20911         2.51394
O          2.99936        10.25102         1.52748
O         11.77004         5.80373        -1.74478
O          9.03173         5.95975         0.85566
O         29.21114        17.01632        -2.70888
O          6.78141         5.89268        -2.24221
O         24.56429        14.02932         2.11711
O         23.41584         7.03881        -0.60755
O         14.81217        18.04129        -0.99099
O         23.86874        16.46143        -1.82287
O         20.64343        14.84107        -1.53952
H         21.51362        14.68138        -1.98025
O         12.99157        10.17965         1.75661
H         13.59681        10.60713         2.40309
O         12.75455        10.58449        -1.86844
H         13.08690         9.82494        -2.40318
O         23.64793         3.01470         2.27456
H         22.83571         2.53682         2.54742
O          4.90819        12.86014         1.95894
H          4.02659        13.12651         2.29653
O          6.19932         8.26979        -2.55269
H          5.31383         8.17754        -2.97378
O          7.28787         0.48689         0.63069
H          7.62759         1.09306         1.32039
O         30.03447        13.20151         2.29187
H         29.28485        13.72337         2.65962
O         20.85240        12.08643        -1.03904
H         21.69630        11.76635        -1.42280
O         15.70749        11.86160         2.53842
H         16.47694        11.32465         2.85176
H          0.43212         1.43491         0.91384
H          0.29888         3.89163         0.59318
H          2.57023         0.23579         0.44657
H          0.57560         5.76936         1.20885
H          0.48282         8.21933         1.18725
H          0.14616        10.21803        -0.23017
H          0.20575        12.64980        -0.32367
H          0.20267        14.56965         0.03071
H          0.23989        17.02530        -0.07778
H          1.48766        19.17520        -0.19258
H          4.90558         0.29118         0.06337
H          3.63353        20.40602        -0.19174
H          7.37778         0.35310        -1.42345
H          6.11081        20.39158        -0.09453
H          9.79691         0.22496        -0.70813
H          8.59167        20.37303         0.05341
H         12.26497         0.24914        -0.66425
H         11.04202        20.34793         0.29628
H         14.59582         0.27773        -0.97484
H         13.33588        20.32861         0.97816
H         17.43526         0.48795        -1.03230
H         16.19287        20.33441         1.02213
H         19.73988         0.37005        -0.43476
H         18.46807        20.32263         0.19143
H         22.17245         0.35771        -0.45290
H         20.92617        20.31679        -0.32139
H         24.65426         0.39812        -0.64929
H         23.32996        20.29645        -0.70625
H         27.11821         0.41490        -0.77260
H         25.80006        20.28473        -1.29296
H         29.54236         0.45070        -1.11342
H         28.19228        20.11534        -2.02283
H         31.68929         1.68780        -1.22972
H         32.96547         3.80849        -0.98692
H         33.04045         6.21084        -0.50142
H         33.06920         8.11350        -0.23355
H         33.11599        10.50521        -0.05439
H         33.10738        12.41210         0.03180
H         33.01630        14.75985        -0.51535
H         32.96195        16.52015        -1.26975
H         30.73581        19.98368        -2.50874
H         32.84141        18.74227        -2.25799
