         263
 CSIRO Nanostructure Databank - Neutral Graphene Oxide Data Set
C        -11.32033         0.66594         0.28357
C        -10.10504         1.46685         0.21731
C         -8.82946         0.68664         0.47216
C         -7.58132         1.44730         0.12162
C         -6.40262         0.82108        -0.16961
C         -5.14577         1.55863        -0.26433
C         -3.87525         1.01134        -0.87298
C         -2.58833         1.59921        -0.24675
C         -1.29617         0.92930        -0.45971
C         -0.11459         1.54379        -0.09122
C          1.21909         0.90594        -0.26650
C          2.37384         1.34483         0.64110
C          3.67886         0.69567         0.22859
C          4.92629         1.50319         0.09597
C          6.17573         0.83610        -0.43546
C          7.52484         1.51450        -0.40192
C          8.78024         0.73917        -0.25408
C          9.91699         1.32849         0.25389
C         11.04166         0.50094         0.63241
C        -10.13831         2.80878        -0.01404
C         -8.89204         3.59438        -0.37456
C         -7.67876         2.93831         0.30906
C         -6.40270         3.63308        -0.06045
C         -5.14078         2.88094         0.03565
C         -3.91085         3.56583         0.44194
C         -2.62417         2.85654         0.30207
C         -1.40656         3.46690         0.98731
C         -0.10764         2.97875         0.34210
C          1.18004         3.68330         0.68247
C          2.44363         2.86328         0.92377
C          3.76066         3.57465         1.16696
C          5.08454         2.73842         0.98874
C          6.31878         3.56152         0.59711
C          7.53996         2.93309        -0.00786
C          8.81864         3.64843         0.26456
C         10.04677         2.81137         0.57069
C         -8.88324         5.10961        -0.13082
C         -7.71574         5.83029        -0.05287
C         -6.41673         5.10602        -0.06071
C         -5.15665         5.82188         0.19830
C         -3.97328         5.04718         0.64379
C         -2.71094         5.79576         0.92242
C         -1.44838         5.00695         1.21008
C         -0.17799         5.80665         1.35935
C          1.15634         5.07590         1.30884
C          2.45039         5.84771         1.40850
C          3.78624         5.11436         1.16151
C          5.02993         5.79144         0.65873
C          6.32265         5.03634         0.48142
C          7.48851         5.67473        -0.30210
C          8.79185         4.99062         0.10380
C         -7.58532         7.26624        -0.24193
C         -6.34978         7.87879        -0.36644
C         -5.11543         7.15561        -0.07297
C         -3.78108         7.81718        -0.30202
C         -2.64897         7.24436         0.52978
C         -1.34415         7.89949         0.41458
C         -0.24247         7.38361         1.32127
C          1.11509         8.06839         1.04358
C          2.37596         7.40979         1.64341
C          3.63521         8.31995         1.37230
C          5.01827         7.01514        -0.22689
C          6.26705         7.83484        -0.16635
C          7.45768         7.17797        -0.12892
C         -6.20338         9.27137        -0.78783
C         -5.02445         9.93443        -0.77818
C         -3.78361         9.34606        -0.14824
C         -2.45462         9.81907        -0.68549
C         -1.26894         9.13463        -0.31536
C          0.00305         9.66868        -0.64278
C          1.19794         9.22005         0.06620
C          2.51782         9.68507        -0.39349
C          3.65887         9.30891         0.23402
C          4.94683         9.93013        -0.11129
C          6.13422         9.28466        -0.20689
C        -11.29852        -0.69648         0.25423
C        -10.07012        -1.45718         0.11982
C         -8.83410        -0.67342        -0.23108
C         -7.54990        -1.42340        -0.01050
C         -6.25290        -0.65567         0.09949
C         -5.10877        -1.33373        -0.63870
C         -3.92027        -0.51756        -1.04691
C         -2.59747        -1.22724        -1.16516
C         -1.30338        -0.44782        -1.04566
C         -0.01686        -1.22564        -1.06634
C          1.26748        -0.53517        -0.70837
C          2.44230        -1.36803        -0.33303
C          3.67859        -0.63077        -0.10233
C          4.94865        -1.39137        -0.25472
C          6.23308        -0.66402        -0.43355
C          7.47648        -1.38444        -0.89708
C          8.78776        -0.67594        -0.67236
C         10.00351        -1.53158        -0.29517
C         11.05048        -0.85129         0.47385
C        -10.01568        -2.81505         0.26070
C         -8.76105        -3.55323         0.23963
C         -7.51855        -2.77328         0.11206
C         -6.16423        -3.46766         0.12924
C         -5.10471        -2.69989        -0.66946
C         -3.88843        -3.47575        -1.01628
C         -2.58291        -2.73788        -1.12886
C         -1.34400        -3.45485        -0.70401
C         -0.06876        -2.69238        -0.72687
C          1.20975        -3.45667        -0.82004
C          2.42750        -2.73462        -0.39242
C          3.63778        -3.52989         0.03194
C          4.87723        -2.86197        -0.52400
C          6.14656        -3.63513        -0.63363
C          7.45099        -2.89291        -0.86737
C          8.69736        -3.64415        -0.55955
C          9.84707        -3.00588        -0.23813
C         -8.73887        -4.90643         0.44690
C         -7.42133        -5.62023         0.60910
C         -6.40890        -4.94246        -0.34453
C         -5.12083        -5.73653        -0.57235
C         -3.85391        -4.96607        -0.77255
C         -2.55826        -5.63652        -0.49515
C         -1.34603        -4.94933        -0.63894
C         -0.11609        -5.65879        -0.57811
C          1.16980        -4.94830        -0.77233
C          2.43025        -5.67336        -0.47642
C          3.61701        -5.00635        -0.28723
C          4.86278        -5.73234        -0.12302
C          6.16414        -4.97469         0.11104
C          7.38471        -5.81591        -0.22435
C          8.64593        -5.14776        -0.75365
C         -7.42994        -7.12829         0.52114
C         -6.26660        -7.81382         0.40357
C         -5.03242        -7.21349        -0.20582
C         -3.74645        -7.63589         0.39225
C         -2.55099        -6.98449         0.01171
C         -1.28978        -7.66041         0.14340
C         -0.10540        -7.04258        -0.29660
C          1.10610        -7.91342        -0.61094
C          2.41657        -7.12582        -0.71194
C          3.72260        -7.88064        -0.53661
C          4.87769        -7.10421        -0.06952
C          6.08410        -7.77525         0.55229
C          7.33696        -7.14600        -0.02565
C         -6.13037        -9.23999         0.70563
C         -4.93351        -9.75015         1.05387
C         -3.72191        -8.86799         1.26006
C         -2.41497        -9.60070         1.17786
C         -1.25114        -9.00387         0.71631
C          0.02099        -9.62698         0.88571
C          1.21560        -9.10159         0.33930
C          2.43359        -9.72835         0.54120
C          3.63504        -9.39190        -0.31834
C          4.93505        -9.97945         0.17013
C          6.03413        -9.27776         0.46636
O         -8.78153         0.33382         1.93251
H         -7.06142         2.79953         2.20236
O         -1.38811         2.85167         2.30008
H         -1.34748         3.57294         2.97188
O          8.74781        -5.39247        -2.16788
H          8.10101        -4.82057        -2.63255
O          4.11006         7.17805        -1.03152
O          0.61784         3.78021        -0.66377
O          9.81171        -0.99079        -1.64831
O         -5.07931        -8.01855        -1.59366
O          4.71925         5.77601         2.07755
O          1.30946        -4.22068        -2.06742
O         -0.92291         5.32650         2.52660
O          5.26072        -3.46680        -1.78528
O          3.24442        -7.49127        -1.86288
O         -7.84817         3.17022         1.74585
O          2.59018        -4.02544         2.10159
H          2.17461        -3.27812         2.59834
O          4.53896         8.32979         2.18625
O         -0.77818        -2.89057         0.55047
O          6.27438        -4.65989         1.53273
O          2.09754         0.67311         1.95348
O          6.74935         4.40205         1.71851
O         -4.20593         4.14549         1.78720
O         -9.60544         1.27303         2.66336
H         -9.10175         2.12930         2.55740
O          2.97319         3.05427         2.26643
O         -0.60638         7.79193         2.65425
H          0.12149         7.50037         3.25099
O         -6.34530         4.33785        -1.36842
O         -3.89088         1.59399        -2.20579
H         -3.53003         0.91091        -2.82377
O         -4.60253        -5.55410        -1.91457
O          5.84838        -1.15562         0.90221
O          2.18283         7.53319         3.07049
H          2.22660         8.48883         3.28977
O          7.41806        -2.13977        -2.12884
O          0.85295        -8.49757        -1.92101
H          0.99143        -7.79788        -2.59547
O         -7.07551        -4.86640        -1.61629
H         -6.37914        -4.91591        -2.31361
O          6.06398        -7.46284         1.97767
H          6.21093        -6.48781         2.06945
O          7.51982         2.58753        -1.43933
O         -8.90226        -0.32560        -1.68891
O         -2.99367         6.84393         1.89883
O         -5.57182        -3.42171         1.45930
H         -6.13981        -3.95798         2.06923
O         -3.83861         9.70705         1.25747
H         -3.11674         9.23973         1.73309
O          3.35200       -10.04290        -1.58227
H          2.60689        -9.54705        -2.00304
O          1.06461         9.43410         1.56487
O          5.39047         2.17216         2.27326
H          5.54267         2.91641         2.89654
O         -3.36017        -0.83489        -2.35311
O         -3.23425        -3.26235        -2.31172
O          0.85579         1.21058         2.45699
H          1.15931         1.89110         3.10959
O         -0.55752        -0.70381        -2.29722
O         -3.83685        -8.38398         2.66366
H         -2.99960        -7.92045         2.87975
O          5.27242         1.55469        -1.32642
O          1.61243         0.56005        -1.61745
O          1.84001         5.19517         2.56815
O         -3.82495        -7.93629        -2.26065
H         -3.40094        -8.81004        -2.07559
O         -3.43294         7.51474        -1.68306
H         -4.16607         7.82263        -2.25701
O         10.37708         2.92761         1.96124
H         10.30054         3.86735         2.22431
O          3.77112        -3.40169         1.52401
H          5.43375        -4.21527         1.81338
O          7.25582         5.44086        -1.71250
H          7.43821         4.49579        -1.92144
O         -8.79471         3.44304        -1.81066
H         -7.92056         3.81610        -2.08769
O         -5.85168        -0.68696         1.50999
H         -5.71942        -1.64137         1.75312
O         -7.02446        -5.42522         2.01981
H         -7.73356        -5.80879         2.57801
O         -8.80009        -1.56134        -2.43037
H         -9.74190        -1.79303        -2.61803
H         11.84893        -1.45734         0.92700
H         11.86281         0.98939         1.17553
H         10.90979         3.21586        -0.04209
H          9.70479         5.59794         0.21028
H          8.40524         7.73898        -0.10914
H          7.04860         9.86561        -0.40108
H          4.92858        11.01851        -0.28185
H          2.55049        10.40957        -1.22147
H          0.07497        10.55913        -1.28315
H         -2.36638        10.80732        -1.16277
H         -4.98482        10.97882        -1.12434
H         -7.10516         9.77854        -1.16514
H         -8.49900         7.86192        -0.39157
H         -9.83394         5.65003        -0.26960
H        -11.11424         3.29516        -0.17702
H        -12.28445         1.19369         0.34164
H        -12.24225        -1.25731         0.33778
H        -10.93734        -3.37839         0.47769
H         -9.67913        -5.46018         0.59413
H         -8.32338        -7.64985         0.90389
H         -7.02817        -9.87638         0.67790
H         -4.83795       -10.81590         1.31096
H         -2.35822       -10.59917         1.63767
H          0.07484       -10.56049         1.46672
H          2.46366       -10.64061         1.15794
H          4.97636       -11.07967         0.18363
H          6.94653        -9.81171         0.77489
H          8.21742        -7.77514        -0.22894
H          9.54177        -5.62166        -0.27846
H         10.74120        -3.59823         0.01515
