         621
 CSIRO Nanostructure Databank - Neutral Graphene Oxide Data Set
C          5.96870        31.57052        -1.08200
C          6.01984        32.91850        -1.30158
C          8.26563        27.29792         0.06041
C          8.17941        28.69474         0.11140
C          7.07339        29.44875        -0.36795
C          8.20558        31.63668        -0.09610
C          7.07707        30.86231        -0.48463
C          8.30847        33.02906        -0.36040
C          7.18529        33.70380        -0.97197
C          8.41580        35.83710        -0.90404
C          7.24059        35.07756        -1.19158
C          8.46586        37.22402        -1.08928
C         10.79283        23.03937         0.72542
C         10.70079        24.45307         0.78478
C          9.50123        25.16039         0.47756
C         10.60921        27.28942         0.89808
C          9.43823        26.56730         0.47586
C         10.61111        28.74534         0.86787
C          9.32039        29.44864         0.67623
C         10.63011        31.66680         0.50166
C          9.32086        30.94737         0.57051
C         10.59363        33.15434         0.75466
C          9.47948        33.78447        -0.04948
C         10.81242        35.86328        -0.21632
C          9.57790        35.15041        -0.37605
C         10.86651        37.25335        -0.48765
C          9.65733        37.96460        -0.85294
C         10.91089        40.08576        -0.86896
C          9.70384        39.35775        -1.02480
C         10.96983        41.47779        -1.06984
C         13.44586        18.88803         0.48646
C         13.39135        20.30325         0.60605
C         12.15187        20.96978         0.69851
C         13.23478        23.15894         1.04012
C         12.03524        22.38435         0.84116
C         13.15568        24.53260         1.25785
C         11.87984        25.19054         1.15224
C         12.84703        27.38705         1.94919
C         11.77041        26.59695         1.26875
C         13.02721        28.74058         1.30040
C         11.78123        29.45203         0.97785
C         13.09126        31.66593         1.12500
C         11.88411        30.90496         0.72698
C         13.12873        33.07864         0.89741
C         11.94803        33.80019         0.56023
C         13.28446        35.81006         0.20106
C         12.01907        35.14988         0.18643
C         13.38798        37.19084        -0.39948
C         12.09543        37.96806        -0.40913
C         13.36832        40.08876        -0.47781
C         12.13088        39.36402        -0.57384
C         13.40880        41.48423        -0.66693
C         12.19016        42.19245        -0.99356
C         13.45358        44.29704        -1.20591
C         12.23634        43.58571        -1.21732
C         13.46982        45.71192        -1.35216
C         15.86800        14.70008        -0.37087
C         15.86591        16.09997        -0.09634
C         14.68026        16.79909         0.13800
C         15.89507        18.96945         0.22529
C         14.65777        18.21572         0.29548
C         15.85829        20.40844         0.36523
C         14.62343        21.04859         0.55610
C         15.78097        23.34348         0.57814
C         14.52449        22.52210         0.65018
C         15.76054        24.73430         1.20754
C         14.39056        25.35817         1.47820
C         15.13562        27.44679         2.72672
C         14.15893        26.67325         2.16218
C         15.23976        28.89042         2.54332
C         14.23507        29.52971         1.66287
C         15.45324        31.71266         1.77073
C         14.22425        31.01118         1.58908
C         15.57545        33.03198         1.33737
C         14.39201        33.74801         0.94992
C         15.71043        35.85860         0.81202
C         14.43489        35.12925         0.59743
C         15.79391        37.33155         0.51829
C         14.57151        38.01232         0.04578
C         15.88266        40.07733        -0.28855
C         14.58322        39.36307        -0.16270
C         15.87910        41.56244        -0.01019
C         14.64433        42.22183        -0.59775
C         15.96713        44.25213        -1.08757
C         14.67248        43.56122        -0.93482
C         15.94032        45.73834        -1.28251
C         14.65151        46.47563        -1.30092
C         15.87930        48.63623        -1.38450
C         14.67217        47.87651        -1.41043
C         15.93126        49.97987        -1.73610
C         18.26373        10.49308        -1.36567
C         18.24708        11.87634        -1.22606
C         17.05874        12.60512        -0.92522
C         18.35581        14.68250        -0.34617
C         17.04722        13.97761        -0.61492
C         18.28389        16.18554        -0.46776
C         17.11525        16.85559        -0.17270
C         18.35243        19.03466        -0.06197
C         17.10371        18.29856        -0.01166
C         18.31051        20.47682         0.09970
C         17.10948        21.14400         0.27134
C         18.34512        23.25562         0.86622
C         17.12397        22.67617         0.17670
C         18.28428        24.49570         1.48171
C         17.06739        25.19680         1.78691
C         18.37785        27.19141         2.50260
C         17.20748        26.38305         2.53151
C         18.41393        28.53128         2.85864
C         16.39204        29.59763         2.74596
C         18.05125        31.49114         1.87104
C         16.66590        30.88236         2.03568
C         18.14100        32.96104         1.66785
C         16.93351        33.61653         1.14796
C         18.21224        35.87360         1.12667
C         16.99768        35.11144         0.81825
C         18.25835        37.24949         0.80277
C         17.12086        37.92938         0.33055
C         18.45476        40.08048        -0.05583
C         17.16787        39.31834        -0.16101
C         18.42535        41.56243        -0.06697
C         17.21022        42.24328        -0.29112
C         18.45827        44.30715        -0.68719
C         17.23082        43.60942        -0.63402
C         18.50334        45.73765        -1.22825
C         17.18560        46.46944        -0.91919
C         18.44678        48.61319        -1.33484
C         17.13532        47.94918        -0.98860
C         18.38146        50.11430        -1.24018
C         17.13637        50.77586        -1.65876
C         18.29433        53.01575        -1.55078
C         17.10461        52.13923        -1.87096
C         18.44137        54.29255        -2.33114
C         20.71394         6.31491        -2.55842
C         20.67504         7.55653        -1.79502
C         19.43677         8.36290        -1.72210
C         20.77392        10.43724        -1.68380
C         19.46372         9.72791        -1.58787
C         20.80552        11.93953        -1.60201
C         19.49300        12.65225        -1.46752
C         20.84481        14.71274        -0.82585
C         19.52913        14.08892        -1.09560
C         20.85348        16.17521        -0.77700
C         19.52466        16.93653        -0.68995
C         20.86708        19.02775        -0.35642
C         19.54497        18.36291        -0.33731
C         20.89893        20.51110        -0.08936
C         19.57485        21.30627        -0.13771
C         20.80560        23.08871         1.12721
C         19.59277        22.54667         0.72789
C         20.82326        24.52346         1.46350
C         19.56024        25.12408         2.01650
C         20.81318        27.31709         2.15030
C         19.53724        26.63463         1.71853
C         20.75764        28.73274         2.32046
C         19.50065        29.36652         2.45576
C         20.67984        31.58568         2.01477
C         19.36767        30.76839         2.06127
C         20.57536        33.04774         2.14572
C         19.34564        33.69076         1.89030
C         20.51358        35.99193         2.28161
C         19.29698        35.19142         1.86830
C         20.69980        37.33360         1.61400
C         19.59063        37.92728         0.80981
C         20.85871        40.19202         0.83152
C         19.68908        39.37509         0.40802
C         20.89579        41.58727         0.41260
C         19.66768        42.25626        -0.03313
C         20.93025        44.38062        -0.44909
C         19.64918        43.64795        -0.32986
C         20.91715        45.86335        -0.43007
C         19.69856        46.53819        -0.69436
C         20.75741        48.69765        -0.17332
C         19.60983        47.92938        -0.65201
C         20.74568        50.25176        -0.46231
C         19.52858        50.82947        -1.06330
C         20.88315        52.90082        -1.72004
C         19.56710        52.20667        -1.61523
C         20.89685        54.35839        -1.93628
C         19.67033        54.98123        -2.38004
C         20.95472        57.04811        -2.83220
C         19.74972        56.31305        -2.88205
C         21.05326        58.36582        -3.36137
C         23.12015         3.89444        -4.06864
C         21.92648         4.46346        -3.62879
C         23.18619         6.36769        -2.69832
C         21.92105         5.70795        -2.93179
C         23.24349         7.61973        -2.03694
C         22.00603         8.23497        -1.50276
C         23.21487        10.38489        -1.22075
C         22.02658         9.71764        -1.38748
C         23.24377        11.83583        -1.05644
C         22.04887        12.58382        -1.12656
C         23.28521        14.68168        -0.53176
C         22.03582        13.99104        -0.80997
C         23.30846        16.06243        -0.28306
C         22.09685        16.85876        -0.37394
C         23.40488        18.96770        -0.07479
C         22.09941        18.21405        -0.16948
C         23.26605        20.19682         0.81066
C         22.08715        21.07444         0.60550
C         23.27837        23.02033         1.60568
C         22.06073        22.36487         1.11184
C         23.34041        24.40201         1.77137
C         22.10519        25.24035         1.75120
C         23.08603        27.38475         2.91589
C         21.99297        26.61858         2.35467
C         23.21008        28.78099         2.61236
C         21.98007        29.48822         2.36606
C         23.14747        31.65125         2.41712
C         21.93424        30.89594         2.36442
C         23.12120        33.07223         2.44595
C         21.80205        33.75654         2.59081
C         23.08678        36.02824         2.74561
C         21.76817        35.27006         2.70384
C         23.09299        37.52101         2.49283
C         21.83816        38.21693         2.04408
C         23.11261        40.41104         1.81726
C         21.91489        39.60698         1.49660
C         23.24784        41.74268         1.20677
C         22.10499        42.29917         0.53115
C         23.45171        44.44805         0.12497
C         22.19793        43.64980        -0.07387
C         23.37111        45.93276         0.10883
C         22.11834        46.60875        -0.20198
C         23.24093        48.79045         0.25858
C         22.04009        48.00607        -0.03907
C         23.26056        50.31640        -0.09421
C         22.03736        50.95964        -0.64197
C         23.35846        52.94716        -1.36947
C         22.08545        52.20757        -1.21136
C         23.35101        54.43689        -1.45599
C         22.09868        55.09385        -1.83328
C         23.31150        57.27158        -2.03849
C         22.10883        56.45550        -2.22001
C         23.43836        58.53279        -2.77006
C         22.27918        59.08429        -3.38758
C         23.61538        61.01674        -4.05082
C         22.39035        60.35496        -4.01857
C         24.34170         4.53563        -3.86379
C         25.61829         6.48370        -3.01815
C         24.39833         5.78845        -3.18967
C         25.66737         7.73217        -2.36568
C         24.45299         8.29821        -1.86931
C         25.77639        10.29509        -0.99192
C         24.45374         9.51835        -0.97098
C         25.75881        11.78791        -0.79007
C         24.47323        12.51351        -0.78365
C         25.75959        14.56613        -0.37996
C         24.51195        13.91255        -0.57496
C         25.76733        15.92458         0.16976
C         24.53291        16.73353         0.09167
C         25.81371        18.78773         0.62469
C         24.57328        18.09454         0.31943
C         25.80452        20.09945         1.08566
C         24.52058        20.77038         1.41338
C         25.84591        22.94018         2.03382
C         24.50678        22.21563         1.83405
C         25.81108        24.40666         1.93443
C         24.61564        25.07856         1.82017
C         25.75414        27.34202         2.09476
C         24.69743        26.51870         1.40071
C         25.69781        28.82575         2.09177
C         24.44976        29.50754         2.35659
C         25.52164        31.69332         1.77449
C         24.37099        30.92038         2.25940
C         25.52608        33.16171         1.99412
C         24.35609        33.81007         2.37710
C         25.64770        36.07284         2.45752
C         24.38924        35.28093         2.66703
C         25.66876        37.43397         2.29447
C         24.38012        38.16658         1.97492
C         25.70344        40.37293         2.01853
C         24.42031        39.67616         2.19604
C         25.69944        41.75306         1.72631
C         24.50266        42.38883         1.27572
C         25.78644        44.58196         1.18364
C         24.63721        43.76532         0.73175
C         25.70101        46.02799         1.01197
C         24.50541        46.66108         0.41276
C         25.73512        48.78288         0.07391
C         24.53607        48.09881         0.26697
C         25.74989        50.16355        -0.32464
C         24.56577        50.86727        -0.45231
C         25.83572        53.01577        -0.68288
C         24.61330        52.23179        -1.02038
C         25.81492        54.49443        -0.94107
C         24.53746        55.12663        -1.36869
C         25.89765        57.21530        -1.89637
C         24.59585        56.58656        -1.56171
C         25.89519        58.51372        -2.41447
C         24.69959        59.17801        -2.85367
C         24.76201        60.44126        -3.49679
C         26.89707         8.45486        -2.25301
C         28.14412        10.50319        -1.76527
C         26.97298         9.72826        -1.67143
C         28.19422        11.88902        -1.42321
C         26.99506        12.55720        -1.02339
C         28.23219        14.67482        -0.76995
C         26.99833        13.92796        -0.69695
C         28.27950        16.03660        -0.41075
C         27.09757        16.66786         0.20029
C         28.25822        18.83977         0.22280
C         27.07218        18.12785         0.34485
C         28.27614        20.23853         0.55870
C         27.09371        20.78868         1.25099
C         28.27879        23.03088         1.14816
C         27.15168        22.24533         1.70180
C         28.33747        24.47376         1.46525
C         27.09273        25.14101         1.95869
C         28.37578        27.35542         2.06768
C         27.05922        26.62531         2.17643
C         28.19533        28.84275         1.86648
C         26.91806        29.50035         1.90405
C         28.09365        31.71292         1.49322
C         26.82598        30.93311         1.57135
C         28.08078        33.19019         1.66567
C         26.83533        33.85302         2.16054
C         28.24790        36.06130         2.62366
C         26.90800        35.30678         2.56966
C         28.17417        37.52793         2.25243
C         26.92476        38.19641         2.21022
C         28.17334        40.32817         2.42240
C         26.91597        39.61500         2.13776
C         28.21707        41.90141         2.24820
C         27.03062        42.45950         1.47161
C         28.22164        44.71936         1.52560
C         26.97676        43.97824         1.51730
C         28.27708        46.03196         1.08740
C         27.02442        46.77939         0.92529
C         28.32342        48.63973        -0.25325
C         27.00250        48.00822         0.08776
C         28.34163        50.07343        -0.69409
C         27.02418        50.82247        -0.75001
C         28.31903        52.98090        -0.84729
C         27.09917        52.28701        -0.73119
C         28.29352        54.40006        -1.09279
C         27.11196        55.14235        -1.24255
C         27.09610        56.48087        -1.70453
C         29.37909        12.64664        -1.57294
C         30.59808        14.80170        -1.44000
C         29.42199        14.03228        -1.26865
C         30.63254        16.18622        -1.14358
C         29.44651        16.81072        -0.62036
C         30.63862        18.95329        -0.43386
C         29.47311        18.20337        -0.26789
C         30.74296        20.33908         0.15445
C         29.41071        21.00965         0.36485
C         30.38293        23.27222        -0.19536
C         29.36586        22.43220         0.55160
C         30.45057        24.72355         0.23726
C         29.43119        25.30902         0.91018
C         30.46334        27.61838         0.69625
C         29.17687        26.81803         0.85436
C         30.64216        28.91817         1.38173
C         29.40335        29.54476         1.69519
C         30.61811        31.74758         1.89823
C         29.34923        31.00239         1.86244
C         30.56930        33.21818         1.71958
C         29.37362        33.89048         1.80759
C         30.55233        36.10177         1.46169
C         29.31526        35.36464         1.78475
C         30.72101        37.46444         2.12124
C         29.40287        38.23078         2.13222
C         30.72774        40.33684         2.39181
C         29.43970        39.62230         2.28716
C         30.75042        41.88705         2.34729
C         29.49466        42.56251         2.05180
C         30.76920        44.78493         1.84239
C         29.44128        44.08347         2.15063
C         30.75916        46.09988         1.16562
C         29.53771        46.73076         0.84078
C         30.77697        48.77219         0.17000
C         29.55458        48.03677         0.28887
C         30.76246        50.16128        -0.18884
C         29.58630        50.86055        -0.51670
C         29.54824        52.25346        -0.72030
C         31.79753        16.97817        -1.32652
C         32.97690        19.15716        -1.19098
C         31.82251        18.34951        -0.98243
C         32.98133        20.56521        -0.98417
C         31.80411        21.21421        -0.46741
C         32.86078        23.40320        -0.75457
C         31.73196        22.59840        -0.38658
C         32.82518        24.82473        -0.63320
C         31.49438        25.53691        -0.50263
C         33.01828        27.50852         0.31835
C         31.62620        26.97916         0.04221
C         33.08227        28.97560         0.75208
C         31.91703        29.60100         1.33552
C         32.99703        31.78588         2.03564
C         31.89526        31.00974         1.73888
C         33.00860        33.22889         1.88370
C         31.82142        33.90564         1.59848
C         33.12827        36.05508         1.16789
C         31.81093        35.32530         1.20946
C         33.15307        37.51715         1.34312
C         31.86933        38.23370         1.45597
C         33.25341        40.36766         1.77203
C         31.93562        39.69448         1.77469
C         33.22315        41.81607         1.83599
C         32.04850        42.52725         1.98142
C         33.27500        44.64573         1.25531
C         32.06977        44.00917         1.85345
C         33.21398        46.00991         0.87724
C         31.99817        46.74083         0.83981
C         31.98657        48.09488         0.41874
C         34.08415        21.36007        -1.36963
C         35.11703        23.58653        -1.72907
C         34.05197        22.77017        -1.25010
C         35.05046        24.98263        -1.63937
C         33.92943        25.59309        -0.99892
C         35.14964        27.80705        -1.10022
C         33.81937        27.11015        -0.96412
C         35.36821        29.00781        -0.39948
C         34.37000        29.59333         0.53484
C         35.86192        31.60911         0.77857
C         34.79615        30.76812         1.21424
C         36.08263        32.94594         1.20275
C         34.23967        33.97738         1.86611
C         35.63949        35.95135         1.25928
C         34.35750        35.27223         1.41996
C         35.56030        37.33926         1.51732
C         34.37099        38.16981         1.47437
C         35.62443        40.38684         1.08329
C         34.42688        39.64201         1.53029
C         35.62823        41.75479         1.13534
C         34.55152        42.55136         1.80542
C         34.44816        43.92161         1.19977
C         35.96798        25.85563        -2.33090
C         36.82526        28.05403        -3.02834
C         36.01208        27.22588        -2.12438
C         37.56825        29.09162        -2.55354
C         36.61206        29.71129        -0.55481
C         37.84708        31.87930        -0.60871
C         36.79393        31.04185        -0.14305
C         37.80329        33.27205        -0.47980
C         36.89016        33.87659         0.48323
C         37.77274        36.12433        -0.08244
C         36.81513        35.31342         0.67595
C         37.83454        37.53245        -0.17447
C         37.14031        38.46511         0.63960
C         36.70144        39.73766         0.33794
C         38.17270        30.18640        -3.28260
C         39.16010        32.52005        -3.25670
C         38.71575        31.28413        -2.65605
C         39.23254        33.71171        -2.58702
C         38.61716        34.11962        -1.32952
C         38.60680        35.47521        -1.05801
O         16.55681        39.60310        -1.48777
O         24.21824        52.33806        -2.43061
O         25.95139        31.22048         0.44100
O         20.10284        31.01410         0.80816
O         21.48081        25.28901         0.39943
O         23.77458        57.34559        -0.63244
O         34.18110        31.13337         2.41243
O         35.40927        33.36125         2.35212
O         30.90315        41.09572         3.60192
O         38.91009        31.25276        -1.26231
O         23.58086        40.27575         3.20179
O         31.56185        39.19384         0.41657
O         15.16261        25.66288         0.24613
O         11.42089        31.28341        -0.64863
O         26.92951        34.25121         3.58930
O         26.02219        10.83515         0.34570
O         14.91995        23.24435        -0.59727
O         27.62042        47.76746        -1.21479
O         27.99569        41.27920         3.52543
O         24.51911        43.88587        -0.74178
O         29.51504        35.97376         0.44906
O         26.21543        46.83664         2.12823
O         21.35072         7.48087        -0.45302
O         28.08741        24.61283         2.92540
O         23.59100        19.94670         2.21460
O          8.98049        30.30482         1.83840
O         20.92469        11.25824        -2.90003
O         14.10645        28.87764         0.33952
O         16.19979        26.81792         3.38130
O         36.73556        37.96478         1.90277
O         20.20231        16.71483        -1.99043
O         31.63212        44.75506         3.04486
O         27.66400        50.26703        -1.96293
O         20.25414        52.21332        -2.89388
O         26.56168        16.00506         1.40222
O         17.37559        29.10852         3.60993
O         28.08084        32.57775         0.31915
O         32.43413        35.62873        -0.07992
O         17.11917        34.12436        -0.23811
O         25.70053        53.95799         0.43393
O         22.23280        38.18105         3.45254
O         24.11821        26.92877         0.40848
O         30.79838        27.88928        -0.72235
O         27.46691        21.18474         2.63586
O         20.50245        49.71872         0.85770
O         20.66587        37.15296         0.16104
O         31.08275        25.63959        -1.86684
O         16.10377        44.86205        -2.42791
O         21.78357        43.75451        -1.47272
O         31.17811        37.22422         3.42424
O         23.12414        49.83561         1.26908
O         17.37892        30.76714         0.75334
O         15.61598        36.80297         1.92071
O         19.29633        13.71309        -2.48090
O         17.11272        47.24625         0.31083
O         18.66682        45.74234        -2.62195
O         19.43018        39.55429        -1.02322
O         23.80777        35.67279         3.96058
O         29.89872        31.40218         3.17192
O         25.10484        22.40469         3.15784
O         37.70996        29.09600        -1.13879
O         19.42307        35.85581         3.21644
O         21.14277        20.00120        -1.46502
O         21.58374        34.45461         3.88403
O         26.27327        26.85078         3.39081
O         19.62976        24.91432         3.45139
H         18.80171        25.24749         3.85887
O         29.84089        23.35015        -1.55160
H         30.24977        24.17597        -1.96735
O         23.74891        19.44372        -1.41324
H         22.90575        19.75269        -1.83291
O         29.19182        44.27881         3.57294
H         30.06206        44.20196         4.03112
O         28.34550        27.02599        -0.30258
H         28.95251        27.05905        -1.08197
O         19.29165        26.86531         0.32461
H         20.06409        26.51096        -0.17534
O         27.36952        42.14056         0.07977
H         26.66999        42.51713        -0.49902
O         29.14873        27.14353         3.26196
H         28.94459        26.23173         3.58416
O         24.29855         8.97408         0.36720
H         24.76378         9.59273         0.97907
O         23.83261        26.75176         3.83202
H         24.54939        27.31219         4.19858
O         10.24604        33.32020         2.16369
H         10.11436        34.27614         2.33525
O         34.94947        42.73752         3.20935
H         34.20709        43.18390         3.67086
O         13.67488        36.91595        -1.82530
H         13.81064        37.77635        -2.27809
O         17.30922        23.00269        -1.21673
H         16.41794        23.03200        -1.63445
O         18.67415        14.43282         1.06916
H         17.89306        14.69524         1.60165
O         15.70879        41.64249         1.44551
H         15.58518        42.58372         1.69043
O         28.68852        36.04931         3.99416
H         28.32883        35.24187         4.42620
O         33.53913        26.73555         1.43225
H         34.38116        27.14038         1.72828
O         31.24870        20.11108         1.52848
H         30.53726        19.66648         2.03831
O         18.66641        48.39651        -2.76147
H         18.67758        47.39396        -2.92806
O         33.07466        27.47952        -2.14598
H         32.28383        26.85677        -2.23560
O         18.14815        53.39725        -0.13239
H         17.32064        53.91559        -0.04430
O         24.24169        38.00794         0.51904
H         25.08330        38.27254         0.08936
O         12.32555        27.70526         3.28556
H         12.00792        26.87450         3.69751
O         19.48447        21.84018        -1.47728
H         19.81008        21.14676        -2.09501
H          5.07268        31.00010        -1.36777
H          5.16091        33.43213        -1.75843
H          7.41074        26.72500        -0.33174
H          6.19335        28.90294        -0.74290
H          6.36525        35.59641        -1.61081
H          7.56867        37.75637        -1.43921
H          9.89400        22.44670         0.49858
H          8.60965        24.58207         0.19103
H          8.78780        39.89668        -1.30959
H         10.04771        42.02376        -1.31969
H         12.50883        18.31288         0.52312
H         11.23021        20.37312         0.62406
H         11.29961        44.12689        -1.41803
H         12.50617        46.23191        -1.46573
H         14.89832        14.18602        -0.45649
H         13.72709        16.25061         0.17437
H         13.72148        48.40832        -1.57168
H         15.00446        50.48413        -2.05055
H         17.32342         9.93472        -1.23978
H         16.10234        12.05888        -0.92430
H         16.14821        52.62542        -2.12228
H         17.53409        54.80569        -2.68543
H         19.76408         5.87845        -2.90369
H         18.47206         7.83223        -1.72316
H         18.84853        56.78355        -3.30097
H         20.16163        58.82069        -3.81801
H         23.09679         2.93014        -4.59545
H         20.97157         3.94997        -3.80999
H         23.68725        61.99854        -4.53952
H         21.50263        60.80628        -4.48352
H         25.27233         4.08205        -4.23335
H         26.54839         6.04148        -3.40453
H         26.85905        59.00845        -2.60762
H         25.72715        60.96267        -3.56704
H         27.79923         8.02894        -2.71693
H         29.04197        10.04183        -2.20343
H         29.25441        54.90686        -1.26830
H         28.05257        56.96880        -1.94589
H         30.29223        12.14846        -1.93058
H         31.50739        14.31147        -1.81843
H         31.71470        50.71158        -0.15806
H         30.49122        52.81890        -0.68529
H         32.70390        16.51054        -1.73968
H         33.88098        18.68398        -1.60521
H         34.13856        46.50566         0.54669
H         32.94216        48.61182         0.24999
H         34.97756        20.87503        -1.79176
H         35.97695        23.11093        -2.22396
H         36.48650        42.30462         0.72043
H         35.36585        44.40256         0.82788
H         36.65286        25.40718        -3.06648
H         36.76718        27.84195        -4.10596
H         38.41615        37.94539        -1.01329
H         37.13047        40.27614        -0.52010
H         38.05165        30.20021        -4.37486
H         39.48475        32.49611        -4.30850
H         39.66771        34.55370        -3.15108
H         39.20830        36.13388        -1.70408
