         480
 CSIRO Nanostructure Databank - Neutral Graphene Oxide Data Set
C         37.65973        50.16726         1.00201
C         36.53717        50.85833         1.46142
C         37.67338        52.95091         1.06411
C         36.54571        52.25190         1.49860
C         40.11135        48.66025         0.39425
C         40.05620        50.13716         0.08084
C         38.80086        50.85464         0.56629
C         40.02023        53.00883         0.06171
C         38.80400        52.26882         0.59448
C         40.07361        54.48382         0.34354
C         42.56841        48.72291         0.56014
C         41.28316        48.02613         0.58649
C         42.56998        50.11917         0.55805
C         41.25879        50.84260         0.75462
C         42.50673        53.00418         0.54026
C         41.31142        52.31606         0.43952
C         42.53169        54.47141         0.51482
C         41.24432        55.14469         0.46222
C         45.03345        45.88612         0.54431
C         43.84806        46.57813         0.49111
C         45.05117        48.71046         0.60280
C         43.81031        48.00003         0.55321
C         45.05076        50.14282         0.53809
C         43.79097        50.86329         0.52704
C         45.00152        53.04160         0.46818
C         43.75321        52.27024         0.57078
C         45.00566        54.46516         0.98292
C         43.72168        55.18412         0.61261
C         44.98144        57.27816         0.44068
C         43.78863        56.61501         0.52155
C         47.55315        44.39706         0.88058
C         47.48842        45.82824         0.87359
C         46.28876        46.55175         0.70895
C         47.51683        48.72629         0.76962
C         46.28803        48.00201         0.71060
C         47.50982        50.14706         0.67522
C         46.27705        50.83473         0.54598
C         47.53702        53.03751         0.90915
C         46.30127        52.30315         0.42553
C         47.50340        54.49383         0.49646
C         46.27967        55.19737         0.59494
C         47.46944        57.28796         0.09251
C         46.25065        56.58816         0.38618
C         47.49817        58.70748         0.00865
C         49.96976        44.40594         1.43542
C         48.69614        43.70413         1.17160
C         49.99915        45.80617         0.83550
C         48.74521        46.56953         1.27308
C         49.98433        48.67650         0.74619
C         48.77169        48.01771         0.83900
C         50.00653        50.14591         0.78988
C         48.75164        50.88351         0.67137
C         49.99729        52.95825         0.20347
C         48.79841        52.27744         0.57137
C         49.86862        54.35070        -0.27976
C         48.67204        55.14903         0.07663
C         49.89391        57.25898        -0.47834
C         48.67987        56.55900        -0.12677
C         49.87916        58.68316        -0.51788
C         48.66698        59.37745        -0.26177
C         52.48328        41.52077         1.36788
C         51.34101        42.18805         1.64060
C         52.56893        44.38158         1.37924
C         51.27161        43.66296         1.64722
C         52.55970        45.88822         1.11106
C         51.27578        46.60627         1.00893
C         52.48293        48.67777         0.36908
C         51.25977        47.96703         0.75153
C         52.49741        50.08620         0.13549
C         51.32376        50.89555         0.50712
C         52.41959        52.95070        -0.42157
C         51.22766        52.29549         0.06305
C         52.41970        54.35479        -0.70002
C         51.12998        55.07273        -0.71810
C         52.32436        57.20556        -1.00952
C         51.12220        56.54555        -0.70536
C         52.26413        58.65686        -1.25899
C         51.08041        59.41665        -0.83917
C         52.39100        61.49915        -0.90878
C         51.16219        60.80419        -0.81177
C         55.04509        40.04900         1.05585
C         54.91025        41.42881         0.73076
C         53.72793        42.18858         0.98776
C         54.96874        44.34199         0.64352
C         53.72431        43.59615         0.91766
C         54.92142        45.79035         0.31376
C         53.73202        46.52960         0.47799
C         54.82293        48.53577        -0.49078
C         53.64442        47.89839         0.11751
C         54.83334        50.03231        -0.74592
C         53.62275        50.79199        -0.36833
C         54.81283        52.84765        -1.22746
C         53.61541        52.18895        -0.56486
C         54.86838        54.35158        -1.05934
C         53.61315        55.07584        -0.97526
C         54.79362        57.24175        -1.36465
C         53.56517        56.50234        -1.14485
C         54.82737        58.62950        -1.38776
C         53.58976        59.42566        -1.41575
C         54.88602        61.54468        -0.89949
C         53.60853        60.85589        -1.07091
C         54.94305        62.95092        -0.72337
C         57.37248        39.85456         0.05048
C         56.15968        39.31201         0.76255
C         57.39072        41.37221         0.06941
C         56.04213        42.06038        -0.04447
C         57.33203        44.20994        -0.40427
C         56.16706        43.53842         0.24841
C         57.34587        45.70731        -0.42227
C         56.11390        46.46322        -0.08235
C         57.34098        48.58980        -0.38503
C         56.10039        47.82625        -0.35585
C         57.31336        50.02507        -0.71020
C         56.13915        50.74362        -0.78017
C         57.33132        52.89529        -0.99762
C         56.14084        52.18124        -0.92399
C         57.35811        54.32327        -1.24889
C         56.07437        55.01147        -1.24700
C         57.36062        57.17397        -1.67144
C         56.04468        56.45701        -1.55567
C         57.36444        58.66609        -1.54904
C         56.07896        59.41095        -1.42397
C         57.35978        61.48608        -0.76750
C         56.09654        60.82302        -0.95484
C         57.38263        62.92668        -0.80357
C         56.16078        63.61900        -0.76747
C         59.89106        37.42695         1.63499
C         58.73092        37.95570         1.14146
C         59.88892        39.99660         0.44227
C         58.67006        39.26864         0.59219
C         59.81852        41.25059        -0.42128
C         58.55975        42.04649        -0.16007
C         59.80580        44.17968        -0.51553
C         58.61499        43.48707        -0.34831
C         59.82633        45.63443        -0.61451
C         58.64752        46.36930        -0.47932
C         59.90113        48.50703        -0.82975
C         58.68657        47.82937        -0.39191
C         59.76023        49.91969        -1.35173
C         58.62425        50.70283        -0.71112
C         59.87675        52.88379        -1.22405
C         58.62379        52.19863        -0.84112
C         59.87339        54.29177        -1.34695
C         58.59509        55.00234        -1.36110
C         59.83226        57.14313        -1.42534
C         58.63934        56.44816        -1.43336
C         59.83897        58.63134        -1.38671
C         58.55527        59.21644        -0.81948
C         59.80189        61.22818        -0.22024
C         58.55573        60.70773        -0.66470
C         59.86110        63.32983        -0.58841
C         58.61280        63.67713        -1.13841
C         59.81843        65.14855        -2.63170
C         58.60723        64.63660        -2.16824
C         62.54177        36.08051         2.10744
C         62.41442        37.40142         1.38717
C         61.15396        38.22954         1.74344
C         62.36681        40.30196         0.82494
C         61.09725        39.48716         0.89830
C         62.34683        41.27491        -0.37157
C         61.07785        42.07726        -0.38478
C         62.31184        44.20131        -0.56288
C         61.07094        43.45139        -0.48395
C         62.30847        45.62550        -0.63701
C         61.07761        46.34332        -0.69302
C         62.35963        48.46386        -0.94798
C         61.09249        47.76932        -0.88939
C         62.37445        49.91955        -1.26794
C         61.07693        50.67952        -1.43025
C         62.32148        52.84300        -1.22415
C         61.08480        52.15639        -1.28579
C         62.34354        54.27029        -1.25851
C         61.12463        54.97051        -1.44574
C         62.41338        57.21254        -1.51798
C         61.12209        56.44212        -1.60462
C         62.33637        58.56642        -0.80494
C         61.11967        59.38940        -1.18207
C         62.28331        61.52461        -0.16618
C         61.04684        60.73134        -0.55340
C         62.37317        62.99771        -0.70598
C         61.12453        63.69035        -1.11298
C         63.01279        65.80816        -1.79136
C         61.04011        64.66355        -2.13928
C         63.08458        67.20424        -1.85931
C         64.88020        35.95302         1.38016
C         63.70096        35.39110         2.02707
C         64.91805        37.34881         1.15976
C         63.72325        38.20239         1.57345
C         64.81948        40.09030         0.38501
C         63.66585        39.50245         0.80557
C         64.82542        41.43683        -0.16989
C         63.59786        42.09718        -0.39673
C         64.77483        44.22888        -0.70381
C         63.54927        43.50568        -0.59175
C         64.77460        45.61583        -0.60375
C         63.54502        46.34367        -0.58923
C         64.78123        48.54819        -0.38692
C         63.53415        47.78135        -0.65644
C         64.82197        50.02566        -0.58879
C         63.57450        50.72601        -0.98253
C         64.77786        52.81013        -0.51136
C         63.54555        52.09596        -1.00961
C         64.77802        54.30255        -0.74165
C         63.61653        54.96972        -1.07624
C         64.93072        57.18207        -0.98758
C         63.68881        56.43251        -1.34380
C         64.88742        58.68511        -0.88008
C         63.59094        59.40052        -0.77981
C         64.74778        61.47405        -0.15210
C         63.55027        60.74851        -0.47999
C         64.77889        62.87526        -0.13373
C         63.61530        63.61734        -0.65557
C         64.91535        65.75385        -0.32452
C         63.83626        65.05408        -0.92889
C         64.97623        67.16789        -0.33806
C         64.00445        67.88503        -1.06865
C         67.19407        32.99505         1.04697
C         66.03903        33.74503         1.24548
C         67.18580        35.78899         0.51623
C         66.02106        35.16032         1.03487
C         67.24725        37.19505         0.40059
C         66.09441        37.96482         0.71706
C         67.32908        40.05214        -0.00105
C         66.15298        39.47164         0.74174
C         67.27690        41.36212        -0.47147
C         66.04946        42.07434        -0.46003
C         67.31269        44.18185        -0.92504
C         66.00737        43.44285        -1.07483
C         67.29870        45.61377        -0.92649
C         66.07204        46.32643        -0.52390
C         67.26566        48.54266        -0.95285
C         66.09467        47.82350        -0.39266
C         67.28996        50.00347        -1.04393
C         66.11857        50.69414        -0.88382
C         67.23136        52.81908        -0.28348
C         66.07689        52.19717        -1.06242
C         67.17592        54.28688        -0.10841
C         66.02467        54.98670        -0.41001
C         67.26886        57.17182         0.04960
C         65.93310        56.46242        -0.08862
C         67.28823        58.57283         0.11964
C         66.09427        59.35005        -0.29156
C         67.10115        61.38679         0.86583
C         65.90431        60.69087         0.30810
C         67.08020        62.86087         0.82661
C         65.95970        63.54669         0.30868
C         67.15032        65.70435         0.90000
C         66.17407        64.99874        -0.00436
C         67.10503        67.12148         1.00810
C         66.04366        67.85854         0.39428
C         67.03148        69.91826         1.24811
C         66.03687        69.25494         0.53663
C         69.59044        31.37481         0.51650
C         69.57630        32.78299         0.34451
C         68.37275        33.55336         0.53152
C         69.64782        35.65899        -0.03428
C         68.31529        34.95119        -0.03513
C         69.69016        37.08144        -0.10147
C         68.48824        37.85380         0.03974
C         69.76703        39.92354        -0.37650
C         68.53863        39.26683        -0.10860
C         69.76720        41.43692        -0.40891
C         68.50678        41.98741        -1.12175
C         69.74132        44.24120        -1.38256
C         68.49434        43.50517        -1.07506
C         69.75653        45.72805        -1.32155
C         68.44894        46.34675        -1.20878
C         70.12103        48.79352        -1.47624
C         68.25913        47.75117        -1.47713
C         69.93082        50.09965        -1.00780
C         68.60149        50.83881        -1.26764
C         69.77733        52.79056         0.02179
C         68.53551        52.06651        -0.28079
C         69.73188        54.20153         0.42550
C         68.39560        54.96933         0.38340
C         69.65700        57.13687         0.55650
C         68.45209        56.45012         0.30558
C         69.64667        58.53459         0.72981
C         68.45341        59.26751         0.53203
C         69.51747        61.37116         1.28338
C         68.41366        60.68967         0.84340
C         69.33569        62.73983         1.83898
C         68.21039        63.54395         1.31819
C         69.31000        65.64575         2.11340
C         68.21594        64.96837         1.44727
C         69.26021        67.06697         2.25062
C         68.14790        67.80625         1.71588
C         69.15523        69.92680         2.56544
C         68.10382        69.22363         1.84267
C         69.10419        71.32611         2.76478
C         71.91787        31.27767        -0.12090
C         70.74116        30.63426         0.28725
C         71.93666        32.66227        -0.27131
C         70.78839        33.43943        -0.03217
C         72.06570        35.58854        -0.23199
C         70.82932        34.90340        -0.11066
C         72.11522        36.96519        -0.34362
C         70.93881        37.74706        -0.29713
C         72.18509        39.88208        -0.71123
C         70.97815        39.19143        -0.44976
C         72.19643        41.26925        -0.97866
C         71.05425        42.03835        -0.91847
C         72.25262        44.30070        -1.07158
C         71.06613        43.47738        -1.29642
C         72.19719        45.66196        -1.10871
C         70.97806        46.42490        -1.23077
C         72.12768        48.48508        -0.24627
C         71.09787        47.88934        -1.01012
C         72.12495        49.85886         0.00229
C         71.02826        50.68296        -0.33939
C         72.20340        52.85905         0.12848
C         71.01283        52.12558        -0.04654
C         72.17687        54.26051         0.28520
C         70.99108        54.95444         0.43712
C         71.95562        57.05277         1.50410
C         71.01559        56.46615         0.46769
C         71.94707        58.37561         1.72862
C         70.90628        59.23281         1.09758
C         71.92947        61.46102         2.04869
C         70.85152        60.73569         1.33512
C         71.78814        62.71377         2.51843
C         70.49075        63.43967         2.49091
C         71.49484        65.63219         3.18295
C         70.44060        64.92737         2.58563
C         71.43717        67.01292         3.34468
C         70.32978        67.75646         2.89714
C         71.27431        69.90235         3.77719
C         70.26182        69.20021         3.08273
C         71.20280        71.27597         3.95867
C         70.10995        71.99257         3.44967
O         50.51892        44.23529         2.76704
O         58.86094        51.50856         0.46984
O         64.74876        56.71608        -2.33996
O         56.68190        56.70615        -2.87133
O         69.46044        62.78095         3.32038
O         65.87687        59.35291        -1.74159
O         61.82439        50.22325        -2.61382
O         58.11803        48.36940         0.86906
O         50.18836        54.49231        -1.70746
O         56.87241        59.35035        -2.70888
O         52.75887        59.07633        -2.56926
O         54.60590        49.09859        -1.85070
O         66.29251        47.00007         0.79491
O         61.81630        57.01726        -2.80753
O         70.39627        43.69082        -2.60349
O         64.68515        49.45228         0.77237
O         50.86186        50.66220         1.87620
O         52.89733        45.34091         2.43870
O         56.04030        43.94024         1.63311
O         68.88969        54.45287         1.65056
O         66.12121        60.74718         1.76289
O         57.07588        44.89155        -1.66032
O         69.17019        48.30807        -2.37718
O         45.71605        52.83970        -0.80125
O         67.61653        51.98319         0.84944
O         60.51193        59.29102        -2.50502
O         71.34831        60.17087         0.05857
O         59.80144        62.44710         0.50617
O         62.19304        65.16796        -2.73729
O         68.57806        51.40464        -2.53892
O         62.27471        37.12110        -0.02693
H         63.03134        36.56218        -0.30378
O         59.29152        49.74035        -2.72448
H         60.09688        49.59747        -3.27715
O         58.43727        58.63793         0.52918
H         59.16260        58.99806         1.08331
O         63.90024        38.54082         2.96909
H         64.74761        39.04639         3.02699
O         68.50559        41.61193        -2.52049
H         69.21798        42.14801        -2.95144
O         62.09954        58.18141         0.59767
H         62.31956        58.95092         1.16858
O         57.26134        39.47728        -1.36741
H         58.09207        39.81333        -1.79958
O         44.97794        54.35948         2.43945
H         45.03245        55.26640         2.80640
O         48.76554        46.60558         2.72626
H         47.98457        47.11187         3.03196
O         69.62498        41.90184         0.98036
H         70.40124        41.57461         1.48217
O         64.82096        52.61564         0.92769
H         63.93338        52.79744         1.29905
O         62.36733        40.41929        -1.57022
H         62.75469        40.94260        -2.30425
O         67.98657        34.75735        -1.47355
H         67.14341        34.25677        -1.50853
O         66.35377        39.82959         2.16863
H         67.29269        39.64763         2.38858
O         49.92645        45.57976        -0.60199
H         49.83798        46.44845        -1.04894
O         55.67949        41.93377        -1.45428
H         55.94070        41.02333        -1.73520
O         40.97342        50.76728         2.19531
H         41.72433        51.18186         2.67071
O         47.45876        53.00899         2.36882
H         48.33682        53.25176         2.72982
O         65.88624        43.20020        -2.52717
H         66.65874        42.64198        -2.78800
O         40.14699        50.22983        -1.35400
H         39.95454        51.16667        -1.61615
O         62.40888        41.09316         2.04145
H         62.44190        40.44739         2.78754
O         62.27258        61.64405         1.28928
H         61.45458        62.14634         1.51718
O         59.68685        40.75056        -1.80403
H         60.56026        40.32937        -2.01445
O         66.88189        64.97297        -1.32055
H         66.29277        64.51595        -1.95951
O         71.55843        56.85285        -0.83505
H         71.60778        57.83337        -0.86592
O         66.18298        52.52711        -2.44871
H         67.06083        52.14231        -2.76454
O         61.28849        38.66036         3.13702
H         60.43631        39.06471         3.40474
O         65.31693        56.54594         1.23870
H         65.85958        56.01689         1.86227
O         39.92221        52.92211        -1.41893
H         40.70528        53.38269        -1.79055
O         54.58457        52.64262        -2.66598
H         55.26033        53.15773        -3.15653
H         37.63408        49.06937         0.98953
H         35.65148        50.30170         1.79795
H         37.65890        54.04873         1.09777
H         35.66789        52.80249         1.86405
H         39.18715        48.06630         0.34499
H         39.13951        55.06190         0.30283
H         41.27696        46.93926         0.75002
H         41.21865        56.23755         0.57641
H         45.00368        44.79001         0.49307
H         42.91419        46.01001         0.39150
H         44.95780        58.37033         0.33434
H         42.86180        57.20159         0.45475
H         46.63939        43.82029         0.67796
H         46.58672        59.29230         0.18515
H         48.66251        42.60714         1.23672
H         48.64703        60.47395        -0.30038
H         52.47115        40.42283         1.40018
H         50.43687        41.63081         1.92406
H         52.36196        62.58351        -0.73693
H         50.26951        61.40450        -0.59127
H         54.22299        39.54439         1.58534
H         54.01956        63.54094        -0.66262
H         56.14941        38.24558         1.02738
H         56.16923        64.71840        -0.76543
H         59.88544        36.39936         2.02589
H         57.83006        37.32594         1.13798
H         59.83408        65.88762        -3.44271
H         57.66159        64.94480        -2.63443
H         61.67823        35.64243         2.62818
H         62.41616        67.74881        -2.53832
H         63.77315        34.39602         2.48906
H         64.02712        68.98152        -1.10868
H         67.17317        31.93578         1.33979
H         65.14744        33.24265         1.64234
H         66.96829        71.01137         1.32547
H         65.23206        69.85487         0.09189
H         68.67232        30.84772         0.80904
H         68.25654        71.90909         2.38110
H         72.82619        30.69222        -0.31870
H         70.72547        29.54273         0.41203
H         72.87164        33.14116        -0.59156
H         73.00859        35.02665        -0.25717
H         73.09454        37.44627        -0.46615
H         73.13429        39.33675        -0.78231
H         73.14747        41.73067        -1.28365
H         73.19895        43.80567        -0.80885
H         73.13375        46.21752        -0.95887
H         72.94491        47.87788         0.16715
H         72.96742        50.29224         0.55975
H         73.17432        52.34923         0.06585
H         73.12703        54.81338         0.28589
H         72.70292        56.40503         1.98639
H         72.67512        58.83524         2.41356
H         72.91730        60.97846         2.08511
H         72.66107        63.21521         2.96165
H         72.37523        65.09315         3.55824
H         72.28192        67.51237         3.83604
H         72.13676        69.36376         4.19153
H         71.99990        71.80040         4.50338
H         70.04856        73.07994         3.59463
