         266
 CSIRO Nanostructure Databank - Neutral Graphene Oxide Data Set
C        -11.22360         0.61535        -0.30448
C        -10.01243         1.40834        -0.10124
C         -8.78218         0.64274         0.05620
C         -7.51661         1.42345         0.06560
C         -6.25912         0.70595        -0.25038
C         -4.98229         1.26542         0.31332
C         -3.65006         0.54918         0.04017
C         -2.54669         1.44057        -0.51396
C         -1.26893         0.75563        -0.85743
C          0.00187         1.42777        -0.34944
C          1.29983         0.69273        -0.61263
C          2.51511         1.40830        -0.60362
C          3.71930         0.71091        -0.34716
C          5.00839         1.44493        -0.28143
C          6.11685         0.83666         0.53422
C          7.38059         1.60563         0.69793
C          8.65794         0.88601         0.34772
C          9.94344         1.65778         0.64068
C         11.15938         0.78285         0.43257
C         -9.99489         2.78171        -0.05607
C         -8.81725         3.53032         0.47152
C         -7.55242         2.76606         0.73248
C         -6.24805         3.55142         0.96563
C         -4.97068         2.70971         0.72462
C         -3.64378         3.45460         0.71935
C         -2.49582         2.88252        -0.07312
C         -1.22115         3.65708        -0.23704
C          0.05584         2.92986        -0.52206
C          1.23208         3.60012        -0.60670
C          2.46269         2.83410        -1.13150
C          3.80866         3.61559        -1.08342
C          5.08676         2.89093        -0.66508
C          6.09425         3.75634         0.11317
C          7.48684         3.13483         0.50873
C          8.67007         3.54854        -0.36836
C          9.85155         2.90350        -0.25690
C         -8.69255         5.00186         0.26632
C         -7.50439         5.63621         0.10213
C         -6.22063         4.87744         0.22514
C         -4.91202         5.60746         0.28503
C         -3.64539         4.95632         0.76522
C         -2.36960         5.71601         0.61431
C         -1.10048         4.94971         0.52243
C          0.21637         5.65175         0.55755
C          1.19885         5.14470        -0.59133
C          2.58970         5.74654        -0.37965
C          3.81241         5.12402        -1.02886
C          5.12941         5.86021        -0.86332
C          6.37725         5.04163        -0.67335
C          7.60489         5.80019        -0.26683
C          8.40988         4.83640        -1.11231
C         -7.48989         7.11808        -0.28148
C         -6.12235         7.81708        -0.31616
C         -4.86181         7.09099         0.03750
C         -3.64444         7.83168         0.51945
C         -2.36135         7.09204         0.60079
C         -1.10970         7.86047         0.81602
C          0.23713         7.10715         1.13351
C          1.48485         7.93573         0.74652
C          2.65035         7.13435         0.16825
C          3.86175         7.96687        -0.13340
C          5.16607         7.25799        -0.35020
C          6.32951         7.73705         0.52297
C          7.63793         7.09822         0.08823
C         -6.08902         9.30722        -0.31428
C         -4.92056         9.97722        -0.30240
C         -3.63803         9.35222         0.12450
C         -2.35215         9.83603        -0.31624
C         -1.12915         9.36062         0.26340
C          0.18453        10.01251         0.03024
C          1.33907         9.33726         0.21552
C          2.55836         9.74843         1.02119
C          3.86879         9.37112         0.34901
C          5.20052         9.98483         0.61882
C          6.33261         9.25684         0.61227
C        -11.23940        -0.71985        -0.10664
C        -10.02421        -1.50693         0.33073
C         -8.76050        -0.72221         0.11674
C         -7.43246        -1.45059         0.36738
C         -6.42511        -0.78040        -0.62639
C         -5.07560        -1.44846        -0.84812
C         -3.77805        -0.73120        -0.76694
C         -2.50689        -1.51994        -0.79339
C         -1.24829        -0.74411        -0.99049
C          0.06186        -1.45021        -0.88995
C          1.30727        -0.71373        -0.56735
C          2.50664        -1.41996        -0.27230
C          3.70041        -0.66407        -0.08112
C          4.85036        -1.42668         0.54347
C          6.24207        -0.70285         0.62687
C          7.37525        -1.29432        -0.22705
C          8.65329        -0.50096        -0.22498
C          9.95874        -1.26140        -0.49985
C         11.15250        -0.50686         0.06016
C         -9.95768        -2.89728        -0.26703
C         -8.79390        -3.64239        -0.24929
C         -7.48342        -3.01267         0.19396
C         -6.34302        -3.64089        -0.58018
C         -5.06327        -2.94421        -0.86560
C         -3.79267        -3.60981        -0.32292
C         -2.51683        -2.87234        -0.68492
C         -1.25478        -3.62104        -0.45786
C          0.04611        -2.93984        -0.76013
C          1.31164        -3.64258        -0.40405
C          2.50168        -2.84835        -0.07191
C          3.68077        -3.58137         0.21818
C          4.94281        -2.81352        -0.13199
C          6.24015        -3.53037         0.28207
C          7.44739        -2.78607        -0.26954
C          8.75567        -3.49485        -0.18571
C          9.91367        -2.73842        -0.14512
C         -8.76922        -5.04904        -0.50138
C         -7.58917        -5.82774        -0.30396
C         -6.30837        -5.05169        -0.03539
C         -5.07540        -5.82237        -0.47248
C         -3.76240        -5.11095        -0.59966
C         -2.51055        -5.89053        -0.39100
C         -1.25991        -5.10026        -0.23825
C          0.04929        -5.85770        -0.42123
C          1.20802        -5.03391         0.13970
C          2.44054        -5.69571         0.72495
C          3.70112        -4.95008         0.48900
C          4.94322        -5.71087         0.21920
C          6.22474        -4.99425        -0.09416
C          7.54032        -5.70436        -0.07719
C          8.73106        -4.92545        -0.10889
C         -7.55700        -7.20676        -0.15628
C         -6.31203        -7.87958         0.40664
C         -5.07149        -7.29897        -0.25606
C         -3.76466        -8.01759        -0.17706
C         -2.49727        -7.25048        -0.27341
C         -1.20263        -8.05864        -0.34371
C         -0.03544        -7.24058         0.25478
C          1.35356        -7.94424         0.15706
C          2.41511        -7.21136         1.05062
C          3.77431        -7.92739         0.89848
C          5.03792        -7.13945         0.64114
C          6.32120        -7.86810         0.30029
C          7.51708        -7.09692        -0.12228
C         -6.22888        -9.39563         0.31948
C         -5.05146       -10.03472         0.44991
C         -3.75801        -9.27067         0.68489
C         -2.45932       -10.04157         0.59955
C         -1.25386        -9.42035         0.32887
C          0.00069       -10.06585         0.55463
C          1.26924        -9.42798         0.45857
C          2.46956       -10.11676         0.55555
C          3.77411        -9.41004         0.62565
C          5.01690        -9.98934         0.06076
C          6.17917        -9.30515        -0.03290
O         -0.15499         4.74514         1.63698
O         -5.03076         1.63060         1.72839
O          1.94055        -7.78623        -1.19379
H         -0.87886        -7.48696        -2.21807
O         -6.86305         1.57557        -1.25933
O          1.44004        -5.01911         1.56646
O         -5.20015         7.35929        -1.36323
O         -0.51122        -1.10203        -2.20631
O         -7.10802        -0.86635        -1.88603
H         -6.49037        -0.54622        -2.58098
O          9.96281         2.07176         2.01435
H          9.22068         2.73887         2.13684
O         -3.48873         4.14728         1.99246
O         -1.28004         8.97791         1.68285
O          3.82097         4.44466        -2.30115
O          3.62500         9.06133        -1.07290
O         -4.58303        -8.07985        -1.38288
O         -1.25987        -4.20144         0.91963
O          6.00311        -7.42230         1.68947
O          8.55816         0.64761        -1.12025
O          0.68874         5.60448        -1.78452
O          6.78457        -1.00191         1.94432
H          6.63905        -0.19628         2.50985
O         -3.79705         8.85624         1.50590
O         -4.53312        -5.48374        -1.77875
O         -5.93488        -3.45203        -1.93871
O          6.49007         1.38712         1.84086
O          5.55594         1.88862        -1.58656
O          4.38959        -1.63579         1.89750
O         -0.16194         1.26037         1.10981
H          0.57537         1.72058         1.56632
O          5.37772        -5.42499        -1.19516
O         -7.20752        -3.57442         1.54697
O          2.92740         5.97559         1.02099
O         -0.99810        -8.34936        -1.74886
O         -7.20842        -1.12039         1.69413
O         -4.47162        -0.77863        -2.03613
O          5.38410         6.98697        -1.75711
O          2.15903         2.61379        -2.52732
H          2.37047         3.44921        -3.00808
O         -2.11132         1.31768        -1.89357
O         -3.12695         0.07218         1.30485
H         -3.61605         0.53135         2.03095
O          3.98114        -8.86181         1.99918
O          7.14816         4.60976        -1.88396
O         -3.77284        -8.77964         2.05990
H         -3.86786        -9.54490         2.66379
O         -6.31318        -4.76473         1.40326
O         -6.20212         3.93429         2.34978
H         -6.21091         3.11321         2.88862
O          2.17234         8.62479         1.92252
O         -5.36615         4.89774        -0.93671
O          0.87138        -3.53829        -1.81850
O         -3.92492        -3.44337         1.11271
H         -3.06932        -3.70983         1.52736
O         -8.35466         7.84674         0.59715
H         -8.16406         7.59032         1.52277
O          7.17601        -1.99698        -1.47072
O         -8.47876         2.97677         1.81918
O          7.81911         3.67088         1.77109
O         -2.23648         3.72783        -1.26097
O          2.04769        -7.31007         2.42803
H          2.56623        -8.05561         2.81843
H          4.89519        -2.38839         2.28316
O        -10.09578        -1.72711         1.77883
H         -9.16996        -1.65754         2.12767
O         10.13817        -1.27269        -1.94551
H          9.65360        -0.48881        -2.29551
O          6.00737         7.25283         1.85679
H          6.82182         7.26382         2.40056
O          0.25405         7.02661         2.55157
H         -0.04053         6.12376         2.81609
O         -6.25238        -7.49669         1.80598
H         -7.13117        -7.64174         2.21281
O          6.33727        -3.57713         1.72938
H          6.76764        -2.74218         2.05278
O          0.23211        -6.05227        -1.83591
H          0.45768        -5.17521        -2.24508
O          5.41969         4.08503         1.32506
H          6.15114         4.10469         2.01038
O          4.87217        -2.65177        -1.55289
H          5.02262        -3.53033        -1.96937
O          1.63889        -8.96615        -1.98543
H          0.64446        -8.89740        -2.10128
O         -0.42044        -7.07396         1.61850
H          0.23625        -6.49768         2.08100
H         12.11501        -1.04081        -0.00007
H         12.11856         1.23535         0.73152
H         10.74603         3.26202        -0.79092
H          9.25382         5.20589        -1.73763
H          8.57566         7.67374         0.13296
H          7.29721         9.76007         0.78786
H          5.24539        11.07523         0.77212
H          2.54089        10.73826         1.53198
H          0.19345        11.11030        -0.05549
H         -2.31338        10.45822        -1.22232
H         -4.91131        11.06814        -0.44676
H         -7.03375         9.83914        -0.49737
H         -7.93059         7.21380        -1.30904
H         -9.62215         5.58166         0.14480
H        -10.92566         3.34583        -0.22478
H        -12.14986         1.14263        -0.58003
H        -12.18337        -1.27575        -0.21773
H        -10.90012        -3.38427        -0.56877
H         -9.71751        -5.56163        -0.73015
H         -8.48629        -7.79065        -0.26451
H         -7.15662        -9.97304         0.17793
H         -5.01617       -11.13540         0.41383
H         -2.44147       -11.05366         1.04043
H         -0.01359       -11.11915         0.87968
H          2.46936       -11.21279         0.66216
H          4.97659       -11.03225        -0.28774
H          7.05648        -9.80132        -0.47578
H          8.45686        -7.65338        -0.26607
H          9.69528        -5.45616        -0.07408
H         10.88236        -3.25736        -0.06023
