         429
 CSIRO Nanostructure Databank - Neutral Graphene Oxide Data Set
C          1.96189         4.15606         2.26029
C          0.70371         4.74598         1.98528
C          1.57241         7.04204         2.31767
C          0.50551         6.10763         1.93642
C          1.51349         8.49922         1.95949
C          0.30790         9.09156         1.54803
C          1.40122        11.23406         1.16135
C          0.24013        10.43894         1.19649
C          1.36847        12.64263         0.72396
C          0.17796        13.21341         0.09238
C          1.10975        15.50150         0.37434
C          0.06388        14.53781        -0.15028
C          1.08300        16.88122        -0.25036
C         -0.14290        17.57095        -0.28195
C          0.95783        19.53785        -1.22159
C         -0.20435        18.86748        -0.76003
C          0.89643        20.89952        -1.66520
C         -0.25609        21.67472        -1.52035
C          1.00924        23.72505        -2.00018
C         -0.22081        23.04106        -1.76396
C          1.06340        25.15923        -1.87643
C         -0.11203        25.90844        -1.48418
C          1.20273        27.94538        -1.21840
C         -0.05509        27.20793        -1.09649
C          1.28437        29.45948        -1.02949
C          0.14164        30.26033        -0.56720
C          1.24820        32.33186        -1.22901
C          0.17296        31.62665        -0.59412
C          1.34784        33.86841        -1.30697
C          0.11994        34.50585        -0.70248
C          1.37909        35.82108         0.95323
C          0.14643        35.39811         0.30211
C          1.31805        36.77266         2.00619
C          4.39854         4.40920         2.61390
C          3.11225         4.94532         2.43892
C          4.14688         7.26521         2.18945
C          2.94019         6.41375         2.54217
C          3.93800         8.71036         2.66174
C          2.68071         9.30391         2.01499
C          3.88511        11.40616         1.23549
C          2.62450        10.64217         1.57460
C          3.77720        12.92592         1.39407
C          2.48805        13.45015         0.82113
C          3.61512        15.47701        -0.00397
C          2.46085        14.82762         0.36869
C          3.52224        16.78222        -0.70404
C          2.24879        17.53548        -0.68859
C          3.41945        19.57137        -1.64915
C          2.21480        18.86625        -1.18396
C          3.34217        20.77974        -2.28093
C          2.02519        21.49189        -2.47386
C          3.44307        23.66706        -2.46079
C          2.18806        22.99730        -2.27123
C          3.48516        25.11611        -2.41217
C          2.27968        25.81776        -2.10195
C          3.53635        28.04636        -2.32852
C          2.25608        27.29638        -2.07465
C          3.60192        29.49348        -2.00125
C          2.38905        30.16616        -1.70201
C          4.14541        32.45437        -1.64641
C          2.21282        31.56763        -1.87370
C          4.00467        33.70804        -0.87389
C          2.66954        34.40601        -0.66115
C          3.81432        35.73578         1.18999
C          2.61568        35.31891         0.52367
C          3.73299        36.69101         2.25238
C          2.46662        37.21307         2.62811
C          6.82626         4.66047         3.06870
C          5.56248         5.23242         2.79065
C          6.61762         7.45232         2.64983
C          5.45350         6.64774         2.63642
C          6.51097         8.87193         2.44558
C          5.20171         9.53739         2.46510
C          6.37679        11.60988         1.49736
C          5.14018        10.93950         1.92825
C          6.26407        12.93520         0.91933
C          5.00335        13.57366         0.77951
C          6.10375        15.48007        -0.28520
C          4.92324        14.83786         0.14885
C          6.07523        16.89875        -0.68343
C          4.77015        17.51647        -1.04842
C          5.93237        19.43247        -2.13879
C          4.77348        19.02355        -1.24112
C          5.81842        20.67790        -2.91817
C          4.50190        21.45490        -2.99710
C          5.90039        23.61989        -2.83951
C          4.64682        22.94398        -2.68249
C          5.95402        25.06777        -2.76254
C          4.72002        25.81428        -2.60391
C          5.99146        27.93414        -2.47228
C          4.76802        27.25000        -2.51019
C          6.04097        29.29498        -2.06921
C          4.88836        30.09705        -1.89590
C          6.10009        31.71918        -0.32687
C          5.03768        31.46211        -1.37418
C          6.24291        33.18991        -0.01442
C          5.13966        34.00226         0.02902
C          6.23213        35.49107         1.68197
C          5.09140        35.14893         0.90970
C          6.14162        36.51572         2.67361
C          4.91470        37.09335         2.94199
C          9.28652         4.87896         3.30246
C          8.02045         5.44029         3.08155
C          9.06918         7.68015         2.78486
C          7.90166         6.86019         2.82007
C          8.94366         9.05869         2.44140
C          7.65938         9.63851         2.22360
C          8.83873        11.64559         1.34651
C          7.60639        11.00466         1.74795
C          8.69025        12.81928         0.47476
C          7.43141        13.57305         0.46918
C          8.56426        15.48350        -0.63398
C          7.38935        14.85755        -0.15383
C          8.44654        16.62815        -1.59877
C          7.29200        17.54126        -1.24613
C          8.38905        19.38925        -2.51151
C          7.15046        18.79986        -2.02328
C          8.37861        20.70470        -2.90602
C          7.11778        21.42552        -3.14422
C          8.37670        23.57410        -3.05607
C          7.12006        22.90817        -3.07277
C          8.42502        25.00945        -2.93970
C          7.20391        25.73688        -2.84535
C          8.55417        27.93470        -2.81875
C          7.19821        27.24471        -3.08111
C          8.61142        29.30213        -2.17760
C          7.34404        29.79672        -1.55446
C          8.71086        31.62548        -0.38467
C          7.40143        30.99199        -0.66349
C          8.77111        32.95135         0.25840
C          7.51563        33.73788         0.47168
C          8.62939        35.06825         2.24228
C          7.48218        34.80326         1.48225
C          8.58506        36.08119         3.27369
C          7.38668        37.00269         3.38277
C         11.80441         5.19153         3.68940
C         10.54802         5.63672         2.98449
C         11.43295         7.99399         3.28016
C         10.35931         7.12773         3.03614
C         11.19500         9.37914         3.12897
C         10.09160         9.89729         2.43835
C         11.33047        11.80132         1.20137
C         10.09408        11.17974         1.73949
C         11.21396        12.83565         0.28202
C          9.91895        13.45490        -0.05646
C         11.02724        15.38557        -1.23787
C          9.92820        14.95061        -0.29489
C         10.97176        16.63224        -1.83786
C          9.72822        17.38514        -1.85989
C         10.88098        19.30594        -2.84106
C          9.65914        18.65493        -2.40378
C         10.86973        20.65531        -3.18995
C          9.58431        21.37496        -3.48170
C         10.84979        23.50708        -3.22058
C          9.61298        22.85480        -3.18643
C         10.91070        24.92959        -3.03114
C          9.71535        25.64769        -2.90941
C         11.06981        27.67758        -2.21112
C          9.80818        27.11945        -2.77159
C         11.12967        28.99003        -1.66501
C          9.90449        29.81396        -1.59130
C         11.12154        31.39966        -0.03460
C          9.87927        30.94407        -0.62181
C         11.10480        32.50141         0.89933
C          9.93541        33.25367         1.09969
C         10.95753        34.52906         2.91760
C          9.84634        34.29710         2.06836
C         10.84979        35.46230         4.00584
C          9.64096        36.23632         4.13557
C         14.18763         5.48480         4.18221
C         12.88094         6.01904         3.86811
C         14.08448         8.24525         3.28892
C         12.77871         7.48729         3.65546
C         14.06919         9.49418         2.48464
C         12.98664        10.37005         2.50742
C         13.78672        11.62907         0.65101
C         12.68663        11.27957         1.45371
C         13.63352        12.59495        -0.44595
C         12.29157        13.21728        -0.65366
C         13.46319        15.10858        -1.90057
C         12.13840        14.41671        -1.60314
C         13.34891        16.33513        -2.79101
C         12.13997        17.20882        -2.47872
C         13.30034        19.12669        -3.52681
C         12.09611        18.51688        -2.91093
C         13.29737        20.61501        -3.77349
C         12.07344        21.38499        -3.47082
C         13.31037        23.53862        -3.87740
C         12.07346        22.76794        -3.47134
C         13.41188        24.89365        -3.18356
C         12.21582        25.58489        -2.90058
C         13.52643        27.61303        -2.19716
C         12.23646        26.91634        -2.37061
C         13.57244        28.81182        -1.32681
C         12.33336        29.52016        -1.12145
C         13.56629        31.23269         0.24887
C         12.31176        30.71362        -0.32499
C         13.49089        32.19929         1.35711
C         12.29508        32.84856         1.63885
C         13.27449        34.06050         3.56346
C         12.19228        33.83318         2.70187
C         13.11454        34.86471         4.74254
C         11.89801        35.58704         4.91717
C         16.61654         5.41607         3.86979
C         15.35901         6.13691         3.83980
C         16.45436         7.95620         2.57360
C         15.33506         7.45426         3.21804
C         16.39542         9.13245         1.73719
C         15.16286         9.83812         1.63847
C         16.17410        11.41319         0.01913
C         15.05157        10.98673         0.79809
C         16.04778        12.57856        -0.82689
C         14.84200        13.22826        -0.99839
C         15.91232        15.17082        -2.13433
C         14.69435        14.49925        -1.71298
C         15.88870        16.44960        -2.68277
C         14.63257        17.13283        -2.89593
C         15.81865        19.16457        -3.64791
C         14.60244        18.44338        -3.32920
C         15.79982        20.56601        -3.91844
C         14.58127        21.34854        -3.80950
C         15.86564        23.49974        -3.94549
C         14.58493        22.71959        -3.77670
C         15.89750        24.75792        -3.11078
C         14.70985        25.47104        -2.94346
C         16.13558        27.52896        -2.12286
C         14.79523        26.90688        -2.55234
C         15.99547        28.43225        -0.89149
C         14.77142        29.17611        -0.71563
C         15.93496        30.57780         1.06490
C         14.84633        30.42595         0.07607
C         15.87217        31.60441         2.06046
C         14.73098        32.54472         2.05829
C         15.59439        33.40502         4.33537
C         14.60239        33.50939         3.26041
C         15.34456        34.14183         5.54177
C         14.15541        34.91744         5.68503
C         18.98975         5.17268         3.25981
C         17.76270         5.93253         3.32904
C         18.86775         7.68778         1.87479
C         17.80870         7.37914         2.89904
C         18.77236         8.85653         1.08328
C         17.52348         9.59405         1.00702
C         18.59808        11.23262        -0.53256
C         17.41322        10.72904         0.14633
C         18.54101        12.42769        -1.29851
C         17.19806        13.00705        -1.70178
C         18.37105        15.02710        -2.66432
C         17.24230        14.54448        -1.77285
C         18.36408        16.45608        -3.03925
C         17.11789        17.13252        -3.07000
C         18.27197        19.05326        -4.12826
C         17.04830        18.45253        -3.57881
C         18.24760        20.53561        -4.44275
C         17.02621        21.28007        -4.09259
C         18.36711        23.24691        -3.50817
C         17.10046        22.65492        -3.85706
C         18.38658        24.46653        -2.76844
C         17.16817        25.25984        -2.61397
C         18.50512        26.98157        -1.43147
C         17.24265        26.50529        -2.00434
C         18.42303        28.12857        -0.37784
C         17.09874        28.73480        -0.10089
C         18.16110        29.88897         1.84514
C         17.04175        29.71627         0.96161
C         18.13173        30.98744         2.82043
C         16.89616        31.76600         3.00660
C         17.70438        32.54924         5.25846
C         16.75175        32.61523         4.17305
C         17.45956        33.30396         6.45342
C         16.29688        34.09613         6.57279
C         20.07309         5.64248         2.58225
C         21.11356         7.28989         1.02982
C         20.02547         6.88823         1.83751
C         21.06169         8.48063         0.32331
C         19.89980         9.28695         0.33340
C         21.00381        11.13651        -0.92378
C         19.83921        10.55334        -0.38247
C         20.95254        12.35256        -1.58670
C         19.72204        13.00435        -1.80251
C         20.89285        15.06709        -2.83193
C         19.67249        14.27268        -2.59439
C         20.83470        16.35550        -3.24021
C         19.58788        17.08229        -3.42759
C         20.75537        19.13513        -4.29069
C         19.57177        18.39761        -3.92585
C         20.75660        20.45710        -4.60076
C         19.52709        21.32912        -4.66191
C         20.76973        22.98716        -3.18699
C         19.57046        22.52847        -3.73711
C         20.78486        24.12556        -2.38787
C         19.61197        24.88062        -2.17472
C         20.70902        26.39016        -0.51107
C         19.64982        26.07249        -1.34951
C         20.61520        27.40298         0.47029
C         19.46502        28.16256         0.65165
C         20.16083        28.96163         2.92607
C         19.27979        29.03781         1.79294
C         20.02929        29.77290         4.01557
C         19.17155        30.95233         3.97694
C         19.72533        31.65810         6.30592
C         18.85904        31.71550         5.21305
C         19.48794        32.41903         7.46642
C         18.37582        33.23156         7.54117
O          9.14268        12.61812        -0.95942
O          4.10569        16.74368        -2.08275
O          7.38954        29.61555        -0.07506
O         12.70141        12.04401        -1.47396
O         12.12275        10.30470         3.60517
O          6.98110        17.72079         0.18127
O          8.42134        34.04981        -0.68251
O          9.37989        30.27327        -2.91749
O          5.12116        10.71143         3.36620
O         13.10904        19.66355        -4.87728
O         19.35192        31.80240         2.81080
O         14.15274        27.78576        -3.54451
O          6.43263        20.70290        -4.24384
O         15.13230        33.94442         1.96592
O         13.50782         8.28594         4.63155
O          9.40030        27.85127        -4.00326
O          2.12130         6.80596         3.66689
O         14.59186        31.61939        -0.74091
O         18.87399        28.35930        -1.73897
O          1.75490        28.50043         0.01682
O         18.05424        19.57110        -5.51820
O          3.61615        34.89010        -1.66582
O         18.78315        14.15806        -3.77797
O          3.18458        32.23851        -2.64905
O          2.50316        27.85962        -3.39525
O         10.80536         5.31605         1.54906
H          9.99704         5.56269         1.04973
O          4.12632        11.13177        -0.17198
H          3.33879        11.42028        -0.68018
O          1.55859        21.31849        -3.85468
H          2.35098        21.43149        -4.43769
O          3.77908        13.22142         2.81675
H          3.78606        14.19506         2.92568
O          7.10377        37.30882         4.75354
H          6.83415        36.48218         5.20311
O          4.21405         7.32984         0.73305
H          4.44497         6.43871         0.39578
O         15.85617        24.00640        -5.35043
H         16.20676        23.29148        -5.92530
O         16.87683        12.47640        -3.00948
H         17.55996        12.81580        -3.64015
O          8.06207        16.05061        -2.89294
H          8.75034        15.40030        -3.15074
O          6.94869        27.37777        -4.51150
H          7.83273        27.40813        -4.95080
O         19.44921        21.85516        -6.01818
H         19.16100        21.10579        -6.58599
O         13.11399        15.81544        -4.13913
H         12.45163        15.08395        -4.04681
O          4.10622        21.46540        -4.40825
H          4.93620        21.31996        -4.93146
O          0.77320        15.72288         1.78786
H          0.73209        14.84160         2.21770
O         18.23814         8.12562         4.10219
H         17.56854         7.95941         4.80029
O         13.13250        23.84596        -5.29620
H         14.00549        24.18740        -5.61698
O         16.57412        28.40799        -3.18680
H         15.76149        28.70358        -3.66396
O          1.34644        34.23629        -2.69536
H          2.28199        34.41676        -2.95258
O         11.67808        13.87215        -2.89061
H         12.03333        12.94859        -2.93360
O         17.56365        14.99583        -0.42175
H         17.48573        15.97267        -0.39934
O          5.61109        31.16672         0.93281
H          5.93367        30.23395         0.96953
O          5.04006        19.62418         0.06107
H          5.84943        19.17799         0.41943
O         10.30112        15.50667         1.02776
H         10.08957        16.46467         1.01850
O          3.71861         8.67177         4.08326
H          3.89047         9.57918         4.42270
O          9.41752        21.27409        -4.94286
H         10.25009        21.58933        -5.35695
H          2.05445         3.06049         2.25452
H         -0.13849         4.07992         1.74709
H         -0.46366         6.49582         1.59237
H         -0.61470         8.49545         1.52038
H         -0.73335        10.86534         0.91863
H         -0.62584        12.53415        -0.22684
H         -0.84204        14.93581        -0.63104
H         -1.05446        17.07735         0.08168
H         -1.17844        19.37235        -0.79011
H         -1.19027        21.23850        -1.14116
H         -1.15251        23.60564        -1.64123
H         -1.07645        25.39255        -1.40260
H         -0.94404        27.70844        -0.68898
H         -0.69688        29.74002        -0.08471
H         -0.65244        32.19986        -0.14760
H         -0.83572        34.25930        -1.18821
H         -0.79142        35.85055         0.65884
H          0.33693        37.16458         2.31023
H          4.52263         3.31581         2.63525
H          2.41219        37.95580         3.43674
H          6.89872         3.57327         3.21985
H          4.83900        37.86081         3.72639
H          9.36706         3.79379         3.47037
H          7.67752        37.98075         2.90271
H         11.93405         4.10935         3.84918
H          9.57476        36.98311         4.94075
H         14.24697         4.43893         4.52158
H         11.79320        36.25715         5.78305
H         16.61119         4.38527         4.25754
H         14.03086        35.52645         6.59221
H         19.02100         4.18473         3.74360
H         16.12208        34.66109         7.50011
H         20.99639         5.04659         2.53377
H         22.01606         6.66333         0.98762
H         21.93487         8.77952        -0.27188
H         21.97770        10.64488        -0.80203
H         21.88429        12.78360        -1.97617
H         21.87589        14.60773        -2.65780
H         21.77857        16.88959        -3.41527
H         21.71721        18.60240        -4.30614
H         21.70239        20.92297        -4.91467
H         21.70552        22.44204        -3.37061
H         21.73708        24.45852        -1.95538
H         21.61051        25.76242        -0.50336
H         21.45438        27.50934         1.17091
H         20.87630        28.12899         2.97569
H         20.56832        29.52608         4.94099
H         20.62733        31.03304         6.25971
H         20.19577        32.36441         8.30471
H         18.17800        33.82797         8.44317
