         324
 CSIRO Nanostructure Databank - Neutral Graphene Oxide Data Set
C          1.35972         3.19877        -0.45168
C          0.11867         3.90280        -0.46529
C          1.29729         5.99882         0.18990
C          0.06260         5.24724        -0.24430
C          1.22475         7.49252        -0.04839
C          0.05639         8.18795         0.23145
C          1.04626        10.37701        -0.25773
C         -0.02129         9.60079         0.17338
C          1.04060        11.82498        -0.15918
C         -0.12142        12.56244         0.04065
C          1.00938        14.73785         0.25965
C         -0.14445        13.96992         0.23777
C          1.10023        16.15254         0.55938
C          0.03122        17.06957         0.60393
C          1.09650        19.40738         0.54957
C          0.01967        18.49747         0.58684
C          1.05987        20.80553         0.10934
C         -0.14414        21.44667        -0.24619
C          1.10460        23.44420        -0.81836
C         -0.10187        22.73179        -0.77792
C          1.17065        25.70560        -0.62521
C         -0.00608        26.45369        -0.44567
C          1.26565        28.10596         0.76970
C          0.02555        27.62100         0.30259
C          1.35790        29.39925         1.38117
C          3.82435         3.23853        -0.52161
C          2.56897         3.90238        -0.44703
C          3.68056         6.09568        -0.64134
C          2.55165         5.35314        -0.35782
C          3.60523         7.53217        -0.68649
C          2.39682         8.20659        -0.45112
C          3.55120        10.47953        -0.87443
C          2.26798         9.66797        -0.69598
C          3.57223        11.92267        -0.62582
C          2.33295        12.54934        -0.14020
C          3.47800        14.81899        -0.44995
C          2.31259        14.03501         0.09120
C          3.57154        16.20320         0.06458
C          2.45278        16.65290         0.71604
C          3.53252        19.40920         0.15303
C          2.40951        18.88936         0.75249
C          3.55026        20.84599         0.04068
C          2.28400        21.54605         0.01961
C          3.53015        23.74492        -0.07237
C          2.31802        22.95093        -0.27406
C          3.58522        25.15673        -0.00422
C          2.40369        26.03341        -0.03042
C          3.71374        27.93850         0.84252
C          2.45320        27.33484         0.57185
C          3.79033        29.29122         1.31293
C          2.57374        29.97166         1.64362
C          6.25956         3.33298        -0.50638
C          5.01705         3.95432        -0.67353
C          6.22684         6.15752        -0.79104
C          4.95313         5.39903        -1.11518
C          6.19089         7.62006        -0.93795
C          4.84472         8.29452        -0.97342
C          6.09414        10.51054        -0.46887
C          4.81543         9.74307        -0.60955
C          6.03847        11.96513        -0.68044
C          4.80392        12.62755        -0.68744
C          6.03254        14.92015        -0.90244
C          4.74686        14.11160        -0.85186
C          5.99625        16.41277        -0.70526
C          4.60942        17.11101        -0.60503
C          6.01921        19.31540        -0.08575
C          4.71456        18.60173        -0.22430
C          5.98216        20.73975         0.36942
C          4.74932        21.52116         0.13737
C          6.09900        23.63748         0.19484
C          4.75194        22.99014         0.46871
C          6.11983        25.08816         0.20906
C          4.86089        25.82781         0.23110
C          6.15083        27.96917         0.50192
C          4.89257        27.20798         0.52260
C          6.22829        29.35922         1.01199
C          5.02773        29.96678         1.41473
C          8.67851         3.39643        -0.22815
C          7.48147         4.05681        -0.48832
C          8.66792         6.27751        -0.49729
C          7.43885         5.52060        -0.60711
C          8.65757         7.67780        -0.49457
C          7.41305         8.40598        -0.62832
C          8.59499        10.56384        -0.35249
C          7.38783         9.78915        -0.55527
C          8.54743        11.95413        -0.33860
C          7.32808        12.68042        -0.75872
C          8.56617        14.94604        -0.37686
C          7.34452        14.18535        -0.77525
C          8.55367        16.35315        -0.28087
C          7.24787        17.06403        -0.15538
C          8.54816        19.28828        -0.02659
C          7.27823        18.53462         0.12152
C          8.51355        20.67176        -0.02241
C          7.30137        21.44126         0.34279
C          8.58081        23.55058         0.14297
C          7.28329        22.91110         0.17035
C          8.59103        24.95900         0.52429
C          7.33969        25.72692         0.41041
C          8.69333        27.84214         0.96613
C          7.43047        27.19022         0.43463
C          8.69837        29.34769         0.76216
C          7.46623        30.02880         0.97922
C         11.03020         3.47928         0.41341
C          9.92062         4.09562        -0.09086
C         11.17621         6.27813        -0.11205
C          9.97530         5.51341        -0.60807
C         11.16361         7.73441        -0.36409
C          9.87381         8.45041        -0.35569
C         11.06426        10.57930         0.07251
C          9.85063         9.84169        -0.22800
C         11.01022        12.04314         0.32334
C          9.71869        12.76447         0.05086
C         10.98967        14.93214        -0.02152
C          9.76633        14.23122        -0.17339
C         10.98322        16.35047        -0.01710
C          9.76826        17.07587        -0.09819
C         10.99023        19.23908        -0.27287
C          9.78955        18.54475        -0.14246
C         10.99735        20.67164        -0.59424
C          9.69062        21.43781        -0.44623
C         11.04846        23.56886        -0.25893
C          9.76949        22.88356        -0.14585
C         11.09878        24.93212        -0.00231
C          9.92962        25.67052         0.49392
C         11.15905        27.87422         0.50022
C          9.86803        27.16698         0.23762
C         11.17520        29.26608         0.53139
C          9.91501        29.98857         0.58538
C         13.56660         3.50046         0.57113
C         12.27105         4.22178         0.81405
C         13.56226         6.36942         0.52689
C         12.31001         5.65099         0.32072
C         13.59799         7.77989         0.47995
C         12.41453         8.51159        -0.01223
C         13.44528        10.69100         0.73805
C         12.26249         9.93981         0.26959
C         13.49794        12.13227         0.42931
C         12.27502        12.81679         0.25016
C         13.50287        14.91583         0.04057
C         12.25330        14.21583         0.11019
C         13.53249        16.33619        -0.05874
C         12.26751        17.05906         0.15458
C         13.53725        19.20161        -0.46811
C         12.28203        18.57424        -0.02598
C         13.47030        20.63296        -0.86330
C         12.26508        21.43961        -0.58854
C         13.56814        23.55342        -0.72204
C         12.28696        22.83077        -0.59679
C         13.57453        25.06389        -0.70645
C         12.30787        25.75206        -0.25240
C         13.64613        27.80673         0.41776
C         12.38251        27.02309         0.61682
C         13.62987        29.25616         0.24105
C         12.42613        29.95894         0.40657
C         16.02465         3.52456         0.74842
C         14.76680         4.19689         0.68832
C         15.98699         6.35243         0.96629
C         14.76289         5.64940         0.75928
C         15.98796         7.79032         1.01261
C         14.78253         8.48241         0.80038
C         15.98813        10.71970         0.83171
C         14.73555         9.95754         0.94776
C         15.99034        12.08048         0.54461
C         14.73690        12.80032         0.36140
C         15.97021        14.89693        -0.10112
C         14.73532        14.20207         0.10597
C         15.97103        16.30261        -0.33834
C         14.74380        17.03670        -0.25251
C         16.00408        19.14414        -0.71999
C         14.73360        18.48268        -0.47156
C         16.04865        20.60306        -0.93029
C         14.76982        21.38648        -0.99337
C         16.08742        23.50118        -0.60284
C         14.75887        22.83986        -0.75052
C         16.09092        24.96411        -0.34338
C         14.86947        25.83160        -0.48566
C         15.96637        27.69044        -0.41914
C         14.80947        27.10040         0.33120
C         15.98730        29.17756        -0.55127
C         14.80941        29.89278        -0.23102
C         18.47875         3.51963         1.05847
C         17.21346         4.22252         0.99251
C         18.43279         6.36154         1.61118
C         17.19771         5.63929         1.13467
C         18.45029         7.83618         1.26090
C         17.23848         8.51210         1.16095
C         18.55261        10.73017         0.93053
C         17.21878         9.98766         1.15395
C         18.48933        12.08105         0.34456
C         17.23483        12.78321         0.27411
C         18.38910        14.79841        -0.64428
C         17.18373        14.13631        -0.12630
C         18.40328        16.26846        -0.73762
C         17.22300        16.99011        -0.60600
C         18.48067        19.15168        -0.65191
C         17.21403        18.44430        -0.72408
C         18.52819        20.48792        -0.29471
C         17.35260        21.31139        -0.58553
C         18.49767        23.39681         0.06733
C         17.33354        22.75007        -0.24552
C         18.56331        24.86358         0.30106
C         17.28429        25.63214         0.24996
C         18.55537        27.76988        -0.33738
C         17.29075        27.11023         0.03007
C         18.46965        29.11222        -0.80753
C         17.20705        29.80863        -0.80274
C         19.66370         4.20295         1.15250
C         20.89183         6.34018         1.17713
C         19.70093         5.62520         1.27311
C         20.90696         7.74095         1.13350
C         19.71941         8.51193         1.10898
C         20.91704        10.55701         0.30527
C         19.76220         9.90954         0.77920
C         20.89900        11.90308        -0.04727
C         19.70091        12.65675        -0.08206
C         20.95216        14.82792        -0.61717
C         19.70653        14.02930        -0.63853
C         20.94201        16.14942        -0.85462
C         19.69414        16.91862        -1.05844
C         21.01101        19.15135        -0.69161
C         19.74223        18.43750        -0.95156
C         21.03920        20.40828        -0.21824
C         19.79812        21.15576         0.07987
C         21.01390        23.44270        -0.14728
C         19.79525        22.67045         0.21185
C         21.02111        24.77780        -0.32443
C         19.85590        25.62013         0.04861
C         20.93794        27.75276        -0.76196
C         19.78267        27.06656        -0.34068
C         20.87210        29.08915        -1.17044
C         19.65752        29.76736        -1.20201
O          6.89567        27.81759        -0.77150
O          3.77077        14.54670        -1.86160
O         12.33880        17.96057         1.31402
O         17.94783        10.60736         2.26255
O          5.53016         8.02402        -2.23813
O         15.41210        26.82661        -1.57367
O         10.15071        12.43225         1.44248
O         16.93875        21.05791        -1.98981
O          6.16425        15.84630        -2.03228
O         19.40655        25.28861         1.40653
O         12.70461        25.76815        -1.64686
O         10.17929        21.03691        -1.76593
O         17.11099        26.52179         1.37828
O         19.83904        21.81324         1.40093
O         13.89079        10.36358         2.10562
O          2.56256        17.76047         1.54794
O          1.09201        24.64331        -1.53862
O         12.08650         8.17624        -1.42343
O         18.93456        14.15375        -1.87151
O          5.40763        19.23207        -1.38885
O          7.12431        17.57681         1.22479
O          2.63432        13.16562         1.21740
O         16.41527        24.44536        -1.68632
O          9.38787        25.20538         1.76717
O          6.66959        21.01919         1.63329
O          7.57465        13.42700        -2.02451
O          5.31524        10.03409         0.72909
O         19.69183        17.76450        -2.25562
O          2.77735        10.05529        -2.03363
O         14.02412        20.96187        -2.18358
O          4.05670        17.20018        -1.93454
H          4.27754        16.35951        -2.40828
O         18.36259         6.33167         3.09569
H         17.63562         6.93387         3.36445
O          4.61755        23.05055         1.93858
H          5.31853        22.45807         2.30263
O         12.39080        26.47613         1.98021
H         12.33858        27.22699         2.60904
O          4.87790         5.36389        -2.57555
H          4.98962         6.29752        -2.88295
O          8.77394        27.66721         2.39252
H          8.93168        26.70593         2.57300
O          1.36911         5.84301         1.65748
H          1.40708         4.88010         1.84170
O         12.17281         4.33042         2.29089
H         12.99687         4.76021         2.60662
O          9.62110        27.26402        -1.19247
H          9.40305        28.19579        -1.40885
O         10.19588         5.37714        -2.05476
H         10.41954         6.26462        -2.40963
H          1.36623         2.10521        -0.55976
H         -0.80347         3.34125        -0.67561
H         -0.90633         5.76619        -0.26769
H         -0.82927         7.64080         0.58273
H         -0.94575        10.08235         0.52095
H         -1.08984        12.04222         0.04252
H         -1.11945        14.45205         0.39913
H         -0.97037        16.62422         0.48116
H         -0.98472        18.92613         0.43676
H         -1.09998        20.90948        -0.18454
H         -1.00880        23.19892        -1.18324
H         -0.93412        26.11124        -0.92135
H         -0.88703        28.21342         0.45697
H          0.42812        29.94784         1.59041
H          3.86005         2.14640        -0.38455
H          2.63287        30.98479         2.06643
H          6.28961         2.25196        -0.29711
H          5.04089        31.00262         1.78512
H          8.66078         2.31120        -0.04260
H          7.48367        31.11666         1.14905
H         10.95735         2.42771         0.73461
H          9.94534        31.08693         0.51955
H         13.57404         2.40091         0.53059
H         12.41487        31.05094         0.27544
H         16.04856         2.42911         0.64911
H         14.81048        30.98864        -0.33669
H         18.47559         2.42503         0.95465
H         17.22496        30.90290        -0.92162
H         20.61811         3.65808         1.09201
H         21.84099         5.79428         1.06779
H         21.87901         8.24387         1.04217
H         21.85982        10.00377         0.20056
H         21.83173        12.35799        -0.40568
H         21.90793        14.32235        -0.41962
H         21.89590        16.69317        -0.89192
H         21.95568        18.64325        -0.92952
H         22.00361        20.89158        -0.00833
H         21.93500        22.87763        -0.35050
H         21.94401        25.26444        -0.67169
H         21.91234        27.24616        -0.76265
H         21.79289        29.60314        -1.47909
H         19.61388        30.81110        -1.54352
