         661
 CSIRO Nanostructure Databank - Neutral Graphene Oxide Data Set
C          6.89898        31.50383        -2.57604
C          6.68863        32.83061        -2.41011
C          8.35263        27.11789        -0.48090
C          8.05869        28.52575        -0.65852
C          7.73913        29.25497        -1.75570
C          8.55841        31.60293        -0.72652
C          8.06447        30.73798        -1.96447
C          8.87762        33.04137        -1.22415
C          7.55863        33.69059        -1.61462
C          8.23422        35.78823        -0.58064
C          7.27377        35.00207        -1.35127
C          8.45455        37.13914        -0.70205
C         10.73419        23.15102         0.06612
C         10.71525        24.50986         0.28651
C          9.41341        25.18509         0.59398
C         10.62017        27.39928         0.68023
C          9.42940        26.66547         0.25533
C         10.67604        28.84504         0.78495
C          9.56710        29.67780         0.49726
C         10.83487        31.69240         0.55393
C          9.70311        31.00777         0.08377
C         10.98457        33.16937         0.29213
C          9.64531        33.76997        -0.14634
C         10.81210        36.10944         1.07305
C          9.13803        34.96627         0.22680
C         10.83549        37.38047         0.49509
C          9.81899        37.82527        -0.55441
C         10.96268        40.07889        -0.51082
C          9.83270        39.32432        -0.75853
C         11.11673        41.43921        -0.92785
C         13.26580        18.95259        -0.39256
C         13.22593        20.34131        -0.35147
C         11.99280        21.06746        -0.20407
C         13.15276        23.28173        -0.55827
C         11.94908        22.44440        -0.20101
C         13.16546        24.64274         0.14550
C         11.92586        25.29015         0.37587
C         13.12161        27.38783         0.89330
C         11.87930        26.68433         0.72731
C         13.12689        28.79210         1.47125
C         11.87401        29.54930         1.10545
C         13.09133        31.65074         1.74432
C         11.87037        30.95364         1.16949
C         13.01530        33.16088         1.69243
C         11.90187        33.86861         1.31272
C         13.18692        36.02338         1.35181
C         11.95456        35.33502         1.33551
C         13.23481        37.38055         0.97956
C         12.07974        38.04604         0.52561
C         13.37821        40.21161         0.27958
C         12.03473        39.54917         0.41633
C         13.48390        41.50731        -0.14722
C         12.31028        42.16537        -0.72948
C         13.62174        44.25720        -0.90868
C         12.42154        43.52345        -1.08916
C         13.65718        45.65162        -1.18079
C         15.74500        14.69745        -0.96216
C         15.69770        16.06273        -0.92406
C         14.48782        16.80493        -0.64837
C         15.74996        18.90574        -0.56964
C         14.47690        18.18907        -0.55308
C         15.72462        20.36531        -0.27719
C         14.45424        21.12730        -0.39866
C         15.68569        23.30792        -0.51624
C         14.44290        22.49803        -0.45439
C         15.65300        24.72342        -0.01079
C         14.35298        25.36443         0.32272
C         15.65863        27.52938         0.58165
C         14.34646        26.74166         0.68258
C         15.60418        28.94773         1.11860
C         14.40119        29.58560         1.21138
C         15.65654        31.86998         1.28378
C         14.31331        31.08505         0.99667
C         15.52189        33.05076         2.25366
C         14.23732        33.84556         2.17917
C         15.69652        35.94661         1.80218
C         14.34749        35.33067         1.92800
C         15.79110        37.34175         1.25902
C         14.56370        38.03619         0.67515
C         15.82485        40.24572         1.01810
C         14.52259        39.52484         0.91554
C         15.86878        41.63473         0.56450
C         14.74195        42.24051         0.01075
C         16.03130        44.34076        -0.25176
C         14.79377        43.61921        -0.38349
C         16.16381        45.70961        -0.88786
C         14.82825        46.41423        -1.04005
C         15.99356        48.58844        -1.01979
C         14.81351        47.79914        -1.19775
C         16.01364        49.93885        -1.41458
C         18.25835        10.40080        -0.67933
C         18.19931        11.81198        -0.94393
C         17.03087        12.52822        -0.93725
C         18.25913        14.72320        -1.14952
C         16.97646        13.95591        -1.42518
C         18.22691        16.10114        -1.08463
C         16.92957        16.83658        -1.30208
C         18.22157        18.97081        -0.89549
C         16.92537        18.25224        -0.81860
C         18.26175        20.44171        -0.73889
C         16.99254        21.12833        -0.35975
C         18.18679        23.17677         0.08706
C         17.02107        22.59818        -0.70222
C         18.14153        24.52933         0.69659
C         16.85237        25.28913         0.69245
C         18.15715        27.40242         1.28759
C         16.84591        26.72499         1.10379
C         18.16659        28.91503         1.04686
C         16.86618        29.66172         1.29018
C         18.11242        31.73215         1.89288
C         16.87896        31.00876         1.57786
C         18.10084        33.07211         2.23947
C         16.82465        33.79160         2.48049
C         18.07799        35.98479         2.41261
C         16.85995        35.27366         2.43702
C         17.97909        37.50513         2.50741
C         16.99973        38.15508         1.55865
C         18.40609        40.20336         1.24813
C         17.07013        39.48560         1.28864
C         18.33148        41.71425         1.27343
C         17.01663        42.45826         1.07187
C         18.38576        44.52923         0.49021
C         17.13169        43.76584         0.34052
C         18.27331        46.00059         0.44534
C         17.20621        46.57388        -0.20421
C         18.33610        48.77981        -0.20021
C         17.15394        47.99374        -0.43055
C         18.38686        50.11550        -0.77525
C         17.21354        50.69056        -1.37886
C         18.50913        52.66772        -2.05271
C         17.28273        51.98727        -1.93948
C         18.61073        53.98577        -2.59046
C         20.74029         6.15258        -0.25039
C         20.69723         7.54373        -0.36656
C         19.49519         8.26181        -0.53752
C         20.71376        10.39912        -0.90388
C         19.45471         9.67252        -0.73675
C         20.71191        11.75273        -1.06191
C         19.45502        12.50295        -1.42867
C         20.71426        14.65630        -1.04511
C         19.50635        13.98698        -1.10376
C         20.75794        16.14979        -1.20642
C         19.45796        16.85631        -0.93077
C         20.68929        18.93687        -0.21334
C         19.47734        18.21287        -0.76639
C         20.74992        20.42853        -0.40427
C         19.52903        21.16311        -0.42784
C         20.73830        23.33971        -0.08003
C         19.49140        22.51861        -0.16024
C         20.60969        24.60667         0.75436
C         19.41390        25.25670         0.94494
C         20.61445        27.37109         1.57664
C         19.32957        26.67824         1.28769
C         20.62607        28.85544         1.78558
C         19.36874        29.62867         1.62567
C         20.63203        31.63663         2.31911
C         19.35898        30.96412         1.91798
C         20.67533        33.13332         2.45855
C         19.33781        33.84608         2.53139
C         20.57762        36.04799         2.31960
C         19.30500        35.31258         2.45542
C         20.60525        37.48169         2.74772
C         19.30266        38.25612         2.62182
C         20.62919        40.43788         2.64490
C         19.41263        39.64815         2.22008
C         20.70321        41.81156         2.00669
C         19.48440        42.41979         1.49983
C         20.60317        44.66742         1.85477
C         19.56273        43.86245         1.11051
C         20.61388        46.16561         1.50219
C         19.28237        46.87209         1.15933
C         20.69596        48.94924         0.56402
C         19.44619        48.19386         0.42123
C         20.76413        50.32619        -0.10327
C         19.59040        50.83172        -0.82311
C         20.96433        52.68096        -1.75491
C         19.69849        52.05236        -1.54718
C         21.06498        53.88966        -2.51207
C         19.83101        54.61137        -2.82320
C         20.75337        56.64914        -3.92364
C         19.79602        56.04133        -3.15506
C         21.12787        58.02569        -4.09621
C         23.20206         3.32229         0.00375
C         21.98787         4.02889        -0.03026
C         23.22876         6.13207        -0.22101
C         21.97257         5.43159        -0.14331
C         23.25201         7.54016        -0.34445
C         21.97292         8.33378        -0.15782
C         23.27454        10.32652        -0.88583
C         21.98216         9.57438        -1.04246
C         23.27043        11.79159        -0.91738
C         21.96978        12.50946        -0.95043
C         23.19513        14.64137        -1.09509
C         21.98564        13.97697        -1.12356
C         23.25318        16.04555        -0.64112
C         21.95614        16.79219        -0.54214
C         23.20592        18.92667        -0.30990
C         22.00145        18.25832        -0.47510
C         23.20847        20.36106        -0.09842
C         21.97701        21.09372        -0.13616
C         23.18653        23.13044         0.44485
C         21.98632        22.50237         0.13905
C         23.18431        24.51422         0.96269
C         21.88816        25.24752         1.15415
C         23.07825        27.42725         1.20882
C         21.90309        26.72569         1.25076
C         23.10182        28.88368         1.34739
C         21.91505        29.54931         1.62773
C         23.15659        31.74179         1.75696
C         21.94347        30.95577         2.01935
C         23.09642        33.15562         1.78789
C         21.91223        33.84842         2.09663
C         23.17339        36.03779         2.22599
C         21.88949        35.32145         2.08400
C         23.24346        37.40719         2.70243
C         21.91991        38.21851         2.77711
C         23.16921        40.34529         2.48733
C         21.94883        39.65765         2.54026
C         23.13454        41.83603         2.49051
C         21.88638        42.53171         2.08790
C         23.15073        44.62242         1.59074
C         21.95324        43.95163         1.77418
C         23.15870        46.01729         0.97545
C         21.91852        46.84365         1.25291
C         23.18523        48.89298         0.59587
C         21.97011        48.23682         0.74081
C         23.24105        50.23813         0.04567
C         22.07900        50.86745        -0.44657
C         23.40141        52.71669        -1.31543
C         22.14620        52.06385        -1.20895
C         23.52284        53.89415        -2.11677
C         22.38191        54.38831        -2.78835
C         23.69702        56.31946        -3.65156
C         22.61377        55.49224        -3.69395
C         23.71048        57.59795        -4.47833
C         22.41960        58.45542        -4.39520
C         23.79145        60.46484        -4.83686
C         22.56180        59.84685        -4.70278
C         24.41799         3.98125        -0.09118
C         25.68893         6.09862        -0.30338
C         24.46557         5.40218        -0.21549
C         25.72076         7.50833        -0.43579
C         24.46973         8.21731        -0.49525
C         25.72408        10.37102        -0.63023
C         24.49323         9.66112        -0.67405
C         25.72123        11.88843        -0.66726
C         24.52409        12.43046        -1.47628
C         25.76187        14.72208        -1.21413
C         24.47848        13.96234        -1.40749
C         25.74184        16.14043        -0.76513
C         24.51356        16.81460        -0.61880
C         25.69442        18.92846        -0.22097
C         24.47240        18.21120        -0.37092
C         25.68697        20.34651        -0.00191
C         24.44001        21.04860         0.07698
C         25.67077        23.17703         0.41753
C         24.43709        22.44965         0.34381
C         25.64970        24.62682         0.65195
C         24.44506        25.26884         0.92372
C         25.63488        27.50370         1.07044
C         24.37756        26.70779         1.22306
C         25.52430        28.94188         0.61721
C         24.31782        29.64401         1.19248
C         25.57334        31.78991         1.15519
C         24.33713        31.04523         1.35088
C         25.59559        33.19364         1.25530
C         24.30406        33.90560         1.36310
C         25.64214        36.06634         1.67744
C         24.33433        35.41004         1.59303
C         25.59231        37.56034         1.64093
C         24.57027        38.17319         2.66136
C         25.62497        40.39663         2.17045
C         24.43009        39.67382         2.40201
C         25.67307        41.80097         2.14348
C         24.44481        42.59268         2.32813
C         25.64902        44.61938         1.57414
C         24.43418        43.97608         1.78737
C         25.68597        46.03771         1.03654
C         24.41208        46.79736         1.42161
C         25.63919        48.91233         0.89340
C         24.43991        48.22947         0.91073
C         25.69744        50.31400         0.48892
C         24.48695        50.92307        -0.03500
C         25.72208        53.03703        -0.53278
C         24.52643        52.19435        -0.63308
C         25.87422        54.16394        -1.46551
C         24.80031        54.55078        -2.24590
C         26.11073        56.60181        -2.90743
C         24.99450        55.65484        -3.25410
C         26.07481        57.88236        -3.48486
C         24.95033        58.42745        -4.14120
C         24.97546        59.78051        -4.49625
C         26.93401         8.23701        -0.46255
C         28.19644        10.36347        -0.43909
C         26.97310         9.66764        -0.50253
C         28.23869        11.86503        -0.35914
C         27.06359        12.44316        -1.19065
C         28.35114        14.69377        -0.87185
C         27.08087        13.97620        -1.20628
C         28.21228        16.12044        -0.45580
C         26.95989        16.82891        -0.54858
C         28.15760        18.96722        -0.10197
C         26.93545        18.23189        -0.26616
C         28.15928        20.37034         0.01640
C         26.90599        21.07332         0.07910
C         28.15971        23.24880        -0.02657
C         26.87794        22.49446         0.22710
C         28.14655        24.67249         0.49734
C         26.88825        25.36493         0.65100
C         28.06992        27.53308         0.74844
C         26.89069        26.78195         0.77182
C         28.06801        28.97021         0.67118
C         26.82333        29.69581         0.75044
C         28.00356        31.86684         0.58470
C         26.78934        31.08050         0.86576
C         28.05368        33.28633         0.96584
C         26.82495        33.93662         1.24117
C         28.10899        36.03778         1.60778
C         26.83890        35.36137         1.51341
C         28.12543        37.42419         2.25190
C         26.89370        38.21471         1.90073
C         28.13828        40.33442         2.36860
C         26.90735        39.69275         1.73464
C         28.15248        41.82268         2.05681
C         26.91215        42.51426         1.98485
C         28.14021        44.63335         1.79202
C         26.90570        43.93147         1.78735
C         28.21495        46.08688         1.38473
C         26.91047        46.82855         1.41507
C         28.09738        48.97116         1.26107
C         26.90110        48.22706         1.21874
C         28.09446        50.47425         1.22007
C         26.88321        51.02302         0.52064
C         28.26583        53.02834        -0.25280
C         26.95598        52.43291         0.10155
C         28.29078        54.26963        -0.92020
C         27.14535        54.86111        -1.50750
C         27.19805        56.11989        -2.16474
C         29.54254        12.52016        -0.76120
C         30.87376        14.55517        -1.23853
C         29.63754        13.88166        -0.82829
C         31.14937        15.82661        -0.74742
C         29.31258        16.83799        -0.03193
C         30.65206        18.92125        -0.22304
C         29.40281        18.25971        -0.07531
C         30.68584        20.34526         0.00245
C         29.42082        21.06056         0.18733
C         30.59670        23.13743         0.73320
C         29.38678        22.44780         0.34434
C         30.61181        24.63351         0.76008
C         29.32342        25.35213         0.69109
C         30.53729        27.55211         0.43617
C         29.36156        26.82438         1.04202
C         30.53499        28.94374         0.39024
C         29.29736        29.65979         0.56328
C         30.57483        31.86724         0.55255
C         29.31354        31.11889         0.38752
C         30.54533        33.26111         0.76610
C         29.29734        33.96883         0.98095
C         30.58643        36.08115         1.39288
C         29.30805        35.37054         1.32053
C         30.58231        37.46500         1.59782
C         29.37312        38.20549         1.88297
C         30.44854        40.39890         1.27666
C         29.36044        39.57850         1.89850
C         30.65409        41.73862         2.01530
C         29.35655        42.52739         2.02612
C         30.64731        44.66825         2.13291
C         29.35163        43.94729         1.98597
C         30.70452        46.19400         2.29159
C         29.34694        46.87283         2.03535
C         30.62124        49.02220         1.44740
C         29.33488        48.34481         1.75639
C         30.59000        50.35067         0.95109
C         29.40493        51.05629         0.71665
C         29.43286        52.31529         0.08047
C         31.94596        16.89231        -1.21752
C         32.85049        19.11290        -1.25968
C         31.81892        18.26023        -0.81218
C         32.97878        20.47241        -0.90377
C         31.90794        21.06629        -0.11479
C         33.11290        23.31146         0.26797
C         31.94824        22.41476         0.47668
C         33.08186        24.64453        -0.06747
C         31.85003        25.37672         0.32527
C         32.95823        27.54941        -0.38382
C         31.68220        26.80003        -0.07174
C         32.95106        28.97990        -0.07156
C         31.78165        29.67828         0.20770
C         33.01730        31.82404         0.44852
C         31.80484        31.12741         0.43509
C         33.04240        33.25948         0.62370
C         31.79767        33.99132         0.87375
C         33.14510        35.99680         1.60810
C         31.81808        35.35484         1.18338
C         33.16205        37.55174         1.53014
C         31.83601        38.25361         1.55836
C         32.90055        40.38971         0.82032
C         31.75915        39.66937         1.17571
C         32.86047        41.85246         0.80693
C         31.79287        42.50398         1.36428
C         33.01481        44.70955         1.10374
C         31.88633        43.93970         1.67474
C         32.94571        46.13704         1.09058
C         31.83416        46.85320         1.51007
C         31.78727        48.26315         1.32465
C         34.09195        21.15479        -1.49258
C         35.34666        23.36517        -1.67845
C         34.62519        22.37266        -1.02928
C         35.38727        24.73511        -1.20566
C         34.25650        25.38688        -0.54756
C         35.40041        27.56722        -0.82245
C         34.23622        26.79417        -0.50953
C         35.43646        28.96062        -0.58227
C         34.26893        29.61037         0.07014
C         35.55219        31.81274         0.02131
C         34.29570        31.08023         0.37356
C         35.51607        33.29293         0.13071
C         34.24888        33.94198         0.54813
C         35.54977        36.12043         0.38703
C         34.36159        35.35417         0.93594
C         35.49995        37.61657         0.33630
C         34.31142        38.32146         0.91928
C         35.21160        40.45383        -0.07332
C         34.11293        39.72783         0.52118
C         35.15837        41.89746        -0.06779
C         34.05325        42.58669         0.39440
C         34.04516        44.02160         0.48939
C         36.46263        25.51822        -1.64301
C         37.65668        27.68046        -1.79471
C         36.54214        26.91266        -1.40076
C         37.66805        29.07774        -1.62933
C         36.55927        29.72423        -0.97722
C         37.57274        31.91153        -1.42907
C         36.57431        31.15300        -0.83583
C         37.39757        33.39999        -1.63859
C         36.49725        34.09083        -0.64210
C         37.55235        36.24403        -1.18579
C         36.49967        35.44686        -0.54351
C         37.46526        37.60655        -1.22938
C         36.17802        38.28870        -0.85094
C         36.26822        39.77227        -0.65712
C         38.75144        29.87619        -2.09920
C         39.80154        32.07620        -2.52166
C         38.69773        31.26443        -2.04287
C         39.81464        33.43196        -2.39456
C         38.68721        34.15911        -1.85681
C         38.70342        35.51827        -1.70071
O         14.89331        40.04584         2.21717
O         22.60800        37.71789         3.99239
O         19.54790        44.03028        -0.34015
O         31.52929        25.20333         1.75756
O         17.97238        23.31352         1.53060
O         31.34384        22.50324         1.80579
O         15.68436        24.45797        -1.45998
O         27.89869        14.52127        -2.29500
O         21.34410        46.83382         2.61126
O         31.56642        44.08837         3.11596
O         34.33420        22.65572         0.32499
O         22.53109        24.58819         2.30670
O         22.70011        12.25729         0.34663
O         23.80357        42.43993         3.64259
O         20.09361        33.48578         3.76541
O         22.49057        16.15522         0.64782
O         16.08130        33.05769         3.57282
O         21.08420        35.90975         0.92841
O         35.58197        35.58887         1.73950
O         24.04821        34.82248         0.23822
O         25.13937        14.58850        -2.55496
O         16.92103        16.89055        -2.87567
O         34.50737        30.09945         1.44510
O         32.02071        27.12320        -1.45493
O         25.16695        27.17505         2.40150
O         26.09154        53.34676         0.86623
O         18.24995        19.88039        -2.10406
O         16.48434        20.76472         0.94440
O         21.60522        55.77166        -4.62351
O         16.50069        25.69727         2.06783
O         16.09989        36.18550         0.38169
O         14.07143        34.79839         3.26585
O         20.56571        50.18987         1.34901
O          9.57735        35.56197         1.40370
O         15.95303        27.72604        -0.79875
O         30.42241        16.13676         0.42342
O         35.62706        38.22491         1.63025
O         20.61858        27.93256         2.94250
O          8.25522        29.20971         0.56603
O         29.03934        47.77764         3.12277
O         32.69903        38.12209         2.78155
O         36.15819        32.47635         1.19040
O         19.88241        37.86443         3.95166
O         21.37885        31.04047         3.41399
O         28.52409        31.59326        -0.76896
O         25.47683        12.38311         0.66368
H         26.26053        12.16727         1.22600
O         28.12987        37.19096         3.69400
H         29.01729        36.85445         3.93997
O         16.00815        32.55797         0.05133
H         15.67686        31.99331        -0.68995
O         18.67478        47.23250         2.43570
H         19.38878        47.63109         2.98285
O         35.23268        38.04308        -1.96545
H         35.56218        38.53686        -2.74625
O         28.03432        12.24858         1.05351
H         28.77692        11.86864         1.56925
O         25.76608        45.92535        -0.42914
H         26.68549        45.62745        -0.63697
O         31.05686        46.42732         3.67217
H         30.52568        47.20142         3.97967
O         18.31187        28.96583        -0.41648
H         17.45205        28.56689        -0.78187
O         23.85876        57.19897        -5.87690
H         23.06561        56.65775        -6.09098
O         11.59002        39.95184         1.76481
H         11.64108        40.93018         1.81548
O         16.89705        13.88590        -2.90398
H         16.76408        14.81140        -3.22243
O         24.39857        46.84273         2.86357
H         23.54847        47.23579         3.15698
O         27.96981        50.92744         2.61549
H         27.63221        51.84884         2.59946
O         21.96361         8.79951         1.21691
H         21.94102         8.01689         1.80559
O         16.19583        18.05004        -3.31167
H         16.87423        18.77583        -3.26325
O         33.24754        35.64541         3.00349
H         34.16848        35.84401         3.28543
O         16.59971        42.81768         2.44884
H         16.22503        42.01159         2.86910
O         14.00696        31.22964        -0.41868
H         13.38141        31.98674        -0.54927
O         13.09811        28.58273         2.92459
H         12.26971        28.10770         3.14491
O         20.91819        23.88755        -1.45680
H         20.79502        23.14576        -2.08860
O         29.52877        26.91018         2.50321
H         30.32683        26.37029         2.72196
O         14.69420        37.95640        -0.77809
H         15.10854        37.08278        -0.97583
O         13.26246        31.30871         3.13333
H         12.61570        31.81031         3.67044
O         21.97719         9.08732        -2.41909
H         21.95507         9.86127        -3.02146
O         19.39262        12.46144        -2.89620
H         18.52265        12.86358        -3.15135
O         31.02262        41.43219         3.37894
H         31.31119        42.28599         3.78623
O          9.10556        30.61440        -2.95923
H          9.35167        31.51650        -3.27037
O         16.65562        45.49890        -2.24929
H         15.99976        44.94164        -2.71859
O         23.12810        45.85250        -0.46034
H         24.04451        45.65041        -0.77167
O         20.48596        18.78721         1.25390
H         21.29948        19.09997         1.70585
O          7.43502        31.76729         0.16215
H          7.28480        30.89766         0.60097
O         27.04781        39.94882         0.28724
H         26.35231        39.40249        -0.15561
O          8.32759        24.49573        -0.02299
H          8.59128        24.25373        -0.93443
O         28.23847        23.39851        -1.49644
H         27.41060        23.83261        -1.79441
O         27.23793        12.00154        -2.55224
H         27.78222        12.69567        -2.99684
O         20.99786        16.37398        -2.63926
H         20.25561        15.97035        -3.13780
O         20.19923        44.58113         3.23913
H         20.76829        45.19820         3.74996
O         25.43891        54.99544        -4.50062
H         25.34734        55.66431        -5.21813
O         10.47111        37.31461        -1.80191
H         11.31654        37.80324        -1.91337
O          9.68823        33.05031        -2.44848
H          9.69084        33.97360        -2.78181
O         29.98829        40.70286        -0.07943
H         29.01756        40.52727        -0.12401
O         25.10116        37.95009         0.30765
H         24.75204        37.14551        -0.13741
O         11.85736        33.23835        -0.90392
H         11.30328        32.96661        -1.68126
O         18.92377        39.87687        -0.10899
H         19.56254        40.57608        -0.36788
O         36.67372        33.48080        -2.92511
H         36.69418        34.41792        -3.21540
O         17.30624        37.72954         3.78697
H         17.96717        37.55433         4.49545
O         28.59278        46.01558        -0.06071
H         28.61001        46.93722        -0.40175
O         17.37467        22.66819        -2.09939
H         17.02471        23.52185        -2.44641
O         24.57257        11.99393        -2.83889
H         25.48644        12.16927        -3.17507
O         20.47849        40.66725         4.08532
H         20.38775        39.78001         4.50747
O         25.18358        38.01554         3.94711
H         24.48795        38.15613         4.62826
O         25.27158        28.83863        -0.83160
H         25.39050        29.73076        -1.22279
O         28.04128        40.20432         3.80005
H         28.89907        40.48714         4.18514
O         13.00571        23.62568        -1.97685
H         13.81000        24.14480        -2.21774
H          6.19804        30.93107        -3.20348
H          5.80855        33.29966        -2.87912
H          7.67452        26.35347        -0.89716
H          7.59675        28.71101        -2.70308
H          6.36576        35.47311        -1.75847
H          7.76933        37.69020        -1.37055
H          9.79478        22.58244         0.14553
H          9.23821        25.12386         1.70816
H          9.02378        39.76290        -1.36616
H         10.28540        41.92853        -1.45880
H         12.31506        18.39899        -0.34949
H         11.06642        20.49818        -0.02960
H         11.54415        44.04196        -1.50362
H         12.71885        46.16095        -1.44965
H         14.83513        14.11176        -0.75644
H         13.54692        16.24411        -0.53973
H         13.87336        48.30466        -1.46713
H         15.11116        50.38487        -1.85809
H         17.32143         9.87595        -0.43515
H         16.08202        12.03224        -0.67764
H         16.36776        52.44825        -2.34024
H         17.68133        54.52607        -2.82445
H         19.80229         5.57752        -0.30155
H         18.54236         7.70919        -0.51372
H         18.99341        56.64107        -2.69990
H         20.35274        58.79968        -3.96934
H         23.18277         2.22721         0.09621
H         21.03608         3.48136         0.02491
H         23.83974        61.53140        -5.09698
H         21.64493        60.44286        -4.82725
H         25.35911         3.41318        -0.07539
H         26.63442         5.53788        -0.25733
H         26.93889        58.54912        -3.32658
H         25.91379        60.34594        -4.39334
H         27.88507         7.68574        -0.40509
H         29.13238         9.79245        -0.34074
H         29.26436        54.76095        -1.07082
H         28.09906        56.74325        -2.05499
H         30.44597        11.90040        -0.86977
H         31.52289        14.07297        -1.98433
H         31.54392        50.80492         0.63869
H         30.40923        52.73188        -0.21342
H         32.71872        16.67390        -1.97082
H         33.66490        18.66583        -1.84993
H         33.78129        46.68469         0.62623
H         32.68924        48.76059         0.93353
H         34.54498        20.68593        -2.37964
H         35.85195        23.14093        -2.62999
H         36.04574        42.45305        -0.40560
H         34.89578        44.58109         0.07148
H         37.28654        25.03061        -2.18478
H         38.51713        27.18304        -2.26611
H         38.27811        38.20009        -1.67515
H         37.08583        40.33117        -1.13616
H         39.62326        29.38078        -2.55207
H         40.67287        31.55746        -2.94822
H         40.70061        34.00684        -2.70379
H         39.60127        36.09459        -1.97188
