         280
 CSIRO Nanostructure Databank - Neutral Graphene Oxide Data Set
C         30.42253        31.60146         1.78159
C         30.43769        32.80313         1.51157
C         30.33142        36.01641         0.96404
C         30.33835        37.21081         0.66646
C         30.37706        40.46152        -0.45645
C         30.28213        41.68817        -0.34912
C         32.92366        28.83016         1.88242
C         31.83173        29.38779         1.97538
C         32.85946        31.50774         1.62492
C         31.58781        30.83084         2.32991
C         32.79960        32.92403         1.11533
C         31.55005        33.74922         1.38730
C         32.83529        36.03162         0.83959
C         31.54012        35.22575         1.22858
C         32.66926        37.38385         0.08133
C         31.33508        38.10729         0.08336
C         32.63128        40.33848         0.53401
C         31.22992        39.57452         0.40467
C         32.63576        41.85231         0.37398
C         31.32774        42.62466         0.06836
C         32.66441        44.58200        -0.28094
C         31.59006        43.97050        -0.43724
C         35.17598        27.42242         0.60846
C         35.41893        28.60969         1.42975
C         34.30798        29.33429         2.16623
C         35.46141        31.61361         1.35814
C         34.22949        30.87901         1.84522
C         35.40696        33.13155         0.91516
C         34.00645        33.67784         0.58511
C         35.13178        35.94582        -0.34300
C         33.91816        35.13609         0.20546
C         35.22364        37.35621         0.23766
C         33.97565        38.22184        -0.06011
C         35.26568        40.37438         0.61108
C         33.94426        39.60406         0.61244
C         35.24191        41.83644         0.33517
C         33.96632        42.48848         0.00236
C         35.27010        44.70067        -0.04823
C         33.99617        43.97262        -0.39107
C         35.43289        46.10430        -0.54586
C         37.17774        27.25914        -0.78260
C         35.92714        26.78183        -0.13006
C         37.60777        28.59575        -0.14215
C         36.68917        29.28010         0.94612
C         37.77027        31.41519         0.17893
C         36.82110        30.83302         1.22057
C         37.72157        32.84011        -0.26359
C         36.45184        33.63441        -0.08405
C         37.76900        35.82876        -0.40033
C         36.43449        35.10786        -0.39196
C         37.81963        37.30843        -0.11266
C         36.54941        38.06024         0.30780
C         37.87553        40.29406         0.14142
C         36.56947        39.58647         0.45656
C         37.82313        41.81732         0.10673
C         36.48285        42.37955        -0.37038
C         37.75151        44.68405        -0.95537
C         36.48933        43.92421        -0.61636
C         37.79251        46.20666        -1.20492
C         36.46794        46.70701        -0.82489
C         40.05386        24.88178        -1.29791
C         38.90444        25.36866        -1.25667
C         40.35534        27.56875        -1.71319
C         37.82019        26.17816        -1.60973
C         40.34010        28.43940        -0.46100
C         39.03081        29.16929        -0.08194
C         40.29545        31.41290        -0.29123
C         39.07017        30.66274         0.11180
C         40.28533        32.86528        -0.62746
C         38.95245        33.57684        -0.75972
C         40.35201        35.77337        -1.09719
C         38.95955        35.07130        -0.96446
C         40.26390        37.31600        -1.01545
C         38.99451        38.06559        -0.69845
C         40.26504        40.30925        -0.93332
C         39.06276        39.54839        -0.41573
C         40.19122        41.85376        -0.96433
C         39.07562        42.56750        -0.21265
C         40.34461        44.80076        -0.80243
C         39.05741        44.05048        -0.57717
C         40.44799        46.25820        -1.29222
C         39.06541        46.96007        -1.39180
C         40.22207        49.04457        -0.79818
C         39.22959        48.40170        -1.15439
C         42.69799        24.66570        -1.47377
C         41.41373        25.31384        -1.49372
C         42.87526        27.38221        -1.68063
C         41.56250        26.68094        -1.68075
C         42.84313        28.82788        -1.22783
C         41.55807        29.37097        -0.66771
C         42.80220        31.45803         0.25488
C         41.55786        30.68552         0.05838
C         42.71741        32.95858         0.37427
C         41.44063        33.66785        -0.07222
C         42.69826        35.92295         0.10667
C         41.41158        35.16022        -0.16730
C         42.73630        37.37708        -0.22143
C         41.64501        38.01685        -1.07683
C         42.69672        40.28965        -0.19573
C         41.57305        39.56069        -0.91215
C         42.67857        41.79678        -0.12638
C         41.58257        42.53923        -0.84907
C         42.92971        44.77581        -0.58420
C         41.64289        44.03431        -0.90693
C         42.81299        46.24569        -0.23009
C         41.49024        46.93529        -0.35650
C         42.76285        49.05102        -0.13697
C         41.34219        48.73612         0.08511
C         43.83624        25.17114        -1.44363
C         45.51512        27.27291        -1.37761
C         44.18670        26.58133        -1.66731
C         45.34226        28.61858        -0.57833
C         44.15523        29.52625        -0.85331
C         45.31321        31.46639         0.57722
C         44.12404        30.86759        -0.15026
C         45.37238        33.02403         0.76481
C         44.00720        33.71472         0.52247
C         45.33573        35.86162        -0.09671
C         44.01299        35.15027         0.06222
C         45.34123        37.37442        -0.06529
C         44.05926        38.11251        -0.26238
C         45.15623        40.25262         0.73146
C         43.93652        39.52751         0.23448
C         45.12812        41.76664         0.83570
C         43.91941        42.54395         0.35221
C         45.20347        44.77085         0.67735
C         44.09934        44.00575        -0.03314
C         45.33248        46.27197         0.36552
C         44.12640        47.02183        -0.09385
C         43.82904        48.45477         0.05884
C         47.51725        27.01842        -0.00470
C         46.53628        26.50865        -0.55279
C         47.87317        28.44940         0.00877
C         46.54748        29.21406         0.10543
C         47.89478        31.43145         0.58104
C         46.58290        30.66989         0.55427
C         47.87531        32.92794         0.43241
C         46.56040        33.60846        -0.09390
C         47.82292        35.84166         0.04508
C         46.64427        35.14487         0.05460
C         47.83946        37.29354         0.45918
C         46.53166        38.03657         0.57835
C         47.79309        40.31319         0.82529
C         46.50105        39.54608         0.80346
C         47.75932        41.81343         0.64883
C         46.44097        42.51985         0.77124
C         47.69880        44.64762         1.61384
C         46.39426        43.98263         1.16251
C         47.45351        46.09600         1.59243
C         46.55648        46.72975         1.03603
C         50.46952        28.65133         0.66385
C         49.16887        29.15985         0.20263
C         50.47298        31.46879         0.43725
C         49.18251        30.70147         0.27648
C         50.39260        32.96714         0.67677
C         49.16088        33.63732         0.08885
C         50.44940        35.89430        -0.03581
C         49.13276        35.13119        -0.12220
C         50.39439        37.42249        -0.07506
C         49.09500        38.11843         0.23728
C         50.39623        40.38437         0.54762
C         49.12219        39.58138         0.67763
C         50.35890        41.90147         0.51384
C         49.06083        42.59119         0.78187
C         50.35691        44.51108         1.56040
C         49.00151        43.93849         1.50167
C         51.49195        29.34230         0.86952
C         52.77801        31.62947         1.09060
C         51.75739        30.72206         0.80406
C         52.82899        32.88019         0.89476
C         51.65918        33.76845         0.93347
C         52.68329        36.17133         0.94698
C         51.70271        35.18195         0.46493
C         52.77567        37.32262         0.49807
C         51.71776        38.21428         0.03724
C         52.79607        40.50406         0.80252
C         51.71205        39.68583         0.23194
C         52.77623        41.68259         1.17324
C         51.97886        42.81498         0.69878
C         51.43758        43.90994         1.51402
O         44.97965        37.95419        -1.36923
O         44.36791        30.75295        -1.58649
O         40.45131        31.87883        -1.67451
O         47.95780        32.32437         1.73874
O         41.85249        46.33619         0.89533
O         42.10581        41.00279         0.93988
O         40.98289        40.00564        -2.17532
O         44.16499        42.28883         1.76174
O         44.61308        35.31862        -1.24942
O         39.34085        37.75591        -2.07752
O         49.70547        42.59412        -0.55524
O         45.32649        44.40408         2.06653
O         47.14611        39.90750         2.06268
O         49.94583        39.85822         1.84516
O         35.05718        31.59678         2.77679
O         32.56975        31.77189         0.23543
O         37.29383        31.70313        -1.14356
O         49.55672        37.94157        -1.13922
O         42.46463        36.93715         1.13276
O         45.54132        28.45929         0.84817
O         38.65071        42.38088         1.15562
O         34.02799        42.99436        -1.44627
O         38.93794        39.80939         1.01350
O         31.69302        34.63341         2.54159
O         43.14801        33.46723         1.66979
O         36.89482        44.12723        -1.99202
O         41.87526        43.21633        -2.09533
O         36.98613        28.52780        -1.45494
O         47.12974        37.39130         1.73360
O         36.09431        39.99711         1.76532
O         38.71510        34.18672        -2.06976
O         46.40535        33.22006        -1.39812
O         33.18783        39.85469         1.80673
O         31.86457        37.52051        -1.12197
O         51.94572        39.12102        -1.06396
O         33.61474        34.10047        -0.76249
O         35.90793        37.46541         1.48373
O         49.19366        34.17632        -1.23808
O         38.30357        46.50875        -2.52991
O         49.91987        31.19224        -0.88639
O         43.64219        27.10498        -2.89660
O         38.17641        36.33656         0.91214
O         41.92567        29.59236        -2.05999
O         36.14426        34.10638        -1.41930
O         39.28280        29.76550         1.22823
O         39.50066        27.59727        -2.57534
O         31.79248        42.46662         1.42026
O         39.72025        44.78088         0.50888
O         51.44569        35.33823        -0.94641
O         45.14798        46.60968        -1.02098
O         40.88192        34.50490         1.00479
O         36.65250        28.51298         2.18184
O         45.77351        30.79413         1.76896
O         48.26123        43.94597         2.74203
O         48.70121        28.79194        -1.12179
O         44.21519        39.62953         1.65375
O         44.01750        44.34011        -1.43887
O         47.04855        42.28162        -0.54407
O         50.73086        33.44990         2.00467
O         42.13479        30.75427         1.37341
O         36.40301        41.74206        -1.67984
H         35.65915        42.16712        -2.17189
O         35.42825        44.68082         1.36826
H         34.69751        45.18016         1.78894
O         46.11732        27.62958        -2.59781
H         46.00015        26.91854        -3.26052
O         40.63675        27.55780         0.63867
H         40.54296        28.07550         1.47132
O         40.97552        48.79373         1.40188
H         41.62368        48.30562         1.95270
O         52.36010        43.20434        -0.55367
H         51.72889        43.86130        -0.91279
O         34.80969        36.17228        -1.73563
H         34.71035        35.28153        -2.15143
O         40.85050        35.47439        -2.40280
H         40.23431        35.84601        -3.06943
O         35.80033        33.87831         2.09252
H         35.52033        33.38657         2.89976
O         37.49260        31.00940         2.46163
H         36.93076        30.63456         3.17557
O         45.69124        33.32963         2.11526
H         44.97510        32.98759         2.69364
O         31.68439        30.99266         3.70691
H         30.90296        30.60708         4.15238
O         37.12396        25.86337        -2.70012
H         36.43302        26.53340        -2.88467
O         41.03337        46.29279        -2.59202
H         40.31947        46.20962        -3.26211
O         33.42598        36.46849         2.07708
H         33.05967        35.93652         2.82043
O         34.09145        38.63715        -1.43684
H         34.06959        37.82947        -2.00718
O         34.55154        29.24466         3.55676
H         34.80034        28.32572         3.78598
O         30.66187        39.59665         1.69965
H         30.71185        40.50908         2.05974
O         42.15164        37.80153        -2.40331
H         41.55642        38.27164        -3.02919
O         39.70712        42.13668        -2.30139
H         40.33744        41.74432        -2.94711
