         314
 CSIRO Nanostructure Databank - Neutral Graphene Oxide Data Set
C         31.04556        31.14561         3.35873
C         30.89576        32.09689         2.57271
C         30.80619        35.43072        -0.54700
C         30.82286        36.66760        -0.78528
C         30.74526        39.69950        -1.66858
C         30.67660        40.89707        -1.96003
C         33.69749        28.62075         3.38025
C         32.50200        28.97683         3.62416
C         33.38400        31.17200         3.52315
C         32.21545        30.35420         3.65930
C         32.97567        33.21965         2.58971
C         31.76153        33.07453         1.96988
C         32.86377        35.68606         0.62692
C         31.75696        34.83874         0.31688
C         32.82236        37.07522         0.26168
C         31.72988        37.66241        -0.41866
C         32.73307        39.97005        -0.45199
C         31.46050        39.13739        -0.43683
C         32.68346        41.43181        -0.68878
C         31.24744        42.04617        -1.22086
C         32.67970        43.98613        -1.78239
C         31.66143        43.31178        -1.88213
C         35.92657        27.35840         1.72010
C         36.10081        28.70683         2.39935
C         34.83908        29.30396         2.96260
C         35.76512        31.66552         2.58235
C         34.62323        30.71441         3.02069
C         35.48083        33.14110         2.07240
C         34.18473        33.92359         2.12014
C         35.32564        35.97842         1.15341
C         34.00062        35.35208         1.59431
C         35.26634        37.34763         0.83075
C         33.92206        38.04256         0.70757
C         35.29895        40.10594        -0.22373
C         33.98872        39.28147        -0.20765
C         35.28662        41.54631        -0.63466
C         33.96900        42.23658        -0.77033
C         35.22025        44.09615        -2.03907
C         34.02349        43.76715        -1.15945
C         35.49996        45.56687        -2.13324
C         37.41747        27.56180        -0.19954
C         36.38418        26.95176         0.64727
C         37.54303        29.02114         0.24374
C         36.42061        29.61147         1.10175
C         37.87723        31.68052         1.26232
C         36.67306        31.01107         1.55413
C         37.87808        33.06844         1.23504
C         36.51678        33.74077         1.10118
C         37.79751        35.93072         0.70200
C         36.53706        35.25615         1.19682
C         37.78667        37.44315         0.95641
C         36.47056        38.21463         1.09187
C         37.71026        40.29225         0.29773
C         36.49628        39.56005         0.39283
C         37.62490        41.79737         0.14566
C         36.47024        42.22802        -0.75629
C         37.74521        44.44539        -1.06623
C         36.54783        43.57696        -1.37946
C         37.59324        45.99103        -0.91134
C         36.43109        46.29460        -1.80684
C         39.63595        24.98001        -1.86657
C         38.70866        25.57116        -1.21649
C         39.74404        27.69151        -1.25685
C         38.57778        26.86595        -0.76914
C         40.03151        28.88744        -0.37644
C         38.94434        29.51001         0.44279
C         40.54616        31.52102         0.96056
C         39.16457        30.78589         1.31673
C         40.44911        33.06023         1.06158
C         39.14837        33.81104         1.26211
C         40.30550        35.96694         0.48040
C         39.12503        35.34857         1.26362
C         40.15988        37.39503        -0.07498
C         39.01751        38.18391         0.55190
C         40.16373        40.34179        -0.19765
C         38.93038        39.63098         0.27897
C         40.17884        41.78126         0.36408
C         38.94184        42.50351        -0.10840
C         40.27652        44.54914        -0.75587
C         38.97287        43.80189        -0.47893
C         40.09683        46.03428        -0.28839
C         38.92052        46.72131        -1.17515
C         39.97844        48.81555        -0.33684
C         38.98358        48.16617        -0.70087
C         42.05674        24.95217        -2.71947
C         40.86415        25.51979        -2.24741
C         42.24594        27.83745        -2.21123
C         40.89265        27.04574        -2.03159
C         42.45986        28.84197        -1.04089
C         41.25510        29.68718        -0.64550
C         42.52736        31.77779        -0.69563
C         41.35134        30.97098        -0.20748
C         42.75864        33.12913        -0.07184
C         41.72848        33.87152         0.77612
C         42.62721        35.95600        -0.38993
C         41.45782        35.28475         0.26334
C         42.68871        37.45556        -0.35113
C         41.44861        38.19603        -0.00123
C         42.71712        40.32931        -0.18643
C         41.43718        39.55261         0.05642
C         42.70773        41.73870         0.45331
C         41.46774        42.51488         0.07860
C         42.71244        44.64367         0.01618
C         41.51789        43.89828        -0.14803
C         42.64710        46.13794         0.28949
C         41.42313        46.79782        -0.39468
C         42.56383        48.88049         0.24924
C         41.17406        48.46761         0.43856
C         43.13256        25.67063        -2.57984
C         44.84101        27.38951        -1.65472
C         43.52516        26.90316        -2.21238
C         44.91142        28.95691        -1.89432
C         43.73901        29.63816        -1.19044
C         45.06310        31.65153        -0.80896
C         43.79418        30.95466        -0.83001
C         45.14822        33.01978        -0.69931
C         43.94390        33.76336        -0.37771
C         45.22239        35.99443        -0.63541
C         43.92346        35.23637        -0.57588
C         45.27692        37.39551        -0.15800
C         44.01045        38.15213        -0.31092
C         45.27524        40.31323        -0.17708
C         43.99274        39.53784         0.27841
C         45.25363        41.70810         0.51644
C         43.99235        42.51111         0.03744
C         45.27654        44.66013         0.21212
C         43.94133        43.94999         0.59657
C         45.20111        46.21843         0.57876
C         44.00687        46.91532        -0.04496
C         43.67753        48.33838         0.35704
C         47.25121        27.46631        -2.10469
C         46.14178        26.94545        -2.30386
C         47.59396        28.85377        -1.76574
C         46.27859        29.59913        -1.58089
C         47.55938        31.44945        -0.40493
C         46.22647        30.72817        -0.57785
C         47.75517        32.92561        -0.79866
C         46.43624        33.71530        -1.10901
C         47.71931        35.87595        -0.17789
C         46.51748        35.23104        -0.78171
C         47.69820        37.20279         0.20491
C         46.47808        38.00741         0.10690
C         47.71324        40.19197         0.84181
C         46.64382        39.52473        -0.03237
C         47.76041        41.68964         0.86917
C         46.58588        42.45919         0.24375
C         47.84149        44.67717         0.65029
C         46.50763        43.91013         0.82192
C         47.66046        46.01953         0.80503
C         46.46913        46.58607         0.80978
C         49.95113        28.64796        -0.42695
C         48.95040        29.39473        -1.29307
C         50.13437        31.50118        -0.23006
C         48.86213        30.72996        -0.52823
C         50.01652        32.74029         0.32915
C         48.70018        33.56342         0.23571
C         50.00828        35.66771         0.85216
C         49.00785        35.05253        -0.13489
C         50.20155        37.15342         0.56753
C         48.94183        37.86903         0.73310
C         50.27852        40.08575         0.95692
C         48.98106        39.38596         0.99151
C         50.29464        41.55714         0.50543
C         49.09623        42.43368         1.02884
C         50.43814        44.43534         0.73318
C         49.07319        43.87656         0.31900
C         50.96249        29.20761         0.01252
C         52.30976        31.27068         0.86676
C         51.46885        30.61871        -0.18818
C         52.22109        32.45505         1.19754
C         51.06801        33.38999         1.30120
C         52.14478        35.70487         1.86887
C         51.34454        34.85119         0.92397
C         52.12745        36.94145         1.97654
C         51.53357        37.83315         0.87164
C         52.60361        40.14970         1.02684
C         51.45235        39.32501         1.07029
C         52.69932        41.41844         0.99771
C         51.67095        42.31865         0.81374
C         51.45616        43.70378         0.76454
O         39.97242        33.34846         2.40258
O         43.33382        37.98090        -1.59405
O         35.20759        34.01037         3.19520
O         38.74659        37.89017         1.95806
O         48.82735        38.45096         2.10444
O         42.99848        35.47263        -1.72547
O         34.88927        39.19425        -1.35849
O         46.37011        33.62921        -2.62210
O         37.60195        43.83604        -2.39647
O         33.19168        42.15613         0.49709
O         48.17739        30.85096         0.77735
O         47.08718        29.81280        -2.76518
O         39.20776        30.36351         2.62503
O         39.81309        28.45656         1.00342
O         39.83119        27.79367        -2.71285
O         45.94332        35.95996        -1.92079
O         47.41026        40.92121         2.05910
O         33.20070        32.54519         3.81486
O         31.49424        33.54587         0.69814
O         37.05789        28.68631        -1.08930
O         44.23007        46.91113        -1.46657
H         45.08222        47.36366        -1.64391
O         33.63103        36.05709         2.82663
H         34.29074        35.79924         3.51050
O         44.67483        29.14184        -3.29435
H         45.54662        29.28603        -3.73112
O         52.40066        37.67808        -0.25001
H         52.54580        36.70513        -0.38817
O         33.56811        38.59916         1.99109
H         33.50634        37.83602         2.62185
O         39.16415        46.63872        -2.54902
H         40.06333        47.00080        -2.72823
O         50.17466        41.46946        -0.91827
H         50.91684        40.93354        -1.26959
O         39.22596        35.71163         2.64242
H         39.83308        35.06392         3.07257
O         45.85882        30.07673         0.67053
H         46.64498        30.10827         1.26839
O         36.35516        38.60990         2.50107
H         37.27712        38.61556         2.86043
O         47.98683        33.52842         1.47002
H         48.53573        33.98498         2.15776
O         42.59646        27.97281         0.11748
H         42.70330        28.53032         0.91879
O         49.11205        43.72125        -1.08153
H         48.74608        44.52218        -1.50909
O         35.07403        43.45143        -3.27867
H         35.89903        43.58988        -3.79220
O         42.51331        46.21847         1.73436
H         42.10973        47.08978         1.98998
O         40.88915        48.33085         1.79602
H         40.07238        47.78348         1.88204
O         36.58214        31.87162         3.74859
H         36.15407        32.57506         4.28660
O         52.02326        34.90233        -0.33282
H         51.33390        34.93983        -1.04866
O         42.39208        34.04360         2.05796
H         42.31578        33.18086         2.52955
O         30.62774        39.44535         0.66846
H         30.40545        40.40640         0.63481
O         40.51814        44.49398        -2.17021
H         39.65983        44.43817        -2.64659
O         49.39405        35.62409         2.15892
H         50.03274        36.00468         2.80345
O         35.19514        29.62637         0.34949
H         35.38935        29.22631        -0.53348
O         34.17164        44.50461         0.03464
H         33.55684        44.12816         0.70315
O         43.81540        43.94176         2.03598
H         43.35774        44.78588         2.29210
O         39.71517        46.02401         1.09584
H         38.74157        45.83787         1.16155
O         47.31985        39.61198        -1.32878
H         47.36919        40.57492        -1.56458
O         45.12812        40.50353        -1.59256
H         45.46368        39.69761        -2.04546
O         37.84034        35.67888        -0.73738
H         37.17568        36.25130        -1.17701
O         48.51914        32.86120        -2.02926
H         47.93247        32.54584        -2.75513
O         49.29833        42.67015         2.41790
H         48.74377        42.02783         2.91994
O         41.64641        47.06225        -1.74330
H         42.60001        47.26351        -1.91132
O         40.04212        41.61992         1.79866
H         39.92188        42.50376         2.20359
O         42.17752        28.51063        -3.44728
H         41.23684        28.54839        -3.73554
O         40.03394        40.45891        -1.63844
H         39.99070        39.54915        -2.00998
O         46.35978        43.78805         2.24931
H         46.37162        44.68800         2.63953
O         37.17660        46.21158         0.44388
H         36.92992        47.15720         0.53476
O         37.15365        28.69031         3.30664
H         37.93982        29.27052         3.03767
O         44.99166        33.75655        -3.05299
H         44.86123        34.74399        -3.04105
O         42.68519        40.51451        -1.61828
H         42.83274        39.62594        -2.03240
O         42.63902        41.55684         1.88094
H         42.90960        42.41335         2.29918
O         44.93772        27.10419        -0.27712
H         44.53275        26.23443        -0.08356
O         39.83943        37.31220        -1.49495
H         40.53345        36.77475        -1.93555
O         50.51884        33.34603         2.61119
H         50.42712        32.40797         2.88005
O         49.62407        35.14115        -1.43780
H         49.21349        34.45760        -2.03075
O         46.82990        42.46029        -1.16501
H         45.98519        42.72424        -1.61300
O         44.00741        42.72353        -1.38182
H         43.61015        41.92927        -1.82853
O         41.44614        31.20375         2.05138
H         40.83615        30.76422         2.72700
O         52.08131        30.70368        -1.44041
H         52.93876        30.23316        -1.41866
O         36.03079        33.41822        -0.24123
H         36.59687        33.91354        -0.87720
O         45.10597        41.50273         1.91811
H         45.37843        42.32524         2.39393
O         49.65418        29.70662        -2.49118
H         49.62958        28.93175        -3.08953
O         42.17480        32.12169        -2.08672
H         42.95504        32.55878        -2.49844
O         37.21394        42.30748         1.45792
H         36.50651        41.72450         1.81038
O         45.47471        44.67359        -1.19241
H         44.60976        44.80706        -1.64106
O         30.44093        42.28281        -0.09247
H         30.84847        42.99220         0.44682
O         43.94486        39.26318         1.67703
H         43.79000        40.11426         2.16148
