         732
 CSIRO Nanostructure Databank - Neutral Graphene Oxide Data Set
C         23.23725        24.61643         2.63148
C         22.12217        25.35582         3.01275
C         23.14971        27.39331         2.15677
C         22.07086        26.72651         2.76860
C         23.07940        28.82671         1.87214
C         21.89472        29.55833         2.11337
C         22.87925        31.59775         1.23320
C         21.79300        30.90658         1.79462
C         22.73851        32.98458         0.73620
C         21.56854        33.84320         1.01166
C         22.77364        35.92533         0.40812
C         21.57033        35.17336         0.73177
C         22.76681        37.31967         0.19458
C         21.60032        38.17231         0.08029
C         22.90551        40.01309        -1.02251
C         21.64788        39.45240        -0.39372
C         23.01573        41.51535        -1.30008
C         21.86593        42.24567        -1.62259
C         23.17783        44.26914        -2.02676
C         21.94801        43.59366        -1.96814
C         23.21492        45.71902        -2.27788
C         22.02572        46.47903        -2.28674
C         23.28469        48.50598        -2.66496
C         22.06510        47.85524        -2.48298
C         25.58712        23.09995         1.78799
C         25.48369        24.46095         1.56622
C         24.33939        25.24190         2.01413
C         25.47335        27.33197         1.25940
C         24.30797        26.64982         1.79873
C         25.44173        28.77729         1.11175
C         24.20831        29.50428         1.34783
C         25.30789        31.63519         0.72559
C         24.12012        30.91058         1.07088
C         25.32227        33.02586         0.58189
C         24.04306        33.74207         0.42517
C         25.26810        35.86359         0.42617
C         24.02287        35.20647         0.45418
C         25.30319        37.25838         0.18584
C         24.05622        38.03141         0.16223
C         25.39179        39.97440        -0.82290
C         24.11365        39.47581        -0.28233
C         25.51549        41.44610        -1.02834
C         24.27463        42.16633        -1.40893
C         25.67297        44.20627        -1.87810
C         24.37566        43.53779        -1.77498
C         25.73900        45.59020        -2.51021
C         24.44738        46.38057        -2.45020
C         25.78852        48.45820        -2.84431
C         24.48993        47.78241        -2.65242
C         25.85464        49.87342        -3.14171
C         27.90203        22.96535         0.98022
C         26.76789        22.37151         1.50239
C         27.83703        24.35313         0.49259
C         26.55234        25.13926         0.81028
C         27.80572        27.31089         0.39592
C         26.58013        26.61287         0.81995
C         27.85846        28.77035         0.59797
C         26.60612        29.45042         0.72604
C         27.84838        31.64497         0.29597
C         26.55551        30.89528         0.46074
C         27.83389        33.08988         0.61738
C         26.54805        33.76181         0.55930
C         27.75864        35.91017         0.54932
C         26.52401        35.16652         0.50247
C         27.78064        37.22413         0.10626
C         26.50804        37.83756        -0.21310
C         28.35290        40.08776        -0.99431
C         26.41877        39.08403        -0.91534
C         28.16126        41.49564        -1.03552
C         26.84965        42.17730        -1.08435
C         28.15249        44.31564        -1.57908
C         26.86725        43.58906        -1.55949
C         28.18758        45.67703        -1.85057
C         26.87481        46.42155        -1.90747
C         28.26387        48.37193        -2.82467
C         26.95302        47.76911        -2.58364
C         28.32135        49.88713        -3.11135
C         27.02244        50.56967        -3.14269
C         30.39026        20.15756         0.73865
C         29.18978        20.84978         0.90316
C         30.39364        22.97779         0.78654
C         29.16225        22.24874         0.88265
C         30.39289        24.38593         0.65330
C         29.15473        25.03021         0.07403
C         30.37140        27.28786         0.54755
C         29.12470        26.56556         0.18260
C         30.33037        28.71543         0.65372
C         29.09106        29.42486         0.51941
C         30.25920        31.57133         1.06807
C         29.18097        30.91375         0.24163
C         30.20305        33.03148         1.34757
C         28.97010        33.76701         0.97984
C         30.27120        35.90050         1.02205
C         28.92356        35.24708         1.26690
C         30.25539        37.37238         0.88712
C         29.01264        38.05266         0.34332
C         30.25576        40.27471         0.56958
C         29.22162        39.43546        -0.14307
C         30.55070        41.54832        -0.22069
C         29.38633        42.24161        -0.91969
C         30.51583        44.41960        -0.81881
C         29.37652        43.69392        -1.11565
C         30.62480        45.77527        -1.28641
C         29.44096        46.39811        -1.86063
C         30.75518        48.42605        -2.48362
C         29.48086        47.72222        -2.30635
C         30.75603        49.90821        -2.56591
C         29.58436        50.59534        -2.77182
C         30.59112        52.74574        -2.16110
C         29.56054        52.05276        -2.67592
C         32.84343        18.79967        -0.07820
C         32.84840        20.13492         0.38259
C         31.61137        20.83766         0.65677
C         32.86737        22.96996         0.84091
C         31.64082        22.26507         0.79503
C         32.86423        24.41246         0.88607
C         31.59862        25.11782         0.72597
C         32.79900        27.24663         1.16376
C         31.56077        26.54843         0.75396
C         32.77662        28.75297         1.25802
C         31.53393        29.47303         0.93290
C         32.77462        31.62106         1.18312
C         31.55829        30.86045         1.05217
C         32.75595        33.02517         1.26301
C         31.49200        33.79021         1.65994
C         32.72555        35.95068         1.11233
C         31.45380        35.22940         1.16220
C         32.74832        37.36292         1.07636
C         31.54519        38.12060         0.89491
C         32.75042        40.31539         1.06679
C         31.53151        39.50471         0.81608
C         32.82010        41.74712         0.67633
C         31.67894        42.37577         0.20012
C         32.91685        44.53170         0.04360
C         31.57473        43.86529         0.12145
C         32.86351        46.02720        -0.13065
C         31.83271        46.46685        -1.16296
C         33.26348        48.51936        -1.64288
C         32.02464        47.70922        -1.89477
C         33.27229        49.99943        -1.91795
C         32.05322        50.73283        -2.48310
C         33.08595        52.87985        -1.68478
C         31.82799        52.02869        -1.68168
C         33.07939        54.27190        -1.82596
C         35.26820        18.72298        -0.25312
C         34.02091        18.13469        -0.44071
C         35.31861        20.07424         0.32768
C         34.07513        20.83296         0.50725
C         35.34741        22.93988         0.76065
C         34.11399        22.23636         0.75527
C         35.36241        24.35752         1.25900
C         34.07959        25.11301         0.97049
C         35.29112        27.26466         1.13093
C         34.10956        26.54727         1.04201
C         35.28881        28.73231         1.34158
C         34.04008        29.50721         1.23115
C         35.27616        31.65223         1.11271
C         34.03697        30.89241         1.14928
C         35.22683        33.05458         1.10432
C         33.98042        33.77536         1.17675
C         35.17949        35.94282         0.75940
C         33.94430        35.19943         1.10924
C         35.22883        37.43879         0.79756
C         34.03558        38.07579         1.46432
C         35.30385        40.31568         1.07395
C         34.03265        39.59641         1.33662
C         35.29434        41.72665         0.92914
C         34.06263        42.44941         0.75225
C         35.34242        44.57952         0.50282
C         34.07965        43.86533         0.42629
C         35.37891        45.98345         0.20958
C         34.22506        46.65182        -0.29080
C         35.50815        48.72341        -0.57244
C         34.32772        47.95461        -0.78488
C         35.51594        50.15240        -0.83804
C         34.36972        50.79654        -1.31948
C         35.49908        52.98957        -1.18869
C         34.31180        52.22795        -1.39651
C         35.46919        54.40617        -1.33608
C         34.24799        55.01919        -1.67825
C         37.72295        15.98682        -1.03255
C         36.53503        16.63059        -0.72656
C         37.74409        18.73833        -0.51858
C         36.51688        18.02910        -0.51198
C         37.69398        20.24456        -0.64411
C         36.61345        20.85778         0.22367
C         37.74081        23.07592         0.17819
C         36.56751        22.33050         0.36639
C         37.75827        24.49212         0.45229
C         36.60093        25.12553         0.88667
C         37.81782        27.31334         0.76630
C         36.62948        26.56387         1.32243
C         37.73142        28.78564         0.47849
C         36.57648        29.49249         1.15996
C         37.77359        31.63296         0.99958
C         36.53558        30.96744         1.03669
C         37.80358        33.07754         1.00673
C         36.50984        33.78761         1.14814
C         37.72032        36.00052         0.53532
C         36.48650        35.26815         0.96379
C         37.73270        37.47001         0.70361
C         36.52969        38.15764         0.87704
C         37.76475        40.28581         0.90341
C         36.52013        39.58316         0.97713
C         37.75198        41.71464         1.01240
C         36.54939        42.43649         0.92898
C         37.76731        44.61474         0.87110
C         36.55028        43.89003         0.80510
C         37.80595        46.02958         0.71987
C         36.59444        46.72029         0.34825
C         37.76531        48.92704         0.45619
C         36.60763        48.10959         0.06421
C         37.87045        50.32050        -0.02978
C         36.70093        50.92626        -0.56084
C         37.91507        53.06952        -0.66687
C         36.70775        52.32629        -0.81294
C         37.89963        54.47558        -0.92901
C         36.69747        55.15625        -1.17627
C         37.80357        57.34386        -1.00252
C         36.67556        56.59802        -1.14193
C         40.13027        15.13963        -2.63683
C         40.14863        15.96727        -1.49635
C         38.95789        16.66089        -0.97765
C         40.20224        18.82899        -0.46112
C         38.97812        18.05051        -0.61056
C         40.19847        20.27902        -0.46536
C         38.99548        20.96656        -0.46193
C         40.25183        23.12730        -0.12011
C         38.95017        22.46952        -0.50692
C         40.24031        24.52708         0.13124
C         39.01613        25.21749         0.35025
C         40.27396        27.38132         0.41273
C         39.01501        26.64491         0.50719
C         40.27376        28.79835         0.56726
C         39.03981        29.51235         0.67618
C         40.27207        31.58240         1.18004
C         39.00621        30.88506         0.91938
C         40.25903        33.11878         1.23820
C         38.98284        33.79883         0.97840
C         40.25049        36.03137         0.80278
C         39.01950        35.24209         0.62833
C         40.24017        37.41141         0.69402
C         38.98343        38.16298         0.66128
C         40.24274        40.34712         0.46638
C         38.98141        39.56616         0.74311
C         40.33404        41.64386         1.27728
C         39.01983        42.41879         1.29719
C         40.30644        44.61403         0.94195
C         39.02749        43.92061         1.19164
C         40.29332        46.02723         0.87531
C         39.03562        46.72648         0.84386
C         40.31038        48.91358         0.65241
C         39.06210        48.19029         0.84142
C         40.26133        50.41403         0.80514
C         39.06534        51.04974         0.11859
C         40.36202        53.15887        -0.17656
C         39.11605        52.41774        -0.25496
C         40.41378        54.53205        -0.52374
C         39.18075        55.19506        -1.00932
C         40.37356        57.52019        -0.80741
C         39.12898        56.73169        -1.11885
C         40.28537        58.85796        -0.21476
C         42.57276        15.17654        -2.73907
C         41.33618        14.71824        -3.20911
C         42.63194        16.00157        -1.59748
C         41.41093        16.24573        -0.95095
C         42.68521        18.84052        -0.47394
C         41.43210        18.21985        -0.21691
C         42.68829        20.26880        -0.45077
C         41.45885        20.98362        -0.36075
C         42.71458        23.10094         0.02521
C         41.46341        22.40780        -0.16895
C         42.70710        24.50092         0.21231
C         41.48972        25.23985         0.22155
C         42.76008        27.38687         0.37818
C         41.50110        26.66616         0.33911
C         42.75712        28.81369         0.48110
C         41.52301        29.52081         0.61223
C         42.75543        31.65454         0.89125
C         41.53861        30.91469         0.86065
C         42.72963        33.12600         0.98617
C         41.51830        33.82982         1.02699
C         42.75141        36.02977         0.91552
C         41.48695        35.31705         1.29372
C         42.74411        37.43641         0.80230
C         41.49580        38.15949         0.74761
C         42.74167        40.28122         0.68036
C         41.51502        39.55348         0.67181
C         42.74574        41.72705         0.61542
C         41.53228        42.44813         0.79716
C         42.71991        44.60513         0.52699
C         41.51675        43.87939         0.77025
C         42.71846        46.00759         0.68667
C         41.53309        46.73539         0.87876
C         42.79912        48.96166         0.80360
C         41.53931        48.22563         1.19224
C         42.79120        50.34259         0.52661
C         41.56972        51.07780         0.44427
C         42.81818        53.18062         0.11882
C         41.57847        52.46027         0.13752
C         42.81834        54.59447        -0.02822
C         41.62147        55.26483        -0.39350
C         42.79006        57.46801         0.08752
C         41.67238        56.73998        -0.55082
C         42.65237        58.80638         0.38498
C         41.39386        59.47632         0.28288
C         45.07846        16.02869        -1.36801
C         43.85589        16.69741        -1.16581
C         45.12782        18.77056        -0.69175
C         43.87596        18.06760        -0.72915
C         45.12900        20.18721        -0.49306
C         43.94205        20.95217        -0.42149
C         45.18338        23.05777        -0.08369
C         43.96584        22.38381        -0.13618
C         45.28132        24.45233         0.35408
C         43.96280        25.22261         0.48956
C         45.23778        27.39175         0.45444
C         43.99151        26.69403         0.39641
C         45.22289        28.79824         0.57945
C         43.99036        29.52624         0.58483
C         45.24510        31.67208         0.92974
C         43.97177        30.94740         0.76857
C         45.22909        33.17793         0.96703
C         43.94608        33.87479         0.92001
C         45.20686        36.01702         0.80791
C         43.96048        35.30190         0.86158
C         45.20135        37.41698         0.78507
C         43.98287        38.13933         0.72921
C         45.19710        40.29410         0.50792
C         43.98355        39.58298         0.64785
C         45.21100        41.71091         0.42033
C         43.97446        42.41270         0.42541
C         45.25207        44.56518         0.31113
C         43.94973        43.86391         0.04538
C         45.21836        46.04524         0.07552
C         44.02274        46.71319         0.75494
C         45.30499        48.92621         0.44687
C         44.05943        48.22862         0.84057
C         45.28561        50.36302         0.32960
C         44.05306        51.05599         0.35813
C         45.29055        53.19149         0.25618
C         44.05516        52.47514         0.25639
C         45.28587        54.62504         0.26830
C         44.05271        55.32957         0.15359
C         45.25819        57.42692         0.46706
C         44.04033        56.74414         0.25859
C         46.29341        16.67596        -1.22793
C         47.61118        18.75320        -1.06716
C         46.35581        18.06421        -0.95797
C         47.71959        20.13392        -0.59212
C         46.41145        20.88304        -0.30439
C         47.70463        23.06636        -0.21242
C         46.41716        22.37331        -0.60235
C         47.70579        24.55013        -0.16571
C         46.52994        25.22412         0.13201
C         47.72363        27.34870         0.27713
C         46.51601        26.67197         0.31811
C         47.79657        28.78686         0.58370
C         46.49451        29.52694         0.77805
C         47.67475        31.67981         0.33671
C         46.51991        30.99173         0.59682
C         47.59830        33.15771        -0.02034
C         46.45191        33.90818         0.60280
C         47.70069        36.01794         0.48567
C         46.45592        35.28551         0.64770
C         47.72850        37.40869         0.58147
C         46.48856        38.18663         0.95842
C         47.73454        40.29081         0.45136
C         46.45776        39.51960         0.21630
C         47.71892        41.71219         0.47507
C         46.47151        42.41970         0.40324
C         47.73421        44.54326         0.48459
C         46.46735        43.85849         0.40935
C         47.75825        46.00361         0.57042
C         46.47461        46.76084         0.50921
C         47.72707        48.91178        -0.02390
C         46.46915        48.22332         0.27430
C         47.76703        50.36541         0.16094
C         46.52586        51.06738         0.25418
C         47.77342        53.19584         0.32086
C         46.52664        52.49016         0.28211
C         47.77154        54.61743         0.40358
C         46.51334        55.33868         0.39675
C         46.46348        56.74586         0.51164
C         49.89325        18.92537        -1.92105
C         48.73711        18.19051        -1.70472
C         49.98435        20.30293        -1.55959
C         48.91740        20.91857        -0.93664
C         50.16213        23.13505        -0.93625
C         48.98102        22.33954        -0.53135
C         50.13635        24.57311        -0.68051
C         48.97342        25.22153        -0.27659
C         50.19861        27.43578        -0.28537
C         49.05088        26.62446         0.26736
C         50.16659        28.86309        -0.19556
C         48.99002        29.56251         0.18653
C         50.12735        31.70505        -0.15589
C         48.94225        30.98017         0.12642
C         50.10918        33.18816        -0.43064
C         48.89896        33.89853         0.09409
C         50.17295        36.00860         0.23563
C         48.92422        35.28101         0.25880
C         50.18210        37.41918         0.36732
C         48.94744        38.13048         0.47352
C         50.19205        40.27810         0.56873
C         48.94526        39.57472         0.50509
C         50.19375        41.69931         0.65172
C         48.95988        42.41474         0.59389
C         50.19238        44.58025         0.74250
C         48.96693        43.85860         0.60497
C         50.22766        46.00070         0.60334
C         49.03067        46.70592         0.43553
C         50.27394        48.89198         0.31548
C         49.04517        48.12965         0.08714
C         50.24966        50.29941         0.28850
C         49.00179        51.03636         0.22335
C         50.23891        53.17677         0.40526
C         49.00750        52.47249         0.31858
C         50.20767        54.58785         0.47886
C         49.01303        55.28741         0.47680
C         52.47975        20.37983        -1.32544
C         51.25110        21.05917        -1.91140
C         52.51672        23.25615        -1.77470
C         51.22746        22.52382        -1.52967
C         52.49981        24.70958        -1.36878
C         51.34848        25.33824        -0.91886
C         52.54459        27.51335        -1.05322
C         51.34660        26.77637        -0.74236
C         52.56207        28.92199        -0.79677
C         51.36160        29.60185        -0.44410
C         52.59480        31.75257        -0.40196
C         51.35309        31.02576        -0.33718
C         52.61000        33.18006        -0.21379
C         51.40190        33.89193        -0.11370
C         52.64947        35.99977         0.17673
C         51.40973        35.29444         0.09952
C         52.65923        37.42445         0.37226
C         51.42659        38.13293         0.42932
C         52.65513        40.25989         0.70549
C         51.42513        39.55713         0.56437
C         52.63706        41.68149         0.86903
C         51.44156        42.38781         0.82346
C         52.72916        44.56837         0.74990
C         51.44915        43.86452         1.16227
C         52.71866        46.01175         0.58013
C         51.48671        46.72790         0.57262
C         52.72561        48.86475         0.51469
C         51.49025        48.15169         0.48619
C         52.71988        50.29684         0.50325
C         51.48753        51.01999         0.41800
C         52.73001        53.11708         0.51842
C         51.49096        52.44135         0.44163
C         53.58002        21.05445        -0.95249
C         54.96969        23.30001        -1.08440
C         53.65901        22.52701        -1.03961
C         54.89925        24.62574        -1.74113
C         53.71943        25.42072        -1.62974
C         54.91779        27.65203        -1.66414
C         53.71604        26.86384        -1.53772
C         54.99110        28.97873        -1.14704
C         53.78513        29.64908        -0.82378
C         55.06808        31.74215        -0.49897
C         53.80793        31.05395        -0.55780
C         55.08361        33.14857        -0.27641
C         53.85947        33.87499        -0.14218
C         55.12512        35.99310         0.03753
C         53.87377        35.28785         0.03193
C         55.14797        37.42018         0.30903
C         53.89350        38.12705         0.50345
C         55.12934        40.25018         0.85448
C         53.89339        39.53485         0.71752
C         55.16353        41.64386         0.93939
C         53.90268        42.41179         1.26589
C         55.18559        44.50084         0.62552
C         53.92107        43.85432         0.79526
C         55.18616        45.92780         0.11579
C         53.93974        46.71845         0.46838
C         55.18976        48.88584         0.56872
C         53.96094        48.14070         0.49558
C         55.19060        50.27877         0.70284
C         53.94944        51.01130         0.60213
C         53.92322        52.42368         0.59526
C         57.43255        23.30844        -1.39921
C         56.29856        22.66913        -0.98912
C         57.37935        24.59638        -2.05115
C         56.09618        25.08595        -2.32439
C         57.38917        27.64070        -1.93546
C         56.10244        27.16793        -2.26240
C         57.44202        28.91852        -1.31490
C         56.25857        29.63535        -1.03388
C         57.52750        31.72746        -0.54530
C         56.29266        31.03344        -0.65737
C         57.55621        33.12545        -0.36211
C         56.32542        33.84508        -0.23589
C         57.59976        35.96850        -0.20548
C         56.31802        35.26537        -0.10574
C         57.61318        37.46663         0.04095
C         56.35398        38.10204         0.42045
C         57.65809        40.24632         0.70685
C         56.40430        39.46833         1.04780
C         57.63508        41.63252         0.71109
C         56.39599        42.34959         0.83843
C         57.66454        44.48293         0.81783
C         56.39068        43.78647         0.72603
C         57.60439        45.93804         1.08031
C         56.47830        46.68894         0.44143
C         57.68541        48.87589         1.12353
C         56.48263        48.17419         0.60361
C         57.59568        50.29626         1.23441
C         56.42481        50.96483         0.99317
C         59.78442        24.73529        -2.55406
C         58.56594        25.41081        -2.31562
C         59.85172        27.51418        -2.13248
C         58.58707        26.84484        -2.17712
C         59.93805        28.91240        -1.69383
C         58.75698        29.50927        -1.03602
C         60.06162        31.70759        -0.84870
C         58.80062        30.97625        -0.62775
C         60.15510        33.09129        -0.23651
C         58.82019        33.83346        -0.22040
C         60.14824        35.87889         0.29522
C         58.83971        35.19195        -0.05367
C         60.10514        37.39447         0.32374
C         58.90387        38.12139         0.36016
C         60.15139        40.20365         0.70994
C         58.90687        39.52244         0.57123
C         60.15097        41.64239         0.86605
C         58.91844        42.38776         0.41006
C         60.10846        44.50780         1.21544
C         58.87279        43.82549         0.86725
C         60.13617        45.94834         1.39359
C         58.86159        46.69516         1.40746
C         60.14902        48.81910         1.45474
C         58.88618        48.17544         1.29854
C         60.98695        25.42256        -2.65540
C         61.02715        26.79730        -2.41116
C         61.08113        29.67089        -1.78748
C         61.14613        31.03179        -1.33653
C         61.21722        33.98079        -0.84963
C         61.22010        35.29624        -0.60625
C         61.31950        38.07645         0.52612
C         61.34616        39.45445         0.69365
C         61.26374        42.33988         1.28407
C         61.25990        43.74933         1.41369
C         61.31465        46.67021         1.47897
C         61.31321        48.08823         1.55558
O         56.87631        47.50402        -0.70664
O         48.51825        22.53035         0.86206
O         41.36568        57.32983        -1.85753
O         31.69736        47.67836        -3.31013
O         48.41049        48.41280        -1.22369
O         40.27174        32.29638         2.46115
O         27.07216        31.28375        -0.89191
O         41.44817        16.90864         0.28294
O         47.28311        29.08485         1.93544
O         44.25520        47.33944         2.02652
O         33.82656        49.05038        -2.89362
O         36.30900        20.16106         1.44621
O         36.18156        29.08486         2.50489
O         32.64358        27.90796         2.47563
O         28.36371        27.05913        -0.96204
O         26.80200        24.54882        -0.52036
O         55.99403        26.15881        -3.22643
O         29.28710        38.00395         1.82390
O         36.57275        34.72973         2.31340
O         38.13547        48.79119         1.86106
O         26.10743        42.03983         0.20406
O         38.94955        43.23443         2.51882
O         39.30820        55.89429        -2.29301
O         24.03073        39.19912         1.12488
O         57.63406        36.92658        -1.33660
O         33.26987        40.17277         2.45949
O         27.48127        39.33990        -1.77975
O         45.36570        32.37242         2.22597
O         35.02503        36.74586        -0.47104
O         46.96297        46.44000         1.83881
O         23.21426        33.15418        -0.63606
O         54.14009        23.20126         0.14495
O         58.93999        29.89982         0.37237
O         38.34442        35.50740        -0.68281
O         29.88037        32.01916         2.40651
O         28.46601        48.90261        -4.17845
O         47.20543        20.37116         0.78026
O         44.67967        24.71041         1.66751
O         30.46580        41.49670        -1.67071
O         57.89162        46.27659         2.47176
O         51.46457        43.91847         2.65211
H         50.60436        43.56462         2.96686
O         46.41024        39.19563        -1.20917
H         46.47345        40.03433        -1.71202
O         55.12289        45.78209        -1.33647
H         55.62836        46.54564        -1.70880
O         31.01068        44.25840         1.47295
H         31.43821        43.68168         2.14464
O         51.38162        21.00017        -3.37431
H         51.44106        20.05679        -3.63456
O         52.85613        23.23738        -3.18882
H         52.40671        22.45703        -3.59660
O         45.06381        46.28428        -1.35401
H         44.50115        45.54870        -1.71097
O         46.38700        22.48119        -2.07089
H         45.49997        22.19301        -2.37571
O         26.06095        45.38897        -3.91297
H         25.29771        44.95214        -4.34433
O         34.23876        37.79295         2.87717
H         33.69323        38.44362         3.37663
O         60.55435        32.84182         1.15515
H         59.98114        32.12520         1.50486
O         47.27533        33.14609        -1.47194
H         48.14346        33.05418        -1.94563
O         36.84277        26.52967         2.79496
H         36.71266        27.46304         3.10902
O         49.37828        26.45481         1.69641
H         48.65333        25.93841         2.11017
O         32.37348        46.58823         1.14642
H         31.71536        45.93444         1.50217
O         26.50568        46.65912        -0.51448
H         27.28337        47.02570        -0.04469
O         46.59970        38.50903         2.37325
H         46.59189        37.67075         2.88075
O         40.18526        40.75072        -0.93361
H         40.11878        39.94103        -1.48218
O         32.38918        51.11618        -3.82897
H         32.76490        50.31966        -4.26673
O         31.58290        33.91225         3.10516
H         31.10653        33.13857         3.48623
O         29.30219        24.73588        -1.34310
H         28.53964        25.17331        -1.78878
O         29.65624        31.02887        -1.12884
H         28.88177        30.83320        -1.70580
O         38.73074        22.83754        -1.93070
H         38.01240        22.23690        -2.25381
O         23.01573        39.38505        -2.34727
H         22.25277        39.68234        -2.88648
O         37.39540        28.88869        -0.95762
H         38.12085        28.46277        -1.46245
O         35.39382        24.23124         2.73376
H         35.83771        25.04767         3.08368
O         56.48318        39.23225         2.50933
H         56.31307        40.09093         2.95407
O         37.23187        20.51514        -2.03689
H         37.80912        19.99748        -2.63887
O         41.39273        35.41109         2.77203
H         42.01938        34.76094         3.15677
O         43.78540        43.87176        -1.47126
H         44.39481        43.18760        -1.82503
O         40.62136        41.25403         2.64007
H         40.32411        41.99633         3.21609
O         49.97842        33.27487        -1.93237
H         50.16024        34.20863        -2.17766
O         41.46736        48.32689         2.65922
H         41.20404        49.25906         2.86337
O         53.88113        42.47722         2.73329
H         53.07716        43.00351         2.97973
O         59.01441        42.45389        -1.05946
H         59.05335        41.53132        -1.39104
O         31.60319        51.60618        -0.30445
H         31.45066        52.40608         0.24064
O         28.64505        35.40573         2.69093
H         28.75072        36.36706         2.88498
O         40.07171        50.69390         2.25745
H         39.24417        50.20603         2.50406
O         60.46853        35.52359         1.67037
H         60.59084        34.53989         1.70803
O         29.72555        40.73866         1.84237
H         29.47665        39.92889         2.34825
H         23.24078        23.53420         2.81310
H         21.27247        24.85476         3.49627
H         21.17155        27.27760         3.07082
H         21.00764        29.05813         2.52175
H         20.83485        31.42085         1.95114
H         20.64820        33.37975         1.39660
H         20.64021        35.74182         0.88017
H         20.62596        37.77012         0.39997
H         20.71770        40.04034        -0.42340
H         20.87762        41.76590        -1.57962
H         21.01343        44.12377        -2.19140
H         21.05201        45.99991        -2.12381
H         23.28426        49.59446        -2.80587
H         21.13110        48.43387        -2.48528
H         24.77576        22.55761         2.29089
H         24.91804        50.43747        -3.24638
H         26.80062        21.32085         1.82152
H         26.98635        51.66615        -3.20426
H         30.36090        19.06136         0.68532
H         28.25539        20.27813         0.97636
H         30.49938        53.83350        -2.03260
H         28.65792        52.58976        -2.99759
H         31.88968        18.27532        -0.21992
H         32.15120        54.80580        -2.06907
H         33.94141        17.12501        -0.86603
H         34.19479        56.10545        -1.82834
H         37.71047        14.91716        -1.28442
H         35.60206        16.05265        -0.69418
H         37.71926        58.42602        -0.83206
H         35.70361        57.10947        -1.11917
H         39.17546        14.86259        -3.10552
H         39.30925        59.35850        -0.15102
H         43.49066        14.92451        -3.28859
H         41.30858        14.07774        -4.10150
H         43.49517        59.36659         0.81235
H         41.31378        60.49786         0.68064
H         45.06460        14.96591        -1.64735
H         45.26502        58.52184         0.55093
H         47.21852        16.10213        -1.36918
H         47.38752        57.32516         0.63692
H         50.74762        18.44215        -2.41806
H         48.70536        17.15199        -2.06103
H         51.14195        55.16020         0.54350
H         49.04947        56.38304         0.53555
H         52.45534        19.28337        -1.22521
H         52.76515        54.21389         0.51651
H         54.43747        20.51592        -0.51961
H         54.85730        52.99746         0.64350
H         58.41025        22.83558        -1.22721
H         56.37021        21.68970        -0.49565
H         58.48154        50.87154         1.53619
H         56.41973        52.05656         1.10261
H         59.77395        23.64480        -2.68911
H         60.20582        49.91597         1.45165
H         61.91545        24.87827        -2.87570
H         61.99962        27.30711        -2.40522
H         61.98825        29.25564        -2.24777
H         62.11468        31.54271        -1.43307
H         61.99446        33.53099        -1.48449
H         61.99555        35.94795        -1.03653
H         62.26097        37.51042         0.54672
H         62.31387        39.96103         0.80921
H         62.18468        41.80264         1.55148
H         62.18965        44.23446         1.73890
H         62.28616        46.15797         1.46159
H         62.27530        48.61136         1.64535
