         271
 CSIRO Nanostructure Databank - Neutral Graphene Oxide Data Set
C        -10.89734         0.31183        -1.56234
C         -9.95597         1.30570        -0.89827
C         -8.62894         0.54931        -0.71499
C         -7.33718         1.29308        -0.59729
C         -6.09012         0.57310        -0.16167
C         -4.80162         1.17247        -0.20483
C         -3.66677         0.53955         0.36994
C         -2.52702         1.36525         0.94952
C         -1.22318         0.54422         0.99972
C         -0.02048         1.42134         1.35426
C          1.25487         0.67440         1.56566
C          2.49676         1.38399         1.08921
C          3.80942         0.67236         1.03197
C          5.12247         1.44019         1.17226
C          6.20018         0.70648         0.37068
C          7.42031         1.43365        -0.05571
C          8.66858         0.69234        -0.37151
C          9.84313         1.46400        -0.71342
C         11.03690         0.73634        -1.07645
C         -9.78246         2.58454        -1.76105
C         -8.53134         3.39558        -1.41345
C         -7.66183         2.76742        -0.34459
C         -5.64583         3.34439        -1.38348
C         -4.75579         2.65089        -0.42621
C         -3.61304         3.45884         0.09662
C         -2.29618         2.70369         0.21875
C         -1.24623         3.52674         0.97197
C         -0.01190         2.78586         1.35098
C          1.26537         3.56200         1.77574
C          2.46398         2.90013         1.08414
C          3.75044         3.63127         0.83188
C          5.04451         2.89519         0.73616
C          6.20491         3.57322         0.44623
C          7.55880         2.87206         0.43293
C          8.66619         3.61315        -0.29022
C          9.81085         2.85388        -0.69923
C         -8.23051         4.53678        -2.09125
C         -7.01743         5.35725        -1.89793
C         -5.85452         4.72207        -1.31678
C         -4.60195         5.55413        -1.10106
C         -3.63405         4.99181        -0.04901
C         -2.22415         5.57475        -0.25924
C         -1.25012         5.01725         0.78769
C         -0.00054         5.81980         1.06263
C          1.23829         5.09608         1.50945
C          2.57063         5.83357         1.44605
C          3.84262         5.07746         1.23001
C          5.13545         5.81877         0.93943
C          6.15626         5.05581         0.11247
C          7.46014         5.77599        -0.15244
C          8.60714         4.97226        -0.50172
C         -7.03093         6.72217        -2.11889
C         -5.99621         7.62804        -1.55180
C         -4.84943         7.02623        -0.80382
C         -3.60294         7.84090        -0.49773
C         -2.31556         7.10642        -0.23967
C         -0.99706         7.80459        -0.33087
C          0.14784         7.16326         0.37554
C          1.27854         8.06089         0.90505
C          2.57565         7.23091         0.82829
C          3.84466         7.89971         0.38153
C          5.17436         7.31192         0.78033
C          6.49761         8.03880         0.45567
C          7.49555         7.14019        -0.24505
C         -5.79513         9.00408        -2.06305
C         -4.69469         9.73119        -1.80208
C         -3.59084         9.34398        -0.83437
C         -2.20331         9.78144        -1.37914
C         -1.01849         9.26900        -0.57811
C          0.09292         9.99975        -0.30596
C          1.34757         9.38119         0.12592
C          2.52266        10.00814        -0.14256
C          3.82916         9.27075        -0.31603
C          5.10618        10.05207        -0.14833
C          6.29600         9.44395        -0.06027
C        -10.92303        -0.97321        -1.18255
C        -10.08543        -1.47282        -0.02404
C         -8.73859        -0.74756         0.02808
C         -7.50047        -1.41381         0.54356
C         -6.17156        -0.77444         0.23811
C         -4.97908        -1.46677         0.53948
C         -3.71070        -0.83445         0.71117
C         -2.66725        -1.50644         1.51021
C         -1.35903        -0.76938         1.89314
C         -0.05808        -1.60830         1.57342
C          1.26148        -0.82643         1.65906
C          2.59185        -1.55921         1.47769
C          3.85774        -0.81771         1.15944
C          5.00058        -1.49169         0.83459
C          6.28684        -0.77114         0.59945
C          7.53888        -1.47021         0.14876
C          8.66851        -0.68412        -0.43356
C          9.84181        -1.39998        -0.91928
C         11.04261        -0.62284        -1.15851
C         -9.91471        -2.96900        -0.01058
C         -8.82108        -3.63328         0.51427
C         -7.60602        -2.87394         1.02514
C         -6.27681        -3.56292         0.86997
C         -5.12096        -2.84410         0.88082
C         -4.03874        -3.64403         1.55771
C         -3.05650        -2.68193         2.18047
C         -0.92444        -4.18469         2.12601
C          0.03711        -3.11482         1.63367
C          1.35333        -3.86072         1.48482
C          2.61208        -3.05085         1.32920
C          3.85294        -3.82083         0.86037
C          4.94762        -2.89948         0.34031
C          6.16080        -3.55846        -0.25819
C          7.55493        -2.98389        -0.04739
C          8.44036        -3.42872        -1.23519
C          9.77926        -2.74502        -1.20124
C         -8.86143        -5.05702         0.56382
C         -7.80576        -5.94108         0.95520
C         -5.87275        -4.87439         1.50272
C         -4.91919        -5.65204         0.61924
C         -3.64883        -4.80968         0.53489
C         -2.41183        -5.67669         0.63168
C         -1.21408        -5.27261         1.13198
C          0.01932        -6.17459         1.14382
C          1.31149        -5.30926         1.08767
C          2.29955        -5.81874         0.04462
C          3.57367        -4.98064        -0.10315
C          4.78460        -5.62888        -0.70712
C          6.10474        -4.98776        -0.61383
C          7.25927        -5.65827        -1.14873
C          8.46638        -4.93159        -1.29262
C         -7.58930        -7.08473         0.21565
C         -6.25629        -7.69628        -0.14859
C         -4.98003        -6.95803         0.23979
C         -3.73513        -7.63107        -0.15457
C         -2.51721        -6.99728         0.00010
C         -1.27002        -7.60452        -0.60551
C          0.01210        -7.27179         0.10846
C          1.15308        -7.96282        -0.16037
C          2.47795        -7.37438         0.30757
C          3.69625        -7.98374        -0.40048
C          4.79803        -7.11374        -0.90626
C          5.79414        -7.57244        -1.95327
C          7.15023        -6.98636        -1.64390
C         -6.15511        -9.18095         0.08158
C         -4.99345        -9.79983        -0.20588
C         -3.77596        -9.05343        -0.49361
C         -2.63312        -9.72233        -0.87820
C         -1.35272        -9.07879        -0.91512
C         -0.19736        -9.74700        -1.23846
C          1.11474        -9.17344        -0.98543
C          2.25530        -9.82515        -1.36184
C          3.61731        -9.44877        -0.83644
C          4.74914        -9.84853        -1.76412
C          5.76284        -9.06670        -2.15814
O         -6.73326        -2.19842         3.14130
H         -6.13584        -2.95276         3.38805
O         -8.30234        -0.53677         1.40830
O         -4.71903         3.15368         0.98148
O          3.07447         7.00520        -0.52515
O          5.49898         1.41782         2.55754
H          6.37811         1.89333         2.61909
O          0.37078         5.79491         2.46037
O          1.70695        -4.93684         2.43240
O         -5.99715         7.45706        -0.05747
O         -4.87043        -4.41306         2.52898
O         -1.24827        -0.47520         3.31845
O          0.05810         7.07077        -1.08380
O          3.38266         5.43607         2.57505
O         -7.79117         0.69585        -1.89206
O          6.33338         1.15731        -1.00772
O          7.33244        -1.13222         1.57258
O          3.85273        -4.80104        -1.51462
O          4.92606        -7.78770         0.39146
O         -1.82774         4.41934         1.98163
O         -1.18574        -6.92516        -1.92002
H         -1.72822        -7.44056        -2.55402
O         -1.00954        -4.45395         3.31464
O         -1.68849         5.13980        -1.52796
H         -0.88328         5.69116        -1.71600
O          5.20743        -2.79632        -1.09640
O         -7.84614        -2.85889         2.50853
O          1.01832         8.40238         2.22391
O         -9.71673         2.21364        -3.14304
H         -8.96379         1.58409        -3.23257
O        -10.80463        -1.10730         1.19186
H        -10.14274        -1.14338         1.92398
O          7.70162         2.85516         1.82667
O          1.35028         0.00747         2.85611
O         -4.16124         5.48281         1.18542
H         -3.59438         5.17036         1.92612
O         -0.94298         0.08350        -0.34885
H         -1.38075        -0.78349        -0.50007
O         -3.83041        10.08349         0.37642
H         -3.69581         9.47124         1.13544
O         -2.89940         1.71192         2.30035
H         -3.73356         2.24360         2.24540
O         -3.10000         7.64245         0.86674
O         -2.09238         9.22552        -2.69830
H         -1.19661         9.41567        -3.04526
O          5.39217         6.66921         2.08320
O         -6.94063        -5.62062         2.02542
O         -0.23323        -2.42218         0.36886
O          8.09767        -3.59407         1.13481
H          7.90361        -2.99173         1.89087
O          4.42486        -4.45112         2.03372
H          3.71384        -4.54782         2.70991
O          2.64431        -7.57757         1.71176
H          3.60881        -7.59386         1.90123
O          2.75291         3.43452        -0.23230
O          3.80680       -10.24755         0.36518
H          4.56605        -9.85159         0.84741
O          3.02783         0.91751        -0.18925
O          5.53035         4.72533        -1.09924
O          2.85630        -2.42784         2.63431
O          3.83480         9.02352        -1.75998
H          3.27807         8.22290        -1.91299
O          7.19839         8.30617         1.71177
H          6.94139         7.59276         2.34474
O         -6.08567         2.59211        -2.42066
H         -6.59181         3.14869        -3.04921
O         -2.72271        -2.88198         3.44963
H         -3.07638        -3.73208         3.78449
O         -2.56775        -0.37916         3.90577
H         -2.86064         0.52944         3.61519
O         -1.86574         2.47583        -1.13265
H         -1.30550         1.66013        -1.15728
O         -4.03830         5.57376        -2.44364
H         -3.15163         5.13298        -2.45198
O         -6.23361        -7.54926        -1.61747
H         -6.24508        -6.59026        -1.82314
O        -10.47983         1.68845         0.37923
H        -10.72112         0.86624         0.87148
O          7.77571        -3.01384        -2.47013
H          7.76095        -2.03315        -2.49899
O          5.35266        -6.96040        -3.20638
H          6.06022        -7.07688        -3.87436
O          1.56628        -5.65503        -1.18734
H          2.20753        -5.39488        -1.89292
O         -7.46804         3.26003         0.74933
O          1.43628         3.37458         3.18190
H          0.88930         4.04661         3.64583
O         -3.57320        -4.18152        -0.76839
H         -3.03129        -4.74791        -1.35854
O         -0.00941        -6.85495         2.40820
H          0.35713        -6.24354         3.08900
H         11.95563        -1.15870        -1.45553
H         11.95052         1.30807        -1.29542
H         10.69959         3.40623        -1.04400
H          9.47447         5.48327        -0.95052
H          8.44860         7.61607        -0.53004
H          7.21454        10.04981        -0.10242
H          5.06147        11.12500        -0.39126
H          2.47915        10.98966        -0.64566
H          0.11769        11.07113        -0.56531
H         -2.16622        10.90485        -1.43171
H         -4.60825        10.73706        -2.24163
H         -6.55901         9.40620        -2.74744
H         -7.93723         7.18818        -2.53780
H         -8.97259         4.91722        -2.81425
H        -10.69092         3.22402        -1.63146
H        -11.54790         0.66421        -2.37705
H        -11.61736        -1.68283        -1.65858
H        -10.78670        -3.56978        -0.31557
H         -9.68049        -5.52802        -0.00544
H         -8.37464        -7.32737        -0.52076
H         -7.05620        -9.75008         0.34841
H         -4.91667       -10.89676        -0.15980
H         -2.67922       -10.80484        -1.07195
H         -0.24762       -10.79211        -1.58130
H          2.17690       -10.76401        -1.93129
H          4.77671       -10.92056        -2.01739
H          6.57063        -9.49717        -2.77247
H          8.04007        -7.45038        -2.09824
H          9.35976        -5.44430        -1.68287
H         10.66490        -3.26705        -1.59340
