         344
 CSIRO Nanostructure Databank - Neutral Graphene Oxide Data Set
C          1.34875         3.80154         0.17592
C          0.16154         4.52055         0.11121
C          1.37260         6.64715         0.28043
C          0.16477         5.91810         0.16185
C          1.38358         8.12032         0.33029
C          0.20678         8.83248         0.63886
C          0.96524        11.21207         0.66525
C          0.03849        10.19969         0.97042
C          1.22748        12.46868         1.26765
C          0.17832        13.25865         1.85534
C          1.50722        15.41504         1.74621
C          0.27045        14.60351         2.03802
C          1.36022        16.43286         0.63337
C          0.11080        16.72003         0.07030
C          1.12663        18.46255        -1.24458
C          0.00244        17.70405        -0.91312
C          1.06177        20.70912        -1.79774
C         -0.09640        21.51541        -2.05969
C          1.00832        23.45745        -1.04051
C         -0.11592        22.83691        -1.74346
C          1.10573        24.92840        -0.92159
C         -0.06489        25.72083        -1.02085
C          1.13661        27.72154        -0.36113
C         -0.03598        27.09805        -0.78924
C          1.18692        29.12191        -0.11224
C          3.81391         3.76449         0.34399
C          2.58656         4.48859         0.29152
C          3.91678         6.60086         0.26508
C          2.58170         5.91257         0.35433
C          3.87348         8.04177         0.67547
C          2.68422         8.76379         0.38555
C          3.93221        10.86990         0.78837
C          2.82389        10.15916         0.30042
C          3.86071        12.32130         0.92682
C          2.60288        13.02282         1.29543
C          3.92193        15.20266         0.95293
C          2.73629        14.55182         1.50853
C          3.88119        16.69865         0.70621
C          2.51053        17.13042         0.21096
C          3.56490        19.08405        -0.91722
C          2.39196        18.24214        -0.65538
C          3.48633        20.46231        -1.20627
C          2.24615        21.21873        -1.31128
C          3.59373        23.36355        -0.93109
C          2.30241        22.63837        -0.90445
C          3.58110        24.76268        -0.66635
C          2.34194        25.49463        -0.57255
C          3.63015        27.61674        -0.11208
C          2.33188        26.87914         0.01809
C          3.62437        29.02172         0.11858
C          2.37411        29.74191         0.18782
C          6.20492         3.63048         0.88457
C          5.05999         4.37895         0.64355
C          6.24504         6.47949         1.16547
C          5.09034         5.83067         0.81095
C          6.27822         7.95981         1.46358
C          5.04206         8.71912         1.04584
C          6.34310        10.83241         1.55705
C          5.07879        10.12822         1.13127
C          6.33288        12.32749         1.23779
C          5.05179        13.02725         1.00811
C          6.27616        15.04700         0.20632
C          5.08347        14.46186         0.78448
C          6.12535        16.29547        -0.63015
C          4.97640        17.17678        -0.21409
C          5.99184        19.07507        -1.42459
C          4.85955        18.43722        -0.80341
C          5.78646        20.38548        -1.83445
C          4.69620        21.20668        -1.40984
C          6.05335        23.37186        -1.15259
C          4.79562        22.65133        -1.23840
C          6.02599        24.77588        -0.85594
C          4.82825        25.47649        -0.61910
C          6.04206        27.66417        -0.32415
C          4.83180        26.92390        -0.34921
C          6.05842        29.03331         0.06273
C          4.83687        29.71031         0.24104
C          8.70050         3.54900         1.04987
C          7.44601         4.26542         1.44390
C          8.70546         6.40961         1.00006
C          7.50427         5.75657         1.21307
C          8.80008         7.91444         1.20014
C          7.49828         8.61229         0.79665
C          8.74116        10.76363         0.69244
C          7.57701        10.11535         1.03521
C          8.78937        12.20290         0.50204
C          7.59813        13.02218         0.80826
C          8.66439        14.96898        -0.34913
C          7.47589        14.35831         0.17430
C          8.62268        16.35651        -0.78683
C          7.41323        17.04453        -0.87742
C          8.60087        19.18978        -1.44225
C          7.32627        18.36026        -1.66151
C          8.70457        20.58099        -1.40607
C          7.59123        21.47435        -1.71866
C          8.57903        23.33631        -0.50405
C          7.35512        22.70931        -1.15986
C          8.61749        24.82929        -0.77796
C          7.30636        25.54283        -0.94187
C          8.60301        27.71149        -0.26088
C          7.30665        27.02188        -0.69371
C          8.50154        29.03061         0.39319
C          7.29146        29.69221         0.40111
C         11.09849         3.49910         0.53237
C          9.88291         4.21443         0.76969
C         11.06223         6.32071         0.24927
C          9.91070         5.66968         0.69928
C         10.98316         7.75820        -0.21120
C          9.94346         8.59378         0.48194
C         11.09797        10.66085        -0.15572
C          9.92810         9.96609         0.32542
C         11.08562        12.03622        -0.35778
C          9.88329        12.81035        -0.09539
C         11.08146        14.87665        -0.77837
C          9.86352        14.23182        -0.40308
C         11.07631        16.29553        -1.04218
C          9.87459        16.99611        -1.09977
C         11.14350        19.13812        -1.10672
C          9.89989        18.42091        -1.58522
C         11.13237        20.55336        -0.90647
C          9.92063        21.25188        -1.05891
C         11.09517        23.40044        -0.45818
C          9.88544        22.75403        -1.08681
C         11.04755        24.78303        -0.14734
C          9.83869        25.54036        -0.31523
C         10.97055        27.55025         0.53539
C          9.82193        26.90713        -0.02306
C         10.88024        28.90805         1.00600
C          9.68765        29.59716         0.96185
C         13.52632         3.46673         0.09948
C         12.28274         4.16394         0.21391
C         13.45090         6.25368        -0.41781
C         12.26889         5.59367         0.00622
C         13.45021         7.69972        -0.56752
C         12.32619         8.43217        -0.31620
C         13.43699        10.54547        -1.10103
C         12.42111         9.92654        -0.13086
C         13.52762        12.02399        -0.87311
C         12.29856        12.74409        -0.71148
C         13.57001        14.80816        -1.28954
C         12.28051        14.14195        -0.86649
C         13.55765        16.30016        -1.08317
C         12.35256        16.99266        -1.12020
C         13.59154        19.11860        -0.78653
C         12.34697        18.43270        -1.01463
C         13.57204        20.53375        -0.52271
C         12.33929        21.24503        -0.57039
C         13.48778        23.35632         0.04712
C         12.30178        22.67297        -0.31920
C         13.47372        24.74222         0.30093
C         12.23659        25.45673         0.27175
C         13.40409        27.47760         1.08248
C         12.19786        26.83137         0.63793
C         13.37658        28.86587         1.47170
C         12.05935        29.56659         1.68705
C         15.97738         3.45851        -0.07256
C         14.70112         4.12794        -0.22131
C         15.90914         6.22087        -0.77722
C         14.67959         5.53902        -0.53947
C         15.96229         7.61899        -0.87307
C         14.68424         8.34254        -1.18191
C         15.95542        10.49400        -0.87378
C         14.75572         9.82884        -0.99106
C         15.98621        11.94990        -0.82311
C         14.75820        12.66920        -0.82729
C         16.05891        14.83619        -0.88925
C         14.74825        14.15742        -0.56790
C         16.03264        16.25362        -0.97278
C         14.81285        16.97823        -0.96593
C         16.05021        19.11064        -0.54940
C         14.81187        18.41150        -0.79223
C         16.01937        20.51993        -0.26258
C         14.78469        21.20060        -0.22471
C         15.97295        23.40899        -0.24059
C         14.77754        22.61577         0.28945
C         15.97866        24.81829         0.31410
C         14.69592        25.45602         0.57343
C         15.92358        27.45337         1.48880
C         14.63571        26.78542         1.02056
C         15.83359        28.97420         1.50045
C         14.54478        29.57229         1.67011
C         18.43318         3.45720        -0.01727
C         17.16227         4.08006        -0.33489
C         18.43339         6.20312        -0.78699
C         17.16445         5.42523        -1.02501
C         18.43081         7.58519        -0.67873
C         17.18667         8.33271        -0.79471
C         18.43198        10.46362        -0.62569
C         17.20772         9.75510        -0.78247
C         18.45700        11.89953        -0.63565
C         17.21988        12.64775        -0.77115
C         18.56898        14.78836        -1.05889
C         17.24095        14.07764        -0.87014
C         18.45845        16.20420        -0.44034
C         17.33438        17.01141        -1.09377
C         18.49654        19.09701        -0.28047
C         17.27738        18.42521        -0.56438
C         18.47954        20.51282        -0.03641
C         17.25189        21.22844        -0.05583
C         18.44525        23.36669         0.17031
C         17.26580        22.66502         0.00881
C         18.47542        24.87642         0.02145
C         17.14451        25.53075         0.36728
C         18.35278        27.74988         0.77075
C         17.04844        27.03357         0.47346
C         18.28357        29.09851         1.37474
C         16.99299        29.71486         1.53566
C         19.61604         4.07224        -0.22487
C         20.90882         6.19634        -0.44347
C         19.71457         5.41875        -0.91141
C         20.86987         7.53577        -0.26215
C         19.66300         8.30822        -0.46455
C         20.86773        10.45986        -0.24321
C         19.65873         9.72274        -0.44030
C         20.87586        11.83015        -0.23379
C         19.68531        12.58732        -0.44253
C         20.86838        14.75560        -0.14797
C         19.73798        14.03073        -0.46409
C         20.91102        16.18341        -0.20275
C         19.77651        16.94466        -0.38607
C         20.93084        19.12208        -0.04409
C         19.74844        18.38841        -0.25818
C         20.91085        20.49536         0.17819
C         19.70219        21.21546         0.20201
C         20.78360        23.35146         0.88143
C         19.67466        22.65167         0.41168
C         20.73200        24.75429         1.10230
C         19.65454        25.51700         0.73038
C         20.78296        27.69566         1.51596
C         19.67148        26.99370         0.86216
C         20.68509        29.01819         1.84109
C         19.44990        29.73055         1.76178
O          6.71628        20.98637        -2.69002
O          7.17445        13.03571         2.22696
O          2.90250        13.64942         2.63031
O         19.24017        27.68086        -0.40156
O          0.97833        19.39565        -2.28475
O          8.12324        27.75506        -1.65008
O          8.12339        25.17754        -2.10181
O          1.42010        22.86654         0.24711
O         16.24570        27.04097         2.76482
O          1.85584        10.89699        -0.38486
O         18.65155        25.14442        -1.41882
H         18.94608        26.08718        -1.48192
O         11.79831        29.63118         3.10809
H         11.91021        28.73159         3.47917
O          4.18949         6.64704        -1.19327
H          3.47568         7.17796        -1.60739
O         14.96428        22.54054         1.73451
H         14.20672        22.04993         2.11606
O         19.91049         5.13640        -2.34027
H         19.02178         4.87339        -2.68888
O         17.62567        17.16390        -2.52427
H         16.88057        17.65752        -2.92781
O         18.86069        14.83676        -2.47547
H         18.33639        15.57521        -2.87020
O         10.06065        18.29751        -3.07861
H         10.15531        19.21106        -3.42765
O          8.58001        23.10080         0.91983
H          7.68197        23.27478         1.26976
O         12.90003        10.34257        -2.45326
H         13.32161        11.00427        -3.04216
O          2.17425        26.64557         1.48371
H          1.39297        26.06145         1.59533
O          6.40330         8.04169         2.91295
H          6.29379         8.99389         3.17863
O         13.74816        14.56410        -2.71656
H         13.01595        15.01277        -3.18943
O         18.04614        16.03481         0.94423
H         18.79979        15.64427         1.43493
O          7.34604         4.10776         2.92542
H          8.03608         4.68150         3.32297
O         17.14802         5.11411        -2.48167
H         16.84774         5.92699        -2.94450
O         14.51521        14.35402         0.85474
H         15.30230        14.02934         1.33951
O          9.04128         8.11765         2.61985
H          8.17032         7.95792         3.07310
O          6.40879        10.72948         3.02025
H          6.95253        11.49928         3.31999
O         14.48314         8.12603        -2.63287
H         13.75410         8.74501        -2.89386
O          1.80508        16.17508         2.96626
H          2.06552        15.50734         3.63983
O          4.11151        17.34566         1.99902
H          3.32819        17.11412         2.56491
O          7.30390         8.43598        -0.62594
H          8.16300         8.59061        -1.07780
O          9.89301        23.13375        -2.49710
H         10.79226        22.97532        -2.85206
O         12.96771        10.14160         1.20502
H         12.30826         9.82160         1.85666
O         16.57985        27.52961        -0.80826
H         17.36217        27.58720        -1.39982
O          7.30765        17.94124        -3.07145
H          8.25520        17.83065        -3.34541
O         10.47602         7.67667        -1.60662
H         11.12478         7.14709        -2.11921
O         15.81829        23.53773        -1.67845
H         16.59309        24.04520        -2.00869
O          5.71207        15.79510        -1.97255
H          6.03140        16.45901        -2.63313
H          1.34000         2.70337         0.12922
H         -0.79482         3.98836         0.01066
H         -0.79452         6.44672         0.08073
H         -0.68642         8.21762         0.83285
H         -0.84366        10.45784         1.57582
H         -0.78154        12.75756         2.05763
H         -0.58145        15.14613         2.47319
H         -0.77378        16.14680         0.38097
H         -0.95490        17.90067        -1.41206
H         -0.93677        21.05374        -2.59518
H         -0.94951        23.46477        -2.08679
H         -1.01619        25.25280        -1.30518
H         -0.94404        27.69759        -0.94988
H          0.25801        29.70722        -0.18705
H          3.77606         2.66793         0.25031
H          2.40454        30.82358         0.38212
H          6.17822         2.53524         0.77732
H          4.83777        30.78150         0.48959
H          8.70091         2.44921         1.10331
H          7.23477        30.71156         0.81171
H         11.09821         2.40317         0.62941
H          9.63222        30.60954         1.38926
H         13.55444         2.39281         0.33766
H         12.13740        30.62959         1.33978
H         15.97719         2.44731         0.36406
H         14.48772        30.63572         1.95479
H         18.40473         2.45396         0.43723
H         16.95211        30.80375         1.70144
H         20.55574         3.55870         0.02951
H         21.85249         5.64867        -0.30024
H         21.79042         8.05118         0.04524
H         21.81825         9.92883        -0.10634
H         21.83292        12.34949        -0.09363
H         21.78770        14.24598         0.17397
H         21.88635        16.66228        -0.03647
H         21.90205        18.60910        -0.04856
H         21.86603        21.01718         0.32641
H         21.71198        22.82339         1.13568
H         21.61121        25.22645         1.56293
H         21.71197        27.15270         1.73663
H         21.55371        29.53134         2.27816
H         19.40331        30.75376         2.16159
