         276
 CSIRO Nanostructure Databank - Neutral Graphene Oxide Data Set
C        -10.66360         0.24956        -1.61842
C        -10.06139         1.32254        -0.71511
C         -8.81849         0.71370        -0.03403
C         -7.50137         1.37188        -0.33014
C         -6.22972         0.60585        -0.23456
C         -4.92859         1.35615        -0.13706
C         -3.70190         0.61859         0.46899
C         -2.62388         1.48598         1.00172
C         -1.32675         0.68655         1.36225
C         -0.03613         1.36465         1.08156
C          1.25559         0.69437         1.43768
C          2.33038         1.67754         1.72017
C          4.11818         0.48223         1.46985
C          5.03986         1.34264         0.68576
C          6.25315         0.65608         0.05216
C          7.54056         1.45276         0.07907
C          8.82483         0.76936        -0.37295
C         10.16155         1.46424         0.12006
C         11.26426         0.67136        -0.57959
C         -9.71928         2.61680        -1.49811
C         -8.66567         3.51233        -0.86171
C         -7.49516         2.88057        -0.13236
C         -6.18319         3.53531        -0.63526
C         -4.96098         2.81951        -0.08095
C         -3.77695         3.53169         0.15491
C         -2.61204         2.90130         0.62515
C         -1.31078         3.59473         0.47630
C         -0.04887         2.82657         0.70428
C          1.26161         3.59137         0.63618
C          2.45073         2.94411         1.23977
C          3.80737         3.65203         1.41153
C          4.93208         2.83960         0.71561
C          6.25834         3.58620         0.52245
C          7.35425         2.77893        -0.13680
C          9.36091         3.93472        -0.22984
C         10.31279         3.00348         0.03212
C         -8.63331         4.84972        -1.09280
C         -7.48389         5.71973        -0.83132
C         -6.18492         5.06139        -0.36697
C         -4.83598         5.67506        -0.69735
C         -3.90516         5.03968         0.29486
C         -2.59041         5.79400         0.56719
C         -1.27404         5.10938         0.21775
C         -0.01541         5.84820         0.64802
C          1.23148         5.10036         0.53929
C          2.56218         5.81880         0.44170
C          3.82885         5.15412         0.90296
C          5.10822         5.87122         0.40525
C          5.96098         4.84556        -0.27070
C          8.31701         6.20775        -0.25960
C          9.26463         5.35300         0.16970
C         -7.66106         7.06977        -0.97723
C         -6.55722         8.03430        -1.04763
C         -4.61202         6.94027        -1.11347
C         -3.40321         7.77955        -0.81641
C         -2.51213         7.26945         0.30823
C         -1.25317         8.14718         0.55773
C          0.05421         7.33528         0.59367
C          1.34761         8.03840         0.16631
C          2.58915         7.22220        -0.08264
C          3.87168         7.94960        -0.41293
C          5.22424         7.37347         0.02372
C          6.32883         7.81531        -1.00306
C          7.77345         7.29171        -0.79730
C         -6.33371         9.20331        -0.40972
C         -5.00739         9.90621        -0.39007
C         -3.66579         9.25814        -0.54296
C         -2.36957         9.99500        -0.72630
C         -1.21993         9.41876        -0.29889
C          0.05675        10.24560        -0.21901
C          1.35222         9.45252        -0.31918
C          2.50181        10.07909        -0.68114
C          3.81398         9.38578        -0.81313
C          5.14529        10.06064        -0.85392
C          6.28467         9.34843        -0.95907
C        -10.71956        -1.03734        -1.24516
C        -10.17405        -1.48474         0.10757
C         -8.85380        -0.72580         0.35180
C         -7.57014        -1.50572         0.64382
C         -6.24503        -0.84954         0.15112
C         -4.98753        -1.54555         0.60128
C         -3.73815        -0.79127         0.88311
C         -2.55966        -1.45093         1.30149
C         -1.32034        -0.76522         1.33348
C         -0.01693        -1.49920         1.52046
C          1.30811        -0.80264         1.77712
C          2.67000        -1.61998         1.65785
C          3.87681        -0.81734         1.16448
C          5.10782        -1.53559         0.72753
C          6.36544        -0.80182         0.41854
C          7.52381        -1.52239        -0.25659
C          8.83184        -0.74379         0.08800
C         10.01995        -1.48617        -0.50329
C         11.18304        -0.65953        -0.82680
C        -10.06389        -2.98681         0.24762
C         -8.89348        -3.70215         0.38806
C         -7.57245        -2.98429         0.19627
C         -6.41800        -3.66547         0.95087
C         -5.15437        -2.85626         1.35719
C         -3.84863        -3.69624         1.31232
C         -2.55623        -2.94687         1.43856
C         -1.25573        -3.67330         1.16113
C         -0.02152        -2.84855         0.80632
C          1.27658        -3.69744         0.99221
C          2.51560        -2.86213         0.77551
C          3.71431        -3.63408         0.39246
C          5.03687        -2.95633         0.31040
C          6.32527        -3.71460         0.44016
C          7.61479        -2.96397         0.24154
C          8.85378        -3.69461        -0.19443
C          9.97695        -2.84027        -0.69696
C         -8.85605        -5.12876         0.37469
C         -7.63518        -5.87026         0.37162
C         -6.40085        -5.15160         0.81585
C         -5.10109        -5.84620         0.70447
C         -3.87156        -4.97173         0.48538
C         -2.57190        -5.72323         0.34429
C         -1.28853        -5.10384         0.63362
C         -0.09763        -5.58118        -0.14903
C          1.26692        -4.87255        -0.04586
C          2.42458        -5.84899         0.18033
C          3.75163        -5.13895         0.38832
C          4.97458        -5.82524        -0.01796
C          6.28220        -5.19180         0.14388
C          7.50560        -5.81939        -0.41312
C          8.68275        -5.12358        -0.55504
C         -7.57488        -7.23924         0.17662
C         -6.26955        -7.96229        -0.04606
C         -5.06281        -7.15469         0.36812
C         -3.73963        -7.81908         0.27636
C         -2.64280        -7.02192        -0.40367
C         -1.34020        -7.77355        -0.40044
C         -0.13887        -6.98926        -0.71116
C          1.14620        -7.67357        -1.19979
C          2.44079        -7.13909        -0.56469
C          3.60964        -7.80103        -0.78950
C          4.91635        -7.31776        -0.17284
C          6.16720        -7.88263        -0.81404
C          7.34602        -7.19106        -0.87120
C         -6.16014        -9.39065         0.45592
C         -4.97601       -10.02356         0.53744
C         -3.67491        -9.32368         0.34256
C         -2.46822        -9.95244        -0.18256
C         -1.30863        -9.18345        -0.39246
C         -0.02811        -9.83874        -0.67391
C          1.10366        -9.18262        -1.01950
C          2.39372        -9.95983        -1.22988
C          3.60520        -9.07926        -1.61536
C          4.89326        -9.85893        -1.50385
C          6.07610        -9.27102        -1.23694
O          3.02738        -5.83829         1.49020
O         -0.47677        -5.80253        -1.54511
O         -1.40182         8.68197         1.89422
O         -2.88270         6.74466         1.61873
O          6.37622        -4.63285         1.54704
O          1.34391         4.14598        -0.68991
O         -4.73242         5.13897         1.54420
O          0.51467        -1.31675         2.87395
O         -6.75684        -4.49266         2.10103
O          0.77839         0.72395         0.03966
O         -1.03035        -4.77013         2.04847
O         -5.40530        -1.60446        -0.79718
O          4.37185         2.12714        -0.40325
O          6.15494        -1.26780         1.76728
O         -9.01780         0.34091         1.35705
O         -0.65914         2.87098        -0.63634
O          2.58125         6.12761        -1.02312
O         -5.53536         7.59109        -1.93097
O         -3.18728        -3.61155         2.58678
O          8.59011        -3.34262         1.24180
O          6.09082         4.86747        -1.48733
O         -3.86662         0.80818        -0.98012
O         -6.89147         0.86025        -1.55358
O          4.32646        -3.16203        -0.93934
O          3.76265         8.31246        -1.82009
O          4.75188         5.81264         1.81686
O         -6.15515         5.27043         1.10653
O          3.37711         1.13758         2.46146
O         -3.34972        -8.43654         1.52157
O          0.98719         7.91309         1.58339
O          8.21388         3.51287        -0.93036
O         -2.18998         1.27197         2.37963
O         -6.15389        -8.08399        -1.50854
H         -6.16489        -7.18046        -1.89034
O          5.61058         8.06581         1.22987
H          5.19351         7.61897         2.00007
O         -7.62332         3.04507         1.29143
H         -7.32502         3.95374         1.54166
O         -9.23490         2.26622        -2.80582
H         -8.33234         1.88862        -2.72519
O          1.30576        -4.21655         2.32687
H          1.58161        -3.48890         2.93437
O         -4.22757         9.52581         0.79264
H         -2.32535         9.00438         1.98653
O          0.04428        11.30366        -1.17302
H          0.07680        10.91289        -2.07025
O         -7.38046        -3.13068        -1.22350
H         -6.49175        -2.77604        -1.47264
O         -1.29187         5.24934        -1.25194
H         -0.56109         4.66631        -1.58406
O          1.55808        -4.34284        -1.35009
H          0.87330        -3.66080        -1.55523
O          6.76426         3.90753         1.83483
H          6.01534         4.20484         2.40612
O          5.97480         0.56552        -1.39449
H          5.41330         1.34622        -1.63479
O         -0.17723        -2.48529        -0.59577
H          0.28598        -1.63465        -0.76457
O         10.38160         1.31522         1.53896
H         10.08235         0.41841         1.82771
O          4.13795         3.68491         2.80677
H          3.53582         4.29666         3.27820
O         -6.11192         3.39866        -2.06822
H         -6.09417         2.43563        -2.28636
O          2.74122       -10.64659        -0.02431
H          1.96129       -11.14174         0.29868
O         -5.31174        -2.44941         2.72128
H         -5.68017        -3.21628         3.21472
O          4.93531        -7.81019         1.21084
H          4.20692        -7.34878         1.69557
O          7.32307        -1.66927        -1.66901
H          6.82891        -0.88549        -2.00692
O          2.94098        -2.05007         3.02184
H          3.85844        -2.39416         3.06603
O          8.89347        -0.76350         1.52883
H          8.93723        -1.71197         1.81494
O         -2.55167         7.70755        -1.99419
H         -2.16711         6.79703        -2.03952
O          8.88179         0.80609        -1.81097
H          7.96465         0.80100        -2.15979
O        -11.14096        -1.04011         1.09810
H        -10.72383        -1.12724         1.98173
O          3.51185        -8.73121        -3.01484
H          2.69195        -8.18857        -3.14324
O          1.20831        -7.41104        -2.62747
H          0.97571        -6.45878        -2.74381
O        -11.02603         1.67614         0.28159
H        -11.21236         0.85636         0.80395
O         -7.51966        -1.56028         2.08020
H         -7.82292        -0.68939         2.42650
O          6.02124         7.42279        -2.33866
H          6.01386         6.43638        -2.38307
O         -4.12477        -4.44276        -0.87628
H         -3.94051        -5.19232        -1.50452
O         -3.07042        -6.78713        -1.80717
H         -2.27608        -6.42383        -2.26634
H         12.04506        -1.17363        -1.28312
H         12.20147         1.19472        -0.82758
H         11.21131         3.34911         0.56939
H          9.87425         5.65546         1.04295
H          8.44543         7.81695        -1.51262
H          7.24361         9.88545        -1.02928
H          5.17787        11.16088        -0.83475
H          2.44609        11.14330        -0.96284
H          0.04721        10.72830         0.79838
H         -2.34965        11.00496        -1.16557
H         -5.05367        11.01151        -0.52949
H         -7.09230         9.60410         0.27908
H         -8.68411         7.43895        -1.16377
H         -9.49050         5.32283        -1.59918
H        -10.66283         3.19557        -1.64758
H        -11.08987         0.56351        -2.58333
H        -11.19241        -1.78882        -1.89510
H        -11.02331        -3.52831         0.27226
H         -9.80549        -5.67841         0.27543
H         -8.49968        -7.78731        -0.06508
H         -7.09116        -9.94539         0.64866
H         -4.94256       -11.08648         0.82508
H         -2.44678       -11.03653        -0.36364
H         -0.00431       -10.93752        -0.58499
H          2.23077       -10.71484        -2.05521
H          4.86253       -10.91582        -1.80710
H          7.01138        -9.84663        -1.31715
H          8.22898        -7.68415        -1.30713
H          9.53559        -5.63258        -1.03142
H         10.84415        -3.35227        -1.14435
