         651
 CSIRO Nanostructure Databank - Neutral Graphene Oxide Data Set
C          5.68806        31.87539        -0.52178
C          5.88324        33.18436        -0.18801
C          8.42880        27.59564        -1.28641
C          8.42199        29.11762        -1.08777
C          7.05572        29.77621        -1.12224
C          8.53805        31.81630         0.40426
C          6.69328        30.82700        -0.34055
C          8.38806        33.23992         0.34717
C          7.12078        33.91242         0.15061
C          8.34782        36.14667        -0.05522
C          7.09946        35.29868         0.06266
C          8.31600        37.56232         0.49832
C         10.90431        23.36878        -0.41748
C         10.94270        24.77011        -0.51706
C          9.73703        25.57279        -0.71865
C         11.03384        27.68224        -1.27842
C          9.75033        26.89774        -1.01118
C         10.99245        29.03426        -0.52848
C          9.67825        29.78211        -0.58711
C         10.93935        31.92457        -0.19392
C          9.66667        31.15480        -0.01902
C         10.87056        33.29873         0.42986
C          9.59501        34.00599         0.38924
C         10.81951        36.12273         0.57810
C          9.56377        35.39167         0.38981
C         10.79793        37.60711         0.73725
C          9.47450        38.29186         0.73425
C         10.71646        40.41108         1.16557
C          9.50829        39.70744         0.92697
C         10.78992        41.81887         1.16844
C         13.34280        19.02710        -0.66749
C         13.31811        20.44785        -0.53353
C         12.11074        21.17810        -0.44837
C         13.34807        23.28642        -0.20976
C         12.10181        22.59751        -0.35976
C         13.37575        24.71497        -0.21055
C         12.18443        25.44179        -0.46092
C         13.51330        27.58721        -0.48068
C         12.33905        26.81130        -1.08331
C         13.45899        29.05259        -0.15575
C         12.11712        29.69784        -0.12903
C         13.34871        31.87424         0.42200
C         12.04770        31.09302         0.47994
C         13.30107        33.27148         0.89731
C         12.00950        33.92115         0.87004
C         13.12832        36.06869         1.71714
C         11.92668        35.35342         1.22082
C         13.14893        37.55144         1.63257
C         11.97264        38.27947         1.35625
C         13.08102        40.40820         1.92474
C         11.93858        39.69098         1.46098
C         13.19315        41.86071         1.81051
C         11.98159        42.57193         1.39641
C         12.83823        44.96138         1.26365
C         11.87777        43.95124         1.01912
C         13.12880        46.15732         0.61905
C         15.88187        14.78431        -1.58245
C         15.77414        16.09829        -0.94506
C         14.52713        16.89182        -0.92582
C         15.84563        19.00629        -1.06652
C         14.53695        18.27626        -0.80624
C         15.83212        20.48662        -0.73066
C         14.56139        21.16874        -0.46736
C         15.79982        23.19863         0.21068
C         14.57069        22.54414        -0.18496
C         15.78488        24.63880         0.37924
C         14.61381        25.39992         0.04255
C         15.74487        27.51636         0.61964
C         14.63961        26.82846         0.10102
C         15.76410        28.94629         0.87499
C         14.60486        29.65526         0.57276
C         15.79944        31.80845         1.16380
C         14.63572        31.11100         0.62032
C         15.70720        33.18963         1.33263
C         14.46666        33.92465         1.26950
C         15.64902        36.16925         1.83901
C         14.41772        35.28811         1.98518
C         15.60669        37.51653         2.09458
C         14.30777        38.22265         2.09840
C         16.02544        40.57261         2.24446
C         14.13927        39.58925         2.40521
C         15.74601        41.78646         1.57516
C         14.49884        42.47925         1.69887
C         15.71665        44.60931         0.99367
C         14.66852        43.90961         1.60872
C         15.69308        46.01546         0.71302
C         14.43867        46.80594         0.74252
C         15.86762        48.87005         0.74612
C         14.52582        48.17869         0.71265
C         15.80645        50.33940         0.40801
C         18.47760        10.73251        -2.61195
C         18.43379        12.09542        -2.26219
C         17.19304        12.76164        -2.12386
C         18.37887        14.85578        -1.55846
C         17.09818        14.11574        -1.72515
C         18.36387        16.25647        -1.05785
C         17.06100        16.84227        -0.63169
C         18.26923        18.93546        -0.14884
C         17.06583        18.30079        -0.52657
C         18.29775        20.31979         0.12786
C         17.12050        21.14289        -0.19415
C         18.13001        23.06233         1.08422
C         16.96988        22.46872         0.41269
C         18.13450        24.58377         1.17011
C         16.97717        25.30561         0.65414
C         18.21293        27.43893         1.19531
C         16.99974        26.76346         0.67159
C         17.96987        28.65470         2.05796
C         16.95076        29.63651         1.42685
C         18.15052        31.88339         1.86829
C         16.98682        31.04134         1.51421
C         18.18946        33.23846         1.65930
C         16.95268        33.97844         1.37167
C         18.24748        36.17645         1.73458
C         16.92414        35.47428         1.52828
C         18.23267        37.54580         2.32201
C         16.91203        38.25602         2.32257
C         18.16570        40.13321         1.09794
C         17.02533        39.68010         1.92776
C         18.08903        41.54555         0.59488
C         16.80878        42.32702         0.72071
C         18.10145        44.48077         0.05402
C         16.81024        43.80199         0.40578
C         18.11698        45.95940         0.12464
C         16.89169        46.64602         0.25873
C         18.18722        48.79173        -0.29435
C         16.82038        48.09938        -0.19419
C         18.22170        50.27865        -0.16766
C         16.94936        51.01792         0.05715
C         18.25155        53.12026        -0.35417
C         17.03202        52.41224        -0.21446
C         18.11711        54.43864        -0.93231
C         20.97526         6.52625        -3.07291
C         20.99203         7.92914        -3.02093
C         19.75867         8.66569        -3.02918
C         20.95661        10.81548        -2.74691
C         19.69942        10.03542        -2.79279
C         20.93318        12.15005        -2.13284
C         19.68401        12.79726        -1.96007
C         20.85376        14.80591        -1.13946
C         19.65965        14.12759        -1.51328
C         20.82321        16.13379        -0.57214
C         19.57609        16.85249        -0.45579
C         20.64005        18.69940         0.77771
C         19.47650        18.12578         0.07887
C         20.63186        20.14343         1.18835
C         19.28860        20.86644         1.14236
C         20.63417        23.06193         1.23580
C         19.42968        22.37002         1.07306
C         20.64347        24.51771         1.32989
C         19.44082        25.25112         1.27678
C         20.63817        27.35309         1.62250
C         19.44603        26.64641         1.41935
C         20.53762        28.73274         2.06635
C         19.30984        29.18856         2.46323
C         20.64760        31.78854         2.12352
C         19.39705        31.35098         2.41866
C         20.75803        33.18782         1.58223
C         19.47490        33.94569         2.07298
C         20.79405        36.12970         2.07843
C         19.52828        35.41778         1.75972
C         20.80259        37.49490         2.07548
C         19.56195        38.34860         2.32089
C         20.65560        40.14713         0.99943
C         19.50372        39.52717         1.36266
C         20.59143        41.49516         0.36314
C         19.38092        42.32756         0.73586
C         20.68554        44.41813         0.15681
C         19.38968        43.70041         0.09061
C         20.68597        45.91177         0.35575
C         19.37622        46.63725         0.04574
C         20.70320        48.72928        -0.08839
C         19.44217        48.02498        -0.09243
C         20.72720        50.24626        -0.27881
C         19.48648        50.97863         0.30633
C         20.78136        53.12448        -0.08004
C         19.51356        52.47791        -0.04813
C         20.96253        54.53110        -0.14897
C         19.00953        55.49530        -0.78675
C         20.20327        57.52574        -1.56470
C         19.08945        56.65025        -1.59861
C         20.53460        58.49659        -2.50007
C         23.29634         3.62419        -2.75389
C         22.13501         4.34796        -2.93780
C         23.40818         6.44326        -2.70380
C         22.16168         5.77166        -2.91408
C         23.43501         7.87892        -2.64278
C         22.24602         8.59795        -2.82762
C         23.48224        10.74070        -2.26186
C         22.28506        10.06678        -2.78884
C         23.40262        12.09208        -1.87147
C         22.13900        12.79738        -1.78927
C         23.32116        14.80438        -0.92427
C         22.10560        14.13284        -1.27607
C         23.28107        16.12894        -0.40851
C         22.02534        16.76056        -0.19496
C         23.24121        18.82209         0.66976
C         21.99295        18.02646         0.56054
C         23.22371        20.21375         0.95667
C         21.94011        20.90275         1.25557
C         23.11740        23.09523         1.22587
C         21.90480        22.38164         1.22539
C         23.11410        24.53027         1.37127
C         21.87310        25.23331         1.44085
C         23.10941        27.37227         1.72662
C         21.87822        26.65726         1.59317
C         23.08008        28.85969         1.82022
C         21.77644        29.56277         2.04526
C         23.26348        31.59321         2.37996
C         21.83795        30.98511         2.61580
C         23.28073        33.12370         2.48280
C         21.99045        33.88551         2.17437
C         23.28205        36.09538         2.43967
C         22.08564        35.36438         1.79692
C         23.24662        37.52067         1.88497
C         22.05989        38.19667         1.83044
C         23.18061        40.27454         0.85716
C         21.98546        39.69896         1.59881
C         23.12656        41.51301         0.30777
C         21.85134        42.23960         0.10270
C         23.14861        44.41195        -0.05730
C         21.86527        43.72598         0.08795
C         23.15509        45.80241        -0.19070
C         21.84863        46.54414        -0.39778
C         23.18882        48.69387        -0.19896
C         21.90131        48.02900        -0.11163
C         23.23276        50.07637        -0.22048
C         22.02397        50.85360         0.25463
C         23.27796        52.99063        -0.67880
C         22.06090        52.35148        -0.04140
C         23.20015        54.37330        -1.14660
C         22.13911        55.16441        -0.68497
C         23.19832        57.19146        -1.70252
C         22.16337        56.57307        -0.98773
C         23.08557        58.54635        -2.25051
C         21.82773        59.13316        -2.62398
C         23.03200        61.02451        -3.61692
C         21.84678        60.37008        -3.31830
C         24.52733         4.28721        -2.56561
C         25.93861         6.34950        -2.43200
C         24.59345         5.67668        -2.54806
C         25.86957         7.83343        -2.15286
C         24.67501         8.57280        -2.35109
C         25.92439        10.66720        -1.84978
C         24.69979         9.98995        -2.15072
C         25.85028        12.08910        -1.64229
C         24.60077        12.77105        -1.49155
C         25.78375        14.80346        -0.68150
C         24.57689        14.12679        -1.05397
C         25.74141        16.12598        -0.17815
C         24.49142        16.80922        -0.02553
C         25.72598        18.81594         0.94664
C         24.46247        18.14564         0.44809
C         25.70495        20.31619         0.77765
C         24.42569        20.98331         0.92469
C         25.57253        23.18229         0.97625
C         24.37531        22.40730         1.06830
C         25.55914        24.56621         1.17477
C         24.32952        25.25490         1.41596
C         25.56977        27.40346         1.78102
C         24.32054        26.68359         1.63457
C         25.59327        28.84063         2.31789
C         24.31363        29.67850         2.17118
C         25.51776        31.71798         1.37287
C         24.33768        31.02835         1.46602
C         25.56849        33.22090         1.29537
C         24.50031        33.91722         2.12283
C         25.76319        35.99229         1.72124
C         24.54563        35.30274         2.11403
C         25.79514        37.45990         1.56608
C         24.50636        38.23047         1.58167
C         25.68224        40.11564         0.40129
C         24.38342        39.38425         0.60627
C         25.62896        41.42985        -0.22519
C         24.30622        42.17603        -0.29690
C         25.58794        44.28977        -0.49014
C         24.36485        43.64824        -0.27386
C         25.69690        45.76916        -0.21270
C         24.38482        46.52097        -0.30465
C         25.71839        48.61494        -0.19642
C         24.41048        47.90772        -0.30219
C         25.75213        50.08725        -0.48687
C         24.44044        50.73303        -0.75933
C         25.73872        52.84525        -1.36507
C         24.43713        52.16590        -1.12931
C         25.65887        54.18759        -1.96051
C         24.32920        54.96910        -1.86588
C         25.60723        57.05692        -2.31091
C         24.38630        56.43178        -1.97718
C         25.63617        58.57171        -2.34231
C         24.28688        59.18992        -2.64468
C         24.25679        60.42868        -3.29004
C         27.02011         8.47708        -1.71753
C         28.32370        10.39038        -0.99328
C         27.11241         9.88951        -1.57056
C         28.74155        11.72838        -1.09512
C         27.00425        12.89056        -1.56594
C         28.28074        14.67409        -0.43715
C         27.05299        14.14368        -0.90698
C         28.21294        16.01521         0.15007
C         26.97200        16.80434         0.12766
C         28.22322        18.90927         0.45031
C         26.99745        18.15691         0.47525
C         28.18283        20.36933         0.49369
C         26.89069        21.01998         0.63531
C         28.11374        23.28034         0.53869
C         26.82784        22.49981         0.56183
C         28.09515        24.68900         0.98430
C         26.77285        25.41153         0.86360
C         28.04411        27.40534         1.76381
C         26.76218        26.76279         1.52996
C         28.06313        28.82255         1.95464
C         26.78815        29.52080         1.66666
C         28.04226        31.69389         1.67587
C         26.79841        30.97084         1.29814
C         28.11998        33.14184         1.62507
C         26.93290        33.85049         1.51406
C         28.18538        35.93531         1.08893
C         26.94583        35.28623         1.46931
C         28.15003        37.35301         0.74891
C         26.97540        38.08082         0.92154
C         28.12072        40.13608         0.08079
C         26.90998        39.46643         0.52091
C         28.08183        41.47720        -0.35716
C         26.86454        42.19432        -0.39877
C         28.05916        44.28544        -0.97426
C         26.81726        43.57796        -0.66528
C         28.07679        45.69147        -1.10522
C         26.78278        46.46845        -1.04033
C         28.21830        48.59894        -0.80986
C         26.98297        47.85440        -0.44436
C         28.18373        50.07557        -0.94968
C         27.00416        50.76864        -0.90971
C         28.18108        52.85835        -1.67738
C         26.94138        52.18090        -1.27947
C         28.11399        54.25023        -2.05016
C         26.90816        54.94654        -2.14232
C         26.81129        56.34407        -2.40099
C         29.61130        12.50860        -0.32741
C         30.72684        14.66600        -0.05368
C         29.53739        13.95129        -0.31374
C         30.79490        16.08866        -0.02536
C         29.53597        16.80581         0.27214
C         30.63376        19.01573        -0.15435
C         29.43450        18.25390         0.19957
C         30.65264        20.44897         0.17213
C         29.38041        21.10382         0.40812
C         30.57696        23.26311         0.59838
C         29.40715        22.55247         0.55323
C         30.54290        24.78125         0.62813
C         29.27173        25.35405         1.21458
C         30.49196        27.40067         2.11866
C         29.25782        26.73121         1.65908
C         30.52532        28.90992         2.42118
C         29.21166        29.55422         2.16807
C         30.89399        31.94407         2.28199
C         29.01483        30.96407         2.31727
C         30.68241        33.23911         1.67831
C         29.41730        33.82595         1.50393
C         30.54161        35.75926         0.30656
C         29.35731        35.18654         1.00067
C         30.54783        37.22768         0.02252
C         29.34420        38.03298         0.31706
C         30.63538        40.13894        -0.20406
C         29.34444        39.39346         0.04734
C         30.48973        41.29108        -1.18384
C         29.22954        42.08530        -1.06712
C         30.44850        44.23990        -1.52348
C         29.24975        43.55617        -1.22972
C         30.46738        45.65492        -1.58319
C         29.26411        46.37569        -1.40943
C         30.53465        48.55566        -1.78067
C         29.18483        47.85518        -1.75105
C         30.60573        49.92767        -1.66980
C         29.50487        50.78513        -1.08186
C         29.37795        52.17031        -1.65690
C         31.98248        16.79471        -0.10756
C         33.18112        19.04185         0.01325
C         31.99211        18.25381        -0.25854
C         33.13100        20.42990         0.11458
C         31.86002        21.12955         0.17443
C         33.05560        23.13896         1.09549
C         31.90162        22.63783         0.21413
C         33.13529        24.65772         1.16431
C         31.85350        25.42496         1.16158
C         33.09886        27.37936         2.37668
C         31.80043        26.66544         2.00899
C         33.05191        28.87751         2.27740
C         31.86301        29.60415         2.28323
C         32.93804        31.62947         1.04183
C         31.89398        31.04503         1.97550
C         33.21434        33.11762         1.42286
C         31.94736        34.03901         1.45975
C         33.09401        35.85117         0.22306
C         31.85014        34.97332         0.24990
C         33.07684        37.19486        -0.05559
C         31.83366        37.93227        -0.19533
C         33.04263        39.92440        -1.01991
C         31.82399        39.26712        -0.49864
C         33.03782        41.35765        -1.33858
C         31.74889        41.99692        -1.59746
C         32.99727        44.23213        -1.73840
C         31.70716        43.50644        -1.80587
C         32.94731        45.64655        -1.82089
C         31.72633        46.36531        -1.81395
C         31.71731        47.76860        -1.93173
C         34.35120        21.17242         0.28372
C         35.55608        23.23575         0.86086
C         34.37058        22.50512         0.69980
C         35.58356        24.58089         1.35266
C         34.39410        25.25559         1.66641
C         35.69592        27.39935         2.07140
C         34.44585        26.58680         2.38642
C         35.65663        28.89633         1.93634
C         34.35615        29.69926         2.13452
C         35.51260        31.52697         0.70547
C         34.24814        30.82744         1.09390
C         35.51486        32.98347         0.42208
C         34.34174        33.73060         0.60377
C         35.56958        35.77315         0.03794
C         34.34552        35.12060         0.32134
C         35.62870        37.24807         0.07440
C         34.32506        38.04140         0.13024
C         35.61048        40.03258        -0.94626
C         34.35820        39.23193        -0.82222
C         35.49956        41.40602        -1.28857
C         34.24722        42.07758        -1.46528
C         34.19153        43.50465        -1.66752
C         36.83701        25.28855         1.39119
C         38.08346        27.39604         1.36469
C         36.89371        26.65990         1.59211
C         38.07999        28.79344         1.21876
C         36.85305        29.54781         1.32723
C         38.00350        31.53030         0.43355
C         36.82234        30.86809         0.90823
C         37.96163        32.87541         0.00835
C         36.73103        33.62406         0.06132
C         37.98289        35.70398        -0.54558
C         36.75952        35.03673        -0.12016
C         38.00010        37.07064        -0.80529
C         36.88999        37.93886        -0.40271
C         36.82091        39.35945        -0.80915
C         39.26406        29.46668         0.79541
C         40.43185        31.47634        -0.06002
C         39.24619        30.80434         0.41564
C         40.39149        32.77677        -0.46498
C         39.16642        33.54084        -0.41565
C         39.15114        34.89553        -0.73659
O         21.26938        20.35664         2.48000
O         30.36952        27.93832         3.48173
O         18.46017        16.01633        -2.49773
O         31.65297        42.58722        -2.93690
O         33.67926        39.07011        -2.08662
O         28.15795        12.43406        -2.18352
O         14.19058        31.64829        -0.71637
O         28.06184        48.02390         0.52691
O         21.12519        57.35709        -0.49716
O         34.74454        30.61285        -0.24776
O         25.78827        49.58440         0.89535
O         28.89366        16.19153         1.43581
O         18.26925        49.66675        -1.50259
O         32.76781        25.51147         0.00819
O         24.17337        51.14851        -2.15967
O         19.22792        30.28621         3.31605
O         19.03810        35.99017         0.50753
O         18.69851        43.90341        -1.16266
O         17.97677        40.44240        -0.33762
O         32.31201        26.61939         3.37413
O         23.09435        52.95838         0.80768
O         28.58289        47.93683        -3.03289
O         12.05411        35.64437         2.66198
O         16.32979        42.84194        -0.57676
O         21.22277        17.85460         1.80840
O         19.93961        55.36653         0.27930
O         24.00471        30.55576         3.40199
O          9.26420        29.83952        -2.06297
O         30.22611        36.24336        -1.04941
O         17.80933        23.74948         2.34052
O         25.38494        38.31806         2.73536
O         24.79544        41.47793        -1.48022
O         19.73899        39.02761         3.55147
O         29.89890        31.59097         3.20020
O         13.74226        44.65529         2.32075
O         15.10136        40.18752         3.22500
O         22.38303        33.61254         3.53604
O          7.45570        31.03480         0.82426
O         27.36542        23.03645        -0.72027
O         31.22147        18.69703        -1.44664
O         26.76646        29.92929         0.25425
O         13.93508        28.58651        -1.47091
O         16.91680        34.87296         0.18879
O         11.17214        36.99091        -0.56894
O         21.05824        41.63004        -1.00105
O         36.03507        28.26422         3.20730
O         17.51614        37.73819         3.56660
O         22.35405        29.48626         0.70244
O         24.73120        54.25479        -3.09268
O         29.52851        41.20942        -2.24963
O         17.96485        27.52070        -0.23134
O         21.73489        10.73182        -3.98514
O         36.57835        37.74040         1.07745
O         16.73698        21.20062        -1.63180
O         16.39794        16.10343         0.44108
O         26.63616        59.04062        -3.24872
H         26.38531        58.76240        -4.15324
O         14.41890        34.91639         3.39391
H         13.47556        34.90834         3.68453
O         26.66789        25.69983        -0.57528
H         26.84582        24.84869        -1.04709
O         25.21825        33.56053        -0.09320
H         25.77768        33.01374        -0.68541
O         22.05650        50.72760         1.70308
H         22.75766        51.34183         2.02239
O         17.31069        28.16303         3.26437
H         17.42916        28.84455         3.96122
O         26.31408        46.65948        -2.38851
H         27.07900        47.09523        -2.88578
O         21.69308        30.89356         4.04973
H         21.91601        31.77822         4.42033
O         19.49447        42.62085         2.16359
H         19.80243        41.80986         2.63095
O         16.01291        18.89933        -2.51814
H         16.57295        19.66470        -2.79067
O         20.83030        33.16283         0.16051
H         21.18943        34.02752        -0.15805
O         29.96561        50.98522         0.31679
H         29.68694        50.19721         0.83356
O         21.54355        46.43286        -1.81406
H         22.33461        46.70097        -2.32748
O         23.08306        36.17504         3.85912
H         23.69869        36.84957         4.21463
O         19.48595        33.95227         3.52357
H         19.65881        33.04379         3.85429
O         16.22742        48.06361        -1.50565
H         16.73520        48.68570        -2.07671
O         33.74078        33.05175         2.76661
H         33.99096        33.96136         3.03665
O         21.99685        40.29837         2.92738
H         21.22283        39.86239         3.41474
O         32.74428        22.71066         2.44712
H         33.53807        22.84566         3.00629
O          8.53448        36.35043        -1.51752
H          9.46664        36.66077        -1.63056
O         31.84098        34.17437        -0.94233
H         31.39058        34.70533        -1.63821
O         32.06861        34.93148         2.60032
H         31.90713        34.40583         3.41313
O         32.39422        31.56269        -0.27948
H         33.14209        31.38069        -0.89673
O         34.52469        30.40164         3.38721
H         34.87873        29.74894         4.03316
O         11.73659        30.95685         1.88809
H         10.79878        30.67903         1.97270
O         34.20319        38.60901         1.46384
H         35.10866        38.57901         1.86006
O         20.77100        50.50289        -1.69619
H         19.95261        50.11661        -2.09502
O         34.68701        26.17014         3.76728
H         33.80754        25.98212         4.17179
O         25.89261        28.74568         3.73017
H         25.41214        29.46994         4.19176
O         19.43327        50.85961         1.74144
H         20.35215        50.95718         2.09776
O         30.98307        40.82572         1.05208
H         31.19276        40.14466         1.72683
O          7.42600        27.01941        -0.44821
H          6.60702        27.55006        -0.53993
O         11.04178        28.02518        -2.68274
H         10.36396        28.73272        -2.82627
O         26.14349        45.86232         1.17192
H         25.41573        45.55955         1.75391
O         18.65129        20.60171         2.43363
H         19.37146        20.61981         3.10628
O         20.93785        46.13543         1.77232
H         20.30730        45.59586         2.29416
O         24.07488        38.73445        -0.67484
H         24.10354        39.44069        -1.36418
O         22.27756        35.38747         0.35779
H         22.28059        36.32111         0.05228
O         12.80985        26.43454        -2.40036
H         12.99279        27.27236        -2.88357
O         11.24530        32.09741        -1.59202
H         10.74596        31.43055        -2.11089
O         25.72027        18.60908         2.40841
H         25.73521        17.64191         2.57187
O         32.20149        23.07983        -1.14190
H         31.55507        22.65784        -1.74685
O         26.75482         5.68677        -1.45578
H         26.29715         5.73446        -0.59177
O         16.44158        48.73853         2.08221
H         15.90102        49.27022         2.70284
O         30.43198        25.18748        -0.76531
H         31.30773        24.99368        -1.18112
H          4.71629        31.59524        -0.95884
H          5.02381        33.85263        -0.36806
H          8.15467        27.40380        -2.37054
H          6.48270        29.57073        -2.04063
H          6.13950        35.79528        -0.15282
H          7.35149        38.09483         0.48869
H          9.93649        22.84978        -0.48951
H          8.76588        25.06319        -0.62283
H          8.57417        40.28021         0.82067
H          9.87976        42.38027         0.90451
H         12.38618        18.48357        -0.62823
H         11.15397        20.63971        -0.52084
H         10.99175        44.22785         0.42661
H         12.39623        46.61409        -0.06265
H         14.95698        14.29249        -1.92153
H         13.56672        16.35255        -0.90599
H         13.60605        48.78384         0.71699
H         14.86363        50.88994         0.55572
H         17.53183        10.18501        -2.74223
H         16.26782        12.19319        -2.30286
H         16.09401        52.97904        -0.31752
H         17.22681        54.60517        -1.55775
H         20.01851         6.00094        -3.21049
H         18.82001         8.09708        -3.11245
H         18.36488        56.75992        -2.41763
H         19.76233        58.80559        -3.22086
H         23.27011         2.52569        -2.76563
H         21.17635         3.83432        -3.09847
H         23.01250        61.99451        -4.13256
H         20.88788        60.81974        -3.61369
H         25.44983         3.70451        -2.43381
H         26.47160         6.21877        -3.41686
H         25.95542        58.91916        -1.31745
H         25.20442        60.91651        -3.55768
H         27.91195         7.86721        -1.51020
H         28.94361         9.67925        -0.42639
H         29.05744        54.78257        -2.24598
H         27.73410        56.91233        -2.59308
H         30.36609        12.02762         0.31213
H         31.67285        14.10423        -0.04163
H         31.59361        50.41403        -1.74625
H         30.30193        52.68685        -1.96023
H         32.94140        16.25553        -0.13162
H         34.13114        18.51818         0.19616
H         33.89183        46.20792        -1.89656
H         32.68046        48.29106        -2.05700
H         35.30492        20.65102         0.11073
H         36.51199        22.76382         0.58793
H         36.42342        41.99443        -1.39232
H         35.14419        44.05615        -1.68659
H         37.74679        24.75264         1.08230
H         39.01224        26.84448         1.15416
H         38.89106        37.52673        -1.26231
H         37.76566        39.88866        -1.00624
H         40.20173        28.89484         0.72863
H         41.37624        30.91345        -0.08944
H         41.30524        33.27776        -0.81677
H         40.08111        35.38231        -1.06690
