         661
 CSIRO Nanostructure Databank - Neutral Graphene Oxide Data Set
C          5.86269        31.65981        -0.34330
C          5.88141        32.97649         0.01804
C          8.26578        27.45767        -1.57425
C          8.29146        28.83096        -1.17400
C          7.07353        29.55851        -0.92193
C          8.31943        31.60973        -0.40834
C          7.08458        30.91496        -0.56242
C          8.35016        32.98961        -0.10603
C          7.11954        33.70604         0.15080
C          8.40166        35.76450         0.60426
C          7.16728        35.04799         0.51724
C          8.45195        37.11422         0.97391
C         10.67019        23.23558        -1.77078
C         10.67916        24.57686        -1.97620
C          9.43368        25.34198        -2.39442
C         10.68316        27.43757        -1.83957
C          9.45840        26.78442        -1.91225
C         10.83193        28.73404        -1.12110
C          9.52717        29.46769        -1.00104
C         10.78106        31.61023        -0.92625
C          9.60070        30.82889        -0.40065
C         10.80187        33.04335        -0.57150
C          9.57832        33.70324        -0.06281
C         10.85033        35.80989         0.19054
C          9.62941        35.08253         0.24131
C         10.90323        37.13304         0.71013
C          9.67735        37.82351         1.11069
C         10.68518        40.06018         1.84187
C          9.62021        39.19586         1.45748
C         10.62013        41.45051         1.63570
C         13.21830        19.29060        -0.13835
C         13.16710        20.56505        -0.64648
C         11.93425        21.23605        -1.00097
C         13.16257        23.18727        -1.92855
C         11.90573        22.51829        -1.49199
C         13.21720        24.63649        -2.07135
C         11.94808        25.35786        -1.69601
C         13.20427        27.47496        -2.27528
C         11.89094        26.72343        -2.36003
C         13.06170        28.96723        -2.51980
C         11.98839        29.58519        -1.63627
C         13.27932        31.67311        -1.31141
C         12.04677        30.90263        -1.27035
C         13.33214        32.99144        -0.77876
C         12.11378        33.66733        -0.18769
C         13.38802        35.76530        -0.11347
C         12.06438        35.16309        -0.49482
C         13.35414        37.02373         0.41714
C         12.18270        37.72202         0.79573
C         13.44996        39.89557         0.73541
C         12.69515        38.89378         1.58701
C         13.65116        41.14889         1.19267
C         11.77328        42.29599         1.68422
C         13.29049        44.19889         0.94210
C         11.99069        43.56437         1.16043
C         13.36425        45.57793         0.99616
C         15.61332        15.08503         1.18663
C         15.59855        16.53942         0.98125
C         14.42264        17.26494         0.55070
C         15.70802        19.32029         0.09880
C         14.46008        18.63088         0.22955
C         15.72981        20.72922        -0.32888
C         14.41920        21.35219        -0.72124
C         15.72507        23.31236        -1.70015
C         14.48896        22.51876        -1.63275
C         15.68922        24.62671        -2.18274
C         14.40604        25.32167        -2.26646
C         15.56117        27.46812        -3.07709
C         14.37871        26.79150        -2.39480
C         15.67471        28.98549        -2.77154
C         14.39424        29.73615        -2.47312
C         15.72559        31.63832        -1.54196
C         14.47565        31.03491        -1.75264
C         15.77346        32.92505        -0.88637
C         14.56121        33.64017        -0.60994
C         15.80994        35.57071         0.37424
C         14.63148        35.02207        -0.12114
C         15.83880        36.97107         1.09883
C         14.53079        37.78637         0.92841
C         15.86096        39.85438         0.12980
C         14.57151        39.09978         0.08721
C         15.80452        41.31003        -0.00423
C         14.78777        42.04464         0.84890
C         15.80917        44.21222         0.35654
C         14.47573        43.45185         0.29897
C         15.81223        45.62943         0.51090
C         14.56767        46.34047         0.77935
C         15.75278        48.52140         0.81736
C         14.57659        47.72504         0.97100
C         15.76802        49.88994         1.05927
C         18.09802        11.27081         2.88131
C         18.08996        12.37085         2.04965
C         16.86619        13.05393         1.78953
C         18.05487        14.96988         0.73898
C         16.80399        14.37001         1.27481
C         18.14993        16.40870         0.46824
C         16.97106        17.24671         0.67379
C         18.10780        19.15431        -0.42350
C         16.93788        18.60349         0.09951
C         18.24750        20.65533        -0.51570
C         16.96238        21.34728        -0.86322
C         18.21225        23.27910        -1.78305
C         16.96310        22.62851        -1.40665
C         18.16642        24.65045        -2.28124
C         16.93729        25.31036        -2.45349
C         18.20367        27.48724        -2.91759
C         16.90132        26.71230        -2.95255
C         18.20542        28.94974        -2.62683
C         16.96284        29.62631        -2.41526
C         18.18852        31.61428        -1.65514
C         16.96729        30.96807        -1.91151
C         18.21361        32.75221        -0.73167
C         16.97140        33.43170        -0.38086
C         18.32790        35.15405         0.79828
C         16.95173        34.54682         0.64218
C         18.32075        37.30887         1.00072
C         17.08052        37.79958         0.67377
C         18.30640        39.92528         0.14188
C         17.05539        39.17227         0.19956
C         18.31922        41.32139         0.06914
C         17.09794        42.09147        -0.10322
C         18.27619        44.22918         0.39275
C         17.03248        43.53511         0.24392
C         18.26432        45.65751         0.45997
C         17.02594        46.34701         0.46727
C         18.26488        48.56903         0.46411
C         16.95369        47.83441         0.19785
C         18.25282        50.03360         0.76628
C         16.95374        50.70685         1.00961
C         18.18263        52.82795         1.41934
C         16.96169        52.05531         1.31741
C         18.17495        54.19333         1.71200
C         21.05266         7.34129         3.67963
C         20.80971         8.71477         3.71767
C         19.54177         9.25893         3.45478
C         20.59918        11.44713         3.05946
C         19.34821        10.74639         3.52163
C         20.60835        12.52641         2.21544
C         19.38691        12.78541         1.36362
C         20.60120        14.95240         0.61612
C         19.34830        14.19070         0.77628
C         20.56658        16.23229         0.00871
C         19.31211        16.93296        -0.08668
C         20.56463        18.92212        -1.16041
C         19.26539        18.28917        -0.67909
C         20.59506        20.39719        -1.35968
C         19.45176        21.17106        -1.26530
C         20.63244        23.12803        -2.28056
C         19.40617        22.55339        -1.69176
C         20.65944        24.56198        -2.71043
C         19.41802        25.35954        -2.54735
C         20.69890        27.46384        -3.05660
C         19.45791        26.72593        -2.70148
C         20.68140        28.96350        -2.90972
C         19.42011        29.61429        -2.48651
C         20.75312        31.61661        -1.69751
C         19.45713        31.11006        -2.30021
C         20.75274        33.08098        -1.28230
C         19.53569        33.46603        -0.46259
C         20.72006        35.63328         0.23222
C         19.48998        34.83583         0.13638
C         20.77698        37.02748         0.43590
C         19.57425        37.86719         0.56621
C         20.82552        39.93865        -0.12829
C         19.55381        39.21350         0.23027
C         20.80187        41.40134         0.27186
C         19.50893        42.03686         0.65291
C         20.73161        44.21999         0.69804
C         19.50704        43.53224         0.48015
C         20.70351        45.65091         0.85394
C         19.50862        46.33710         0.69280
C         20.69128        48.53905         1.30574
C         19.43347        47.78693         0.98391
C         20.69095        50.01217         1.24591
C         19.49527        50.70990         1.21390
C         20.64916        52.85773         1.47397
C         19.45547        52.14576         1.34925
C         20.64175        54.27553         1.63302
C         19.38570        54.94056         1.85740
C         20.62271        56.96661         2.50259
C         19.40489        56.29184         2.25991
C         20.64811        58.27900         3.06833
C         23.65810         4.86128         4.73363
C         22.55269         5.35055         4.13698
C         23.15075         7.65547         4.96310
C         22.45011         6.83041         3.85702
C         23.17718         9.11097         4.54347
C         21.93704         9.63139         4.00013
C         22.94205        11.94598         3.79748
C         21.83447        10.94833         3.62009
C         23.01595        12.89549         2.61036
C         21.86148        13.22309         1.93015
C         23.03675        14.99950         0.64850
C         21.83065        14.38246         1.03075
C         23.05923        16.20640        -0.08233
C         21.80725        16.89652        -0.34560
C         23.05312        18.75080        -1.47090
C         21.81266        18.18646        -0.89166
C         23.11361        20.19493        -1.88444
C         21.91011        21.04648        -1.56901
C         23.21546        23.05302        -2.59651
C         21.93550        22.48926        -1.94828
C         23.25492        24.57549        -2.46873
C         21.99267        25.25067        -2.92340
C         23.35278        27.46869        -3.10178
C         22.00453        26.72423        -3.14639
C         23.25196        28.94435        -2.72646
C         21.98056        29.77054        -2.86499
C         23.22120        31.59655        -1.61842
C         21.93232        30.96577        -1.92398
C         23.24292        32.90415        -1.08570
C         21.97511        33.42259        -0.42775
C         23.26267        35.68665        -0.12651
C         21.99298        34.89395         0.01390
C         23.21860        37.16384        -0.03449
C         22.02470        37.76515         0.31014
C         23.26454        40.01565         0.22809
C         21.99731        39.25737         0.57132
C         23.24849        41.39515         0.34549
C         21.98034        42.09913         0.50159
C         23.22239        44.14788         1.32165
C         21.95842        43.49679         0.79961
C         23.21839        45.64527         1.15855
C         21.92087        46.33578         1.46949
C         23.16262        48.52866         1.13400
C         21.96341        47.82130         1.24508
C         23.15254        49.98866         1.22582
C         21.96321        50.67708         1.35922
C         23.21016        52.90755         1.52068
C         21.93256        52.13331         1.59863
C         23.09698        54.35384         1.09649
C         21.85318        55.00943         1.64018
C         23.11387        56.96318         2.46259
C         21.86619        56.32879         2.12328
C         23.02846        58.02643         3.33767
C         21.86003        58.83754         3.49112
C         23.21713        60.94806         3.74588
C         22.04740        60.21068         3.89607
C         24.71267         5.74896         5.20784
C         25.55334         8.02916         5.85119
C         24.51546         7.08552         5.29293
C         25.58526         9.32849         5.06211
C         24.30141         9.89841         4.65467
C         25.59203        11.90188         3.71896
C         24.28324        11.31536         4.19695
C         25.56624        12.90879         2.63576
C         24.28742        13.69966         2.38803
C         25.55927        14.95501         0.63122
C         24.28919        14.22026         0.94467
C         25.54128        16.15495        -0.12622
C         24.31725        16.75466        -0.50737
C         25.65866        18.73278        -1.44256
C         24.33506        17.98580        -1.31750
C         25.68461        20.21614        -1.57348
C         24.46867        20.88195        -2.21530
C         25.54324        23.14047        -1.37619
C         24.37785        22.36600        -1.86861
C         25.54360        24.66952        -1.35331
C         24.35473        25.28256        -2.10580
C         25.71518        27.40549        -2.25059
C         24.32876        26.80559        -2.06569
C         25.73543        28.85976        -2.70289
C         24.42455        29.58021        -2.43531
C         25.67492        31.62986        -1.74629
C         24.44040        30.96176        -1.97197
C         25.67847        32.96291        -1.27868
C         24.45571        33.60471        -1.00035
C         25.68520        35.76763        -0.51266
C         24.39672        35.10704        -0.94079
C         25.65243        37.24701        -0.73526
C         24.41519        37.94363        -0.30855
C         25.62777        40.14746        -0.68551
C         24.44894        39.32075        -0.17272
C         25.66142        41.50456        -0.03354
C         24.49501        42.14370         0.37556
C         25.67433        44.27097         0.77424
C         24.49056        43.51397         0.80070
C         25.67558        45.69173         0.82787
C         24.39966        46.37301         0.99695
C         25.62049        48.52398         0.65136
C         24.38904        47.80423         1.00318
C         25.60003        50.02069         0.65340
C         24.47672        50.69996         1.41487
C         25.62958        52.92113         1.06371
C         24.45432        52.19645         1.17928
C         25.66517        54.34077         1.24342
C         24.40940        55.11664         1.28050
C         25.76601        57.10208         2.24016
C         24.42514        56.47915         1.94840
C         25.89531        58.50251         2.53540
C         24.90225        59.19883         3.24612
C         24.48898        60.53847         3.25214
C         26.76750         9.90957         4.75040
C         27.78979        11.08694         2.74426
C         26.92860        11.21486         4.01712
C         27.94574        12.45404         2.12718
C         26.71230        13.20506         1.92645
C         28.01770        14.90407         0.63653
C         26.75640        14.35838         1.03239
C         28.05442        16.12254        -0.05620
C         26.81599        16.79761        -0.39336
C         28.13409        18.75439        -1.27429
C         26.85463        18.07666        -0.90723
C         28.10880        20.23768        -0.86203
C         26.80903        20.91900        -1.26068
C         28.10294        23.17266        -1.10983
C         26.81873        22.40252        -1.11637
C         28.08340        24.61635        -1.47476
C         26.89368        25.29036        -1.69014
C         28.20833        27.35714        -2.25215
C         26.88015        26.69989        -2.06139
C         28.24773        28.87382        -2.36642
C         26.96724        29.60318        -2.23967
C         28.22244        31.73282        -2.16029
C         26.94289        30.94423        -1.98862
C         28.15413        33.21416        -1.72056
C         26.99779        33.53148        -0.76732
C         28.21890        35.86096        -0.64552
C         26.97870        35.04331        -0.49958
C         28.21587        37.23291        -0.67008
C         26.94911        37.98606        -0.79081
C         28.16926        40.09423        -0.47403
C         26.96786        39.43749        -0.55960
C         28.17696        41.60129        -0.48265
C         26.95369        42.11937         0.23764
C         28.20288        44.33110         0.49152
C         26.95812        43.57149         0.65854
C         28.17740        45.71699         0.63155
C         26.91008        46.42033         0.72398
C         28.15314        48.56965         0.70113
C         26.91841        47.82667         0.66202
C         28.16474        49.98933         0.73705
C         26.91397        50.74676         0.56675
C         28.18574        52.90183         1.12737
C         26.91505        52.23507         0.76446
C         28.13044        54.27444         1.45129
C         26.90343        54.99788         1.49170
C         26.90474        56.37815         1.88498
C         29.14589        12.96352         1.73119
C         30.46834        14.76734         0.69471
C         29.25465        14.23422         1.02936
C         30.58474        15.95348        -0.22182
C         29.31665        16.76402        -0.33178
C         30.60046        18.83966        -0.76002
C         29.37341        18.07676        -0.76222
C         30.61519        20.21252        -1.01041
C         29.36015        20.95305        -1.45350
C         30.57529        23.11737        -1.05834
C         29.38472        22.43536        -1.15043
C         30.58319        24.57684        -1.19225
C         29.38506        25.28245        -1.51461
C         30.66473        27.37943        -1.71506
C         29.44083        26.66562        -1.80878
C         30.68749        28.83562        -1.82987
C         29.50346        29.56402        -2.01737
C         30.73583        31.68933        -1.74526
C         29.49437        30.98439        -1.89347
C         30.74588        33.08161        -1.45541
C         29.46243        33.70328        -1.10753
C         30.74801        35.89922        -0.76765
C         29.49609        35.14110        -0.63998
C         30.69524        37.29179        -0.74161
C         29.45413        37.99019        -0.62920
C         30.67483        40.13719        -0.39548
C         29.43729        39.39478        -0.51581
C         30.67973        41.54826        -0.09451
C         29.45774        42.23982         0.00828
C         30.66526        44.31017         0.54948
C         29.43385        43.61717         0.33327
C         30.64733        45.73568         0.70870
C         29.42095        46.44267         0.67386
C         30.63816        48.59361         0.81858
C         29.39822        47.86733         0.74223
C         30.60216        50.00816         0.91689
C         29.38350        50.72133         0.89304
C         29.36426        52.14608         1.09178
C         31.79708        16.81000         0.00053
C         33.04123        18.89405        -0.29939
C         31.82302        18.14949        -0.34307
C         33.07128        20.26914        -0.54477
C         31.82515        20.97368        -0.84021
C         33.04722        23.10097        -0.55870
C         31.81084        22.36847        -0.88758
C         33.05663        24.60545        -0.68564
C         31.80919        25.28485        -1.13499
C         33.12951        27.38034        -1.15459
C         31.84737        26.66541        -1.38093
C         33.16548        28.84884        -1.36046
C         31.91838        29.56005        -1.69535
C         33.24966        31.71335        -1.76700
C         31.95086        30.94689        -1.72723
C         33.17071        33.00691        -0.98966
C         31.93181        33.78142        -1.14833
C         33.24143        35.85360        -0.75933
C         31.97377        35.16809        -0.86984
C         33.24683        37.31050        -0.92779
C         31.92914        38.06884        -0.94056
C         33.15020        40.19812        -0.47624
C         31.90782        39.49769        -0.57904
C         33.19419        41.53852         0.00855
C         31.92986        42.22160         0.17807
C         33.08114        44.26745         1.14565
C         31.88172        43.58519         0.55531
C         33.10591        45.74451         0.86713
C         31.90477        46.45989         0.79702
C         31.86205        47.88191         0.81994
C         34.30041        20.97782        -0.50957
C         35.54348        23.10360        -0.57229
C         34.34379        22.38269        -0.57590
C         35.58574        24.52665        -0.72594
C         34.37012        25.26106        -0.86904
C         35.64668        27.31208        -1.23892
C         34.41758        26.63551        -1.14856
C         35.71680        28.73854        -1.71385
C         34.45896        29.53690        -1.52085
C         35.73423        31.59655        -1.26941
C         34.49211        30.90817        -1.47880
C         35.71685        32.95235        -0.71746
C         34.43814        33.72021        -0.62700
C         35.72707        35.92671        -0.58357
C         34.46325        35.19951        -0.64266
C         35.73930        37.37172        -0.54353
C         34.49219        38.06359        -0.69261
C         36.11577        40.39440         0.01799
C         34.34679        39.45613        -0.79562
C         35.69365        41.53018         0.70700
C         34.42562        42.21109         0.47267
C         34.35436        43.51912         0.92175
C         36.81737        25.22625        -0.78067
C         38.11766        27.34585        -1.00276
C         36.86886        26.61323        -1.02501
C         38.17731        28.73431        -1.10675
C         36.96538        29.48051        -1.32051
C         38.25313        31.63471        -1.38031
C         36.95534        30.87435        -1.24811
C         38.25342        33.06221        -0.89313
C         37.00384        33.73891        -0.57609
C         38.20360        35.88968        -0.41737
C         36.94843        35.20937        -0.53152
C         38.17345        37.27991        -0.15216
C         36.98381        38.04204        -0.18072
C         37.05445        39.38939         0.32300
C         39.41358        29.47753        -0.90347
C         40.68380        31.61778        -0.78317
C         39.46614        30.84744        -0.95577
C         40.69215        32.98294        -0.75712
C         39.45725        33.76377        -0.75227
C         39.42497        35.15229        -0.46706
O         24.49114        22.63967        -0.45649
O         24.14749        58.35893         4.09351
O         14.99285        21.65145         0.59304
O         24.39708        56.33686         0.46210
O         11.79299        39.47592         2.50336
O         18.39786        36.14321         1.77837
O         26.94459        51.66117        -0.59076
O         16.25195        41.81858        -1.28494
O         22.89773        54.19752        -0.39201
O         35.43756        40.19658        -1.21290
O         28.37032        28.01482        -3.56099
O         32.90044        23.96758         0.62953
O         32.61203        37.74104        -2.20193
O         23.28663        22.72025        -3.94034
O         13.85861        22.37245        -2.93759
O         17.63800        26.99928        -4.19095
O         14.99424        29.80124        -3.80577
O         26.18325        37.64595        -2.04717
O         33.60142        33.05785         0.39855
O         18.53458        49.51244        -0.60501
O         19.10456        32.45197         0.45534
O         22.95716        35.02653         1.13522
O         10.56403        32.62579        -1.97366
O         27.39482        22.84551         0.17599
O         12.89728        41.66302         2.25354
O         33.05602        28.27348         0.02469
O         22.79268        19.18405        -2.87480
O         25.29230        49.35504        -0.58170
O         22.09349        22.11313        -0.55760
O         29.47776        34.02672         0.31753
O         19.75154        48.05489         2.40104
O         27.14650        42.47141         1.63715
O         16.41767        17.21444         2.01410
O         20.48406        23.47787        -3.68696
O         19.65210        18.25980        -2.11271
O         25.09388        17.95414        -2.57005
O         18.53650        14.20199        -0.44530
O         13.92236        38.27578         2.22087
O         26.24956        35.35104         0.76134
O         28.64683        31.68787        -3.53494
O         22.00548        25.79708        -4.28347
O         25.01005        12.30433         5.02539
O         36.38531        33.03355         0.59473
O         20.51081        28.32357        -4.23221
O         22.68099        52.55500         2.84059
O         12.00244        25.57676        -0.25972
H         12.04205        24.70422         0.18464
O         20.77184        33.87224        -2.48547
H         20.30043        33.35870        -3.18934
O         27.22671        32.83849         0.47532
H         26.82670        33.38112         1.19106
O         24.82797        50.55002         2.83189
H         24.15275        51.06044         3.33889
O         19.47864        31.69087        -3.67529
H         20.24489        31.25952        -4.13870
O         23.21382        43.87817         2.77298
H         22.60379        44.54208         3.18048
O         19.53529        11.87908         0.23122
H         19.00784        12.26807        -0.50445
O         22.32265         7.54971         6.14964
H         22.74364         8.06440         6.86870
O         24.26697        13.02147         0.10758
H         24.17341        13.30694        -0.82556
O         11.88859        35.33503        -1.92346
H         11.21353        34.69315        -2.23649
O         12.21369        33.55443         1.25658
H         12.25399        32.60486         1.49592
O         33.41204        32.16811        -3.15445
H         33.21536        31.41542        -3.75147
O          9.95651        30.64657         1.05335
H          9.15683        30.28934         1.49818
O         21.83915        32.64109         0.78096
H         22.42966        33.04714         1.45433
O         23.83741        27.18511        -0.75308
H         24.35090        26.64271        -0.10060
O         28.01871        42.02957        -1.86857
H         28.67275        41.54857        -2.41742
O         25.32359        25.05619         0.04279
H         24.82647        24.31425         0.46265
O         25.39397        40.32638        -2.11301
H         25.48697        39.43195        -2.52309
O         27.67007        12.10594         4.88471
H         27.05855        12.36938         5.60719
O         22.28528        55.40707        -0.89588
H         23.01699        56.07265        -0.78871
O         28.21504        20.26524         0.57308
H         28.01606        21.19163         0.86000
O         27.15188        10.20596         1.80719
H         26.53818        10.72811         1.24952
O         25.88368        28.89588        -4.15129
H         26.76708        28.51003        -4.36733
O         27.92327        33.99346        -2.91037
H         28.20239        33.39179        -3.65757
O         14.31700        38.75641        -1.28826
H         14.48126        39.54838        -1.84215
O         21.74386        39.44088         1.99675
H         22.45584        38.98837         2.49639
O         22.04830        30.41894        -4.18211
H         22.08586        29.69423        -4.84811
O         22.50684        12.76514         4.93571
H         23.32730        13.08388         5.37997
O         24.69550        20.78340        -3.62456
H         24.03439        20.15792        -4.00324
O         11.25725        28.37589         0.25882
H         11.00937        29.14580         0.83164
O         23.15979         7.07648         2.60482
H         24.03455         6.63849         2.67269
O         14.06907        43.27996        -1.07914
H         14.01161        44.16400        -1.49657
O         23.93274        27.36661        -4.40432
H         23.51089        26.59487        -4.85518
O         15.45996        42.23782         2.12819
H         14.76073        42.30391         2.81758
O         12.54032        29.09173        -3.88114
H         13.34191        29.17886        -4.45773
O         21.03586        39.85491        -1.55846
H         20.26552        40.25829        -2.00978
O         19.20672        11.08863         4.95946
H         20.00484        11.58782         5.23882
O          8.25091        24.67844        -1.94988
H          8.27243        24.63273        -0.97230
O         15.97531        36.65903         2.50157
H         15.28938        37.16689         2.99183
O         16.73458        47.91348        -1.24527
H         15.83213        47.57783        -1.42706
O         19.41133        41.82055         2.12254
H         19.93851        41.01846         2.34153
O         21.69301        46.17450         2.93417
H         20.88944        46.71881         3.14084
O         35.82648        28.60870        -3.20309
H         36.22217        29.44287        -3.53898
O         32.87469        44.18067         2.62999
H         32.00609        44.59798         2.82010
O         15.16531        27.36310        -4.46751
H         15.99275        27.41159        -5.00292
O         29.30816        20.95548        -2.90532
H         29.08788        20.03541        -3.20267
O         18.54293        21.05228         0.88731
H         17.70067        21.00603         1.39105
O         24.13205        35.54663        -2.30006
H         24.86063        35.24233        -2.88177
O         16.61445        33.95947         1.93634
H         16.54783        34.72090         2.56223
O         28.19766        18.62127        -2.74085
H         27.28366        18.53485        -3.09227
O         30.78472        15.36782        -1.57514
H         30.74984        16.10941        -2.21755
O         38.39331        31.78763        -2.85661
H         39.29150        32.14823        -3.02301
O         26.83628         7.41845         5.91608
H         27.10798         7.16809         5.00969
O         11.67762        26.49255        -3.77962
H         11.86899        27.35577        -4.22754
O         24.28054        14.82816         3.29491
H         24.39265        14.47691         4.20418
H          4.90378        31.13264        -0.45553
H          4.93711        33.51064         0.20040
H          7.30554        26.92666        -1.64873
H          6.11223        29.03872        -1.04463
H          6.23080        35.58245         0.73840
H          7.51323        37.63567         1.21539
H          9.72975        22.66692        -1.84342
H          9.40032        25.34477        -3.51787
H          8.62934        39.67097         1.36258
H          9.70264        41.84736         1.17663
H         12.28846        18.70919        -0.04585
H         10.98690        20.71701        -0.78888
H         11.10618        44.17875         0.92393
H         12.47028        46.14019         1.31064
H         14.66224        14.58017         1.41449
H         13.48796        16.70504         0.39992
H         13.64597        48.22055         1.28945
H         14.82985        50.37740         1.37054
H         17.14560        10.93039         3.31907
H         15.94099        12.61721         2.19771
H         16.00839        52.56873         1.51788
H         17.21409        54.71182         1.85075
H         20.23019         6.64124         3.46680
H         18.70109         8.59489         3.20411
H         18.45569        56.80722         2.47025
H         19.70779        58.83936         3.17652
H         23.78894         3.77884         4.87606
H         21.77029         4.67772         3.75522
H         23.10586        62.03484         3.89693
H         21.13883        60.77595         4.15730
H         25.67113         5.31227         5.52638
H         25.26059         8.28240         6.91045
H         26.78111        59.03122         2.15106
H         25.14188        61.30930         2.81723
H         27.69617         9.42679         5.09456
H         28.78360        10.64933         3.00860
H         29.06211        54.80516         1.69828
H         27.88418        56.86358         2.01498
H         30.06918        12.39109         1.90964
H         31.39478        14.24798         0.98426
H         31.54793        50.56155         1.01638
H         30.32374        52.64886         1.28677
H         32.73485        16.31396         0.29585
H         33.97482        18.37015        -0.04489
H         34.05835        46.28860         0.95500
H         32.80669        48.44287         0.87836
H         35.23820        20.41240        -0.40015
H         36.49437        22.55269        -0.51329
H         36.31293        41.91690         1.53020
H         35.27038        43.98453         1.31779
H         37.75389        24.66851        -0.63011
H         39.04293        26.78216        -0.80807
H         39.12074        37.79491         0.06681
H         37.87069        39.61787         1.02509
H         40.32823        28.90683        -0.67620
H         41.63065        31.06822        -0.66733
H         41.64409        33.51958        -0.63151
H         40.37101        35.68617        -0.29423
