         320
 CSIRO Nanostructure Databank - Neutral Graphene Oxide Data Set
C         31.06164        31.88845         2.89384
C         31.19528        32.99667         2.38110
C         31.01589        36.24638         2.06684
C         30.94145        37.48336         2.04946
C         30.87263        40.59568         1.00157
C         30.43153        41.67793         0.47142
C         33.14101        29.35568         2.22432
C         32.17857        29.75736         2.85465
C         33.14146        31.74426         1.13299
C         31.08116        30.53341         3.47845
C         32.91803        33.15299         0.66208
C         31.92921        33.90755         1.54803
C         32.97665        36.04005         0.75040
C         31.88095        35.26996         1.46827
C         33.09348        37.54257         0.94065
C         32.13009        38.40701         1.85368
C         33.15658        40.39114         0.54588
C         31.93235        39.77763         1.24132
C         33.41245        41.83895         0.92882
C         30.32983        42.99375         0.08565
C         32.71328        44.08112        -0.35468
C         31.55690        43.69573        -0.23113
C         35.74057        27.40716         1.18839
C         35.54124        28.87946         1.36564
C         34.15204        29.48402         1.12788
C         35.38214        31.65681         0.12178
C         34.21894        31.00592         0.89672
C         35.50770        33.12798         0.53188
C         34.21660        33.91019         0.47157
C         35.38872        35.94088        -0.27373
C         34.21528        35.26288         0.43026
C         35.54992        37.41382         0.07111
C         34.44372        38.17932         0.70858
C         35.52204        40.31900        -0.23433
C         34.50346        39.70270         0.74454
C         35.47995        41.79479        -0.40754
C         34.39316        42.54369         0.27713
C         35.14332        44.51404        -1.09932
C         34.19440        44.02824         0.02298
C         35.40549        46.00406        -1.11696
C         37.88171        27.15566        -0.02458
C         36.74163        26.74931         0.88901
C         37.98396        28.70320         0.33610
C         36.59838        29.41907         0.20832
C         37.79716        31.56445        -0.65372
C         36.75314        30.95107         0.33044
C         37.83804        33.06604        -0.39232
C         36.71244        33.77078        -0.11841
C         37.83749        35.86424        -0.98244
C         36.77088        35.27891        -0.00904
C         37.91416        37.38446        -0.89556
C         36.59112        38.13183        -0.79258
C         37.82839        40.26559        -1.31936
C         36.84359        39.58783        -0.33628
C         37.93888        41.76355        -1.10793
C         36.79240        42.53963        -0.48725
C         37.71688        44.59261        -1.48881
C         36.61529        43.93809        -1.04856
C         37.74719        46.07323        -1.79162
C         36.38447        46.58604        -1.60155
C         40.48394        24.45876         0.65793
C         39.45909        25.16657         0.61688
C         40.39838        27.17638        -0.14856
C         39.23196        26.51930         0.16523
C         40.34956        28.56128        -0.72132
C         39.09432        29.36214        -0.49132
C         40.32899        31.51170        -0.66600
C         39.14908        30.86225        -0.52312
C         40.33961        33.02061        -0.89886
C         39.17076        33.76093        -0.22657
C         40.32558        35.88502        -0.81004
C         39.16511        35.21402        -0.67528
C         40.38396        37.31438        -1.32172
C         39.08083        38.06200        -1.09371
C         40.31456        40.21378        -1.32367
C         39.14446        39.52792        -1.21767
C         40.37463        41.68613        -1.69702
C         39.05917        42.41448        -1.47358
C         40.13629        44.58024        -0.81648
C         39.06850        43.91036        -1.70871
C         40.24431        46.09240        -0.99550
C         39.03135        46.82221        -1.55602
C         40.09368        48.80150        -0.63186
C         39.15573        48.24372        -1.20971
C         43.11768        24.41144         0.49742
C         41.82029        25.07272         0.89368
C         42.99509        27.33389        -0.01031
C         41.73569        26.45208        -0.21135
C         42.97044        28.63605        -0.79962
C         41.63595        29.30151        -1.16957
C         42.84052        31.52544        -1.17790
C         41.65354        30.74793        -0.58707
C         42.90135        32.99070        -0.83761
C         41.64201        33.71687        -0.50237
C         42.83386        35.97909        -0.71962
C         41.59245        35.24431        -0.29045
C         42.84643        37.33150        -0.77010
C         41.55401        38.10440        -0.65991
C         42.91672        40.28860        -1.25839
C         41.62403        39.50312        -1.26933
C         42.82178        41.72411        -0.84337
C         41.43371        42.35744        -0.76741
C         42.53833        44.50998        -0.10742
C         41.53224        43.89700        -1.03456
C         42.32023        45.90033         0.36463
C         41.31185        46.72121        -0.44456
C         42.28921        48.69327         0.76621
C         41.51254        48.35235        -0.49267
C         44.04372        25.19938         0.12272
C         45.42531        27.04819        -1.06284
C         44.25821        26.48550        -0.32417
C         45.46721        28.61843        -0.97643
C         44.13881        29.30702        -1.01670
C         45.38656        31.57118        -0.87638
C         44.14906        30.78803        -1.27027
C         45.44478        33.02500        -1.26376
C         44.12102        33.76639        -1.23323
C         45.32573        35.84975        -0.41047
C         44.09026        35.24515        -1.03993
C         45.34002        37.36068        -0.41061
C         44.15683        38.01602        -1.09537
C         45.36985        40.27234        -0.39194
C         44.20017        39.54491        -0.98148
C         45.26945        41.81317        -0.28482
C         43.84373        42.34102        -0.18889
C         44.85478        44.47655         0.80713
C         43.59713        43.66337         0.54034
C         44.79975        45.88200         0.92950
C         43.64985        46.64619         0.64046
C         43.36329        47.98538         0.83877
C         47.79226        27.28787        -0.24033
C         46.76970        26.65813        -0.50771
C         47.88053        28.72575         0.17548
C         46.71227        29.38896        -0.60536
C         47.99359        31.58250        -0.75363
C         46.65367        30.89317        -0.48182
C         47.97320        33.09426        -0.66972
C         46.73164        33.79343        -1.13964
C         47.79743        35.84357        -0.09239
C         46.64861        35.32979        -0.99521
C         47.73189        37.34518         0.16579
C         46.44771        38.03460         0.02528
C         47.57680        40.16121         0.98149
C         46.26955        39.45375         0.57276
C         47.41065        41.66754         0.93898
C         46.24267        42.33497         0.74292
C         47.21243        44.38627         2.01302
C         46.04095        43.70506         1.27703
C         47.08080        45.84842         1.87003
C         46.02053        46.38001         1.50968
C         50.46381        29.05561         0.24356
C         49.18313        29.48457         0.04194
C         50.17500        31.72567         0.47601
C         49.13616        30.94416         0.01353
C         50.30077        33.20845         0.28629
C         49.09561        33.80624        -0.39249
C         50.36814        36.03279        -0.18000
C         49.12208        35.31137        -0.70334
C         50.10644        37.16903         0.82822
C         48.87510        38.01491         0.49553
C         49.99926        40.21072         1.40225
C         48.91559        39.55386         0.44722
C         49.13516        40.99387         2.41198
C         48.52022        42.21524         1.75173
C         49.21089        43.68003         3.53297
C         48.48222        43.63427         2.25652
C         51.73326        29.31212         0.03113
C         52.83843        31.64058         0.00491
C         52.08240        30.56450         0.55481
C         52.72601        32.87077        -0.11940
C         51.62141        33.79245        -0.50724
C         52.52905        35.92415         0.91286
C         51.66914        35.26530        -0.09187
C         52.39176        37.02260         1.45858
C         51.35421        38.08732         1.13347
C         51.82943        40.04359         2.92670
C         50.88820        39.13877         2.14674
C         51.38077        40.92769         3.66519
C         50.01410        41.34091         4.06481
C         49.73350        42.77039         4.17119
O         51.41758        36.20985        -1.18989
O         51.07371        31.18180         1.43233
O         30.31948        30.12607         4.32908
O         44.04067        34.67862        -2.37926
O         46.24894        33.32164        -2.43993
O         45.77784        31.40963         0.54498
O         45.37713        39.93518        -1.80279
O         35.55670        37.62784         1.51671
O         43.42932        31.21794        -2.46179
O         42.46076        33.14847         0.56465
O         32.51900        36.99261        -0.27349
O         39.31818        28.71255        -1.77456
O         38.57923        46.48889        -2.88193
O         46.14330        43.79118         2.76903
O         46.45848        29.03714        -1.98990
O         48.20582        31.26448        -2.20454
O         49.32660        43.28825         1.13282
O         45.46170        39.32247         1.76728
O         42.35667        39.76552        -2.51787
O         35.11821        40.90373        -1.52065
O         45.29943        26.70859        -2.42918
H         45.93192        27.26923        -2.93253
O         41.76157        45.80851         1.73183
H         41.73460        46.73126         2.08327
O         43.10430        27.77818         1.35032
H         42.81643        27.05918         1.96220
O         50.85654        41.04438         0.63931
H         50.63701        41.99322         0.78287
O         41.24774        38.29141         0.73726
H         41.26270        37.39811         1.16408
O         37.20773        42.69427         0.90827
H         38.04266        43.22667         0.91615
O         40.93560        42.10951         0.55944
H         41.61475        42.41590         1.21723
O         34.94706        40.08512         2.06117
H         35.68534        39.47710         2.30249
O         34.36923        44.79968         1.21099
H         34.48529        45.74067         0.95007
O         49.16731        39.93475        -0.89556
H         50.04069        40.40429        -0.89346
O         41.97653        44.13239        -2.38201
H         41.19760        44.02884        -2.98651
O         47.91200        40.10967         2.46529
H         46.05183        39.42099         2.54853
O         37.20432        35.53346         1.35687
H         36.94423        36.44474         1.63196
O         37.51623        26.92413        -1.36049
H         36.75009        27.50783        -1.57838
O         49.11954        35.45615        -2.12463
H         50.05988        35.51493        -2.41160
O         32.85729        40.32960        -0.86140
H         32.00793        40.79444        -1.01713
O         39.65778        44.36529         0.52961
H         40.28599        44.79393         1.16294
O         37.31429        31.23573         1.62185
H         36.62472        31.07068         2.30966
O         49.47125        40.54267         5.02374
H         49.67372        39.60697         4.78419
O         32.34963        33.05259        -0.67248
H         31.43424        32.71063        -0.58913
O         49.86195        36.42910         2.05065
H         49.11658        35.78246         1.91394
O         47.70589        35.17281         1.19104
H         46.81210        35.35328         1.57711
O         41.84208        25.91718        -1.51477
H         41.00278        25.47175        -1.75556
O         35.79938        33.17119         1.96445
H         36.18164        34.06234         2.15338
O         50.40068        33.77921         1.60416
H         50.85023        33.11556         2.17512
O         51.38539        33.70209        -1.90058
H         52.14536        34.09632        -2.37710
O         39.43063        33.74223         1.21219
H         38.65964        34.18815         1.64098
O         37.42403        31.38776        -2.03066
H         36.93757        30.53201        -2.11030
O         42.25542        48.69887        -1.61886
H         41.67284        48.73407        -2.40447
O         35.07564        35.77631        -1.66011
H         34.31613        36.35704        -1.87937
O         47.50279        28.81746         1.55176
H         48.21352        28.43471         2.10662
O         36.07124        29.11887        -1.09223
H         35.07943        29.17251        -1.05811
O         41.91997        25.52565         2.21589
H         41.89756        24.76119         2.82832
O         51.77316        38.73290        -0.03969
H         51.98169        38.04328        -0.71327
O         43.06550        43.25448         1.87414
H         42.82501        44.08292         2.35139
O         34.57932        44.09688        -2.32263
H         35.11280        44.45005        -3.06397
O         40.22735        33.21977        -2.32541
H         39.38809        32.80816        -2.62974
O         45.77270        42.38973        -1.51988
H         45.64067        41.71404        -2.22856
O         37.48803        35.49407        -2.32914
H         38.14133        35.90480        -2.93368
O         40.73784        41.80154        -3.08392
H         41.42001        41.10593        -3.27089
O         46.72672        35.92626        -2.29007
H         46.34029        35.28548        -2.93111
O         35.96673        38.13092        -2.08771
H         36.58868        38.56084        -2.72599
O         29.15958        43.65743        -0.03297
H         28.41733        43.08531         0.24459
O         49.51643        31.75205        -2.55748
H         49.32154        32.58782        -3.04909
O         37.37119        40.15855        -2.69602
H         36.46780        40.57245        -2.71207
O         35.01547        31.58568        -1.25742
H         34.22876        32.16368        -1.39230
O         41.62651        29.35879        -2.59625
H         40.69282        29.27201        -2.89940
O         40.60492        37.27384        -2.74773
H         41.54031        37.02875        -2.91910
O         32.80483        38.53931         3.09652
H         32.41292        39.28113         3.60112
O         41.54143        35.46528         1.16056
H         40.85239        34.83463         1.50709
O         33.61673        28.88527        -0.06592
H         32.71484        29.24126        -0.21097
O         45.17517        35.43972         0.98800
H         44.29873        35.74805         1.30949
O         37.46641        39.56740         0.96345
H         37.62337        40.50226         1.23405
O         44.36551        37.69694        -2.49690
H         45.15668        38.20054        -2.79614
O         35.95611        29.26819         2.65710
H         36.78620        28.77777         2.86358
O         38.41625        28.78000         1.70907
H         38.47191        29.74282         1.93606
O         39.41437        44.10162        -3.10037
H         39.29337        43.25004        -3.57579
O         32.62814        42.42424         1.85062
H         32.94938        43.34052         2.00361
O         41.92402        30.56066         0.81977
H         42.07592        31.45205         1.21894
O         50.09607        38.57835         3.18063
H         50.26248        37.60596         3.25256
