         294
 CSIRO Nanostructure Databank - Neutral Graphene Oxide Data Set
C          1.52859         2.75751        -2.67350
C          1.53019         4.12252        -2.53274
C          2.67282         1.97172        -2.40351
C          2.82143         4.85835        -2.27764
C          1.36416         6.69497        -1.06468
C          1.27462         7.83451        -0.31406
C          2.65968         6.22317        -1.56579
C          2.42636         8.53753         0.16890
C          1.06456        10.63631         0.73143
C          1.07613        11.99544         0.88654
C          2.27610         9.79534         1.01670
C          2.27300        12.72721         1.14146
C          1.05501        15.00782         1.30268
C          1.06660        16.36177         1.12438
C          2.31634        14.20544         1.49444
C          2.26192        17.09045         0.80999
C          2.33020        18.48810         0.64255
C          3.82661         2.53710        -1.80162
C          3.78861         4.00412        -1.42393
C          4.88237         1.76854        -1.36620
C          5.18337         4.64066        -1.33725
C          3.87968         6.81987        -0.86826
C          3.68818         7.94272         0.06871
C          5.18679         6.05585        -0.85253
C          4.84573         8.54769         0.66914
C          3.55047        10.60076         1.00742
C          3.51537        12.03040         1.11281
C          4.77396         9.89797         1.03309
C          4.74086        12.76363         1.03000
C          3.50842        14.86622         0.83515
C          3.43421        16.28428         0.44454
C          4.69829        14.15178         0.73717
C          4.67990        17.01418         0.00270
C          3.50498        19.16701         0.31423
C          4.75534        18.49349         0.10440
C          5.99696         2.37527        -0.54461
C          6.39783         3.73582        -1.15934
C          7.20706         1.40804        -0.44104
C          7.53305         4.37683        -0.36630
C          6.27596         6.48486         0.09848
C          6.11602         7.79454         0.82279
C          7.66487         5.89013        -0.16032
C          7.35990         8.52152         1.18771
C          5.98672        10.62417         1.55955
C          6.05102        12.02388         0.89892
C          7.30617         9.87708         1.40655
C          7.25126        12.82576         1.44431
C          5.97750        14.89459         0.52826
C          5.95765        16.24102        -0.12855
C          7.27614        14.25588         0.89610
C          7.24578        16.96350        -0.28479
C          5.96850        19.14208        -0.03056
C          7.29797        18.43012         0.11809
C          8.53664         2.11707        -0.40223
C          8.55006         3.53778        -0.06067
C          9.70993         1.44974        -0.61349
C          9.76795         3.98608         0.68506
C          8.72616         6.30323         0.88135
C          8.61929         7.71772         1.41477
C          9.79509         5.45681         1.06164
C          9.83908         8.54953         1.81192
C          8.52024        10.68962         1.43012
C          8.51473        12.03857         1.20995
C          9.84626        10.05717         1.76525
C          9.71161        12.70572         0.57925
C          8.56819        14.87817         0.50631
C          8.56563        16.19581        -0.24326
C          9.73999        14.21356         0.65736
C          9.79012        17.04531        -0.01128
C          8.53428        19.11108        -0.43435
C          9.73951        18.45805        -0.40947
C         11.00344         2.12122        -0.57917
C         10.99992         3.54783        -0.12788
C         12.16331         1.51332        -0.95148
C         12.29236         4.21252         0.18683
C         11.09920         5.77055         1.65466
C         11.19674         7.96301         1.86989
C         12.29422         5.32051         1.17999
C         12.32529         8.43498         1.27106
C         11.01583        10.63702         0.98823
C         11.01537        11.97329         0.74103
C         12.21794         9.80146         0.68176
C         12.32741        12.73621         0.67616
C         11.05463        14.96547         0.66160
C         10.96977        16.37415         0.09800
C         12.23626        14.16206         0.18591
C         12.18641        16.93023        -0.58984
C         11.00684        19.10847        -0.75350
C         12.17841        18.42327        -0.79706
C         13.46468         2.29143        -1.03767
C         13.49323         3.29343         0.14805
C         14.72898         1.46363        -0.92588
C         14.81328         4.05385         0.33051
C         13.57169         6.12152         1.49485
C         13.46801         7.51296         0.73735
C         14.83614         5.38366         1.04123
C         14.81186         8.29206         0.57814
C         13.45881        10.48843         0.18462
C         13.43629        12.00626        -0.08707
C         14.78793         9.77150         0.29811
C         14.78534        12.73875         0.11159
C         13.52731        14.86195        -0.17651
C         13.45928        16.38987         0.06430
C         14.73043        14.21138         0.55849
C         14.71732        17.00241        -0.47525
C         13.45479        19.01530        -1.37134
C         14.71505        18.19736        -1.12002
C         15.96789         2.08349        -0.70176
C         15.97618         3.59654        -0.56448
C         17.18156         1.39648        -0.66049
C         17.29552         4.17266        -0.08410
C         16.12867         6.20420         1.21284
C         16.09262         7.68520         1.02434
C         17.12374         5.66130         0.08645
C         17.32429         8.35866         0.97242
C         16.03347        10.56647         0.59438
C         16.09012        12.02078         0.20516
C         17.31971         9.85024         0.83678
C         17.35611        12.76112         0.52590
C         16.02511        14.90764         0.26953
C         16.01694        16.40628         0.04452
C         17.28597        14.26374         0.81332
C         17.18703        16.65270        -0.92975
C         15.96003        18.69111        -1.70621
C         17.10767        17.97138        -1.66288
C         18.51050         2.09670        -0.77512
C         18.47023         3.54709        -0.31136
C         19.66270         1.42265        -0.04912
C         19.77972         4.27466        -0.33350
C         18.79159         6.25499         1.00079
C         18.58784         7.68690         0.94363
C         19.89978         5.68289         0.15871
C         19.83851         8.38392         0.39293
C         18.54541        10.56862         0.27570
C         18.52448        12.07120         0.55819
C         19.83682         9.87428         0.62220
C         19.81307        12.78047         0.78392
C         18.59370        15.03418         0.48958
C         18.54796        16.35136        -0.28118
C         19.85561        14.25276         0.66831
C         19.74129        17.04247        -0.87930
C         18.26014        18.23836        -2.59632
C         19.59936        17.94934        -1.95499
C         20.84049         2.05344         0.06725
C         21.05155         3.44527        -0.49933
C         22.28057         4.12678         0.05597
C         21.20253         6.27402         0.51267
C         21.09263         7.69759         1.03096
C         22.33890         5.45224         0.45897
C         22.35078         8.50484         0.84781
C         21.09677        10.56736         0.15652
C         21.13662        12.01389         0.63098
C         22.34883         9.80173         0.52293
C         22.33859        12.81163         0.37544
C         21.08718        14.86381         0.75698
C         21.01449        16.97406        -0.26834
C         22.32617        14.15443         0.58775
C         22.11652        17.69192        -0.74769
C         20.71002        18.65160        -2.44827
C         21.96641        18.51987        -1.85970
O         12.56137         9.82139        -0.76051
O         15.09881         4.12543         1.75422
O          5.57461         5.74112        -2.23483
O         17.02277         6.27177        -1.01316
O          6.49178        16.53360        -1.46285
O         11.19184         6.78646         2.62607
O         14.97611         8.83070        -0.79859
O         21.21764        16.25224         0.91392
O          3.46927         7.25106        -2.21870
O          6.59257        15.14614         1.87179
O          8.98588         7.95093         2.83037
O         18.59760        16.33177         1.17835
O          5.88649         6.48282         1.49037
O         11.57335         4.49744        -1.06275
O         16.59428        10.46680         1.95074
O         19.70687         5.41644        -1.27116
O         15.58755        12.46486        -1.09153
O          3.74007        16.52979        -1.00009
O          9.83214         3.26981         1.89435
O         20.54920        12.24379         1.94367
O          7.06662         0.64185         0.77454
H          7.84176         0.82455         1.34717
O         13.04465         7.14307        -0.57755
H         13.08683         7.95711        -1.13825
O          8.13065         6.46886        -1.41049
H          7.46237         6.24846        -2.10242
O          6.87785         3.41758        -2.48595
H          6.92947         4.25550        -2.99506
O         16.47575         5.97074         2.60196
H         15.61976         5.98791         3.09790
O          3.26399         4.06240        -0.07100
H          3.86439         3.51684         0.50109
O          7.15575        12.93354         2.88792
H          6.79046        13.83311         3.08171
O         10.11183        10.46260         3.14833
H          9.54129         9.90157         3.72010
O         17.04497        15.61519        -1.95061
H         16.09369        15.55253        -2.19711
O          2.11164         9.32004         2.40857
H          2.98852         9.00124         2.71575
O          9.44028        12.52193        -0.87277
H          9.58127        11.57658        -1.09691
O         13.35052         2.41438         1.29163
H         13.67978         2.90300         2.08176
O         13.85348        14.71366        -1.58275
H         13.53739        13.81781        -1.87097
O          3.37771         5.07977        -3.58414
H          3.84769         5.94934        -3.55017
O         18.22085        19.56535        -3.11834
H         18.34169        20.19277        -2.37679
O          8.83568        15.76687        -1.62529
H          7.96096        15.68273        -2.07896
O         18.81658         2.08138        -2.19811
H         19.73417         2.44682        -2.30973
O         17.18475        14.33744         2.29305
H         17.97278        13.88468         2.66736
O          2.57059        14.25559         2.95516
H          3.25096        13.57914         3.16159
O         18.78092         5.51752         2.14432
H         18.17605         5.91246         2.81962
O         11.34720        15.12215         2.11511
H         12.13842        15.73165         2.16910
O          5.73811        10.74892         2.97826
H          6.37923        11.41500         3.33495
O          6.31472        11.85339        -0.51726
H          5.52190        11.45417        -0.93352
O         13.66303        20.34935        -0.88843
H         13.85181        20.29895         0.07102
O         16.15189        17.06244         1.33996
H         17.01395        16.76633         1.73643
O         21.07805        10.63027        -1.31699
H         21.00574         9.68604        -1.61148
O         14.52214        14.34276         1.98111
H         15.39389        14.20760         2.43125
O         12.70990        12.73685         2.08377
H         12.20001        13.46619         2.51976
O         13.09372        12.15122        -1.48428
H         13.75626        11.64467        -2.00398
O         13.38958        16.71305         1.47420
H         14.31631        16.69678         1.82480
O         13.75305         6.34730         2.90183
H         12.86075         6.53610         3.28779
O         15.77480         4.14716        -1.88718
H         16.19904         5.04940        -1.91950
O          7.49635        18.35626         1.57671
H          7.71636        19.25572         1.89856
O         19.95187         8.15804        -1.04467
H         19.08688         8.40605        -1.44710
O         18.37213        10.43852        -1.18249
H         19.20938        10.77371        -1.59240
O         20.81677         7.62715         2.45992
H         21.63502         7.34087         2.91659
O         13.45031         2.92620        -2.32819
H         14.27038         3.47275        -2.43193
O         12.07971        16.38809        -1.94268
H         11.12588        16.36431        -2.18089
O          5.48662         2.63905         0.78234
H          5.77004         1.86257         1.32960
O         21.27694         3.30442        -1.94262
H         21.11340         4.19879        -2.32336
H          0.61313         2.25028        -3.01273
H          0.63956         4.69676        -2.82787
H          2.64738         0.88958        -2.59832
H          0.45726         6.11381        -1.28256
H          0.27942         8.18807        -0.00944
H          0.10955        10.13127         0.52904
H          0.13194        12.54869         0.77260
H          0.09300        14.50920         1.49306
H          0.11688        16.91851         1.15883
H          1.42170        19.07905         0.83370
H          4.88314         0.68406        -1.56202
H          3.49209        20.26633         0.28061
H          7.17865         0.69419        -1.30881
H          5.98098        20.24437         0.00261
H          9.68899         0.38132        -0.88098
H          8.48590        20.17628        -0.70907
H         12.14759         0.46902        -1.30268
H         10.98757        20.18005        -1.00797
H         14.69847         0.37645        -1.10714
H         13.31513        19.10421        -2.48437
H         17.17682         0.29754        -0.74413
H         15.92078        19.61023        -2.31062
H         19.53488         0.40254         0.34558
H         18.13431        17.54421        -3.47489
H         21.69209         1.55968         0.56054
H         23.21312         3.54393         0.02712
H         23.31512         5.86146         0.76472
H         23.30847         8.00346         1.06646
H         23.31171        10.32824         0.43112
H         23.25425        12.31507         0.02563
H         23.24372        14.74878         0.47784
H         23.08116        17.60752        -0.23101
H         20.56288        19.33663        -3.29452
H         22.82353        19.08510        -2.25015
