         420
 CSIRO Nanostructure Databank - Neutral Graphene Oxide Data Set
C         27.92501        27.37767         0.99095
C         27.89104        28.81696         0.81518
C         26.69607        29.54528         0.99995
C         27.90270        31.66287         0.84642
C         26.69640        30.93245         0.97173
C         27.92368        33.13074         0.79683
C         26.76824        33.88866         0.85694
C         27.88731        36.00758         0.29347
C         26.74662        35.28714         0.57094
C         27.88297        37.42798        -0.02086
C         26.67021        38.15762        -0.02136
C         27.83945        40.26087        -0.42783
C         26.64763        39.52420        -0.22483
C         27.79870        41.67963        -0.67627
C         26.62479        42.44430        -0.63927
C         27.82821        44.58320        -0.69116
C         26.63737        43.84774        -0.64371
C         27.89173        45.97096        -0.39277
C         30.32612        27.25572         0.43344
C         29.07091        26.65461         0.92017
C         30.32573        28.78979         0.26818
C         29.09584        29.53332         0.61140
C         30.41790        31.67522         0.80465
C         29.10882        30.93751         0.69307
C         30.33130        33.10332         0.31087
C         29.17591        33.80920         0.47615
C         30.28804        35.91631        -0.42975
C         29.22279        35.33493         0.50720
C         30.35598        37.42678        -0.31528
C         29.09980        38.13623        -0.26210
C         30.33203        40.26814        -0.56758
C         29.08958        39.55769        -0.42668
C         30.33635        41.66781        -0.78944
C         29.05606        42.34837        -1.01281
C         30.36425        44.57986        -0.80647
C         29.08026        43.90343        -1.03233
C         30.35046        45.96291        -0.53794
C         29.09802        46.63504        -0.35862
C         32.89665        24.52357         0.86870
C         31.75369        25.23039         1.04238
C         32.81065        27.30731         0.25891
C         31.63660        26.59369         0.56326
C         32.81655        28.75101         0.16280
C         31.61693        29.48861         0.27129
C         32.84371        31.58505         0.18385
C         31.64241        30.90587         0.35386
C         32.83256        33.08533         0.33919
C         31.57410        33.70672        -0.30464
C         32.79085        35.90723        -0.27253
C         31.61616        35.22288        -0.25626
C         32.86619        37.40852        -0.09780
C         31.55511        38.10848        -0.37537
C         32.78997        40.22661        -0.70357
C         31.58485        39.55058        -0.49437
C         32.78282        41.64594        -1.03166
C         31.53847        42.41031        -0.90289
C         32.84446        44.53212        -0.74836
C         31.58167        43.83531        -0.88573
C         32.83632        45.95649        -0.54410
C         31.60817        46.67273        -0.45717
C         32.83822        48.76955        -0.26759
C         31.64340        48.08103        -0.32059
C         35.34385        23.06354        -0.37249
C         35.29573        24.37020         0.02897
C         33.98205        25.11485        -0.00054
C         35.27306        27.30206         0.20035
C         34.07354        26.60970         0.21744
C         35.30447        28.73583         0.10700
C         34.06567        29.44180         0.08681
C         35.31905        31.53728        -0.08561
C         34.07267        30.86686         0.02466
C         35.32686        32.97603        -0.35550
C         34.04404        33.74475        -0.25764
C         35.26110        35.88506        -0.25772
C         34.07313        35.22519        -0.21086
C         35.40109        37.27731        -0.81754
C         34.06488        38.02446        -0.84275
C         35.36326        40.23627        -0.71285
C         34.07645        39.51133        -0.90949
C         35.36238        41.64096        -0.68340
C         34.13459        42.40093        -1.01439
C         35.30952        44.52382        -0.48267
C         34.08070        43.84089        -0.73692
C         35.30923        45.94485        -0.38463
C         34.07362        46.66563        -0.42222
C         35.33169        48.79876        -0.24299
C         34.07734        48.08694        -0.30019
C         35.36927        50.22352        -0.00513
C         37.79555        23.01759        -0.37065
C         36.58493        22.36834        -0.50665
C         37.82490        24.41166        -0.02768
C         36.55690        25.06461         0.32655
C         37.81894        27.30957         0.13687
C         36.55951        26.59845         0.38755
C         37.80571        28.72631         0.03311
C         36.54838        29.42808         0.05298
C         37.79809        31.57948        -0.09022
C         36.55351        30.85355        -0.04304
C         37.79280        33.02353        -0.08889
C         36.58569        33.70238        -0.21321
C         37.78324        35.90525         0.17273
C         36.50631        35.14127         0.01985
C         37.73783        37.38126         0.02764
C         36.58155        38.06513        -0.26339
C         37.73886        40.24669        -0.09485
C         36.55394        39.52109        -0.34996
C         37.76988        41.66193        -0.19673
C         36.55423        42.37235        -0.41412
C         37.77156        44.51071        -0.17856
C         36.54649        43.80601        -0.37614
C         37.77595        45.93284        -0.16819
C         36.54581        46.64931        -0.27581
C         37.81592        48.79003        -0.38736
C         36.53460        48.07825        -0.28700
C         37.82141        50.32602        -0.22941
C         36.52655        50.93005         0.09279
C         40.38766        20.25178        -0.75898
C         39.17122        20.87579        -0.75158
C         40.29301        23.05738        -0.18694
C         39.10008        22.37588        -0.80633
C         40.28544        24.43617        -0.06458
C         39.02141        25.15000        -0.02936
C         40.27441        27.29774        -0.05765
C         39.03634        26.58880         0.06287
C         40.28193        28.73699        -0.06172
C         39.03605        29.44667        -0.03950
C         40.26900        31.61320        -0.06164
C         39.02996        30.88209        -0.06755
C         40.27742        33.04217        -0.05492
C         39.04024        33.76693        -0.02938
C         40.27892        35.90711         0.01138
C         39.05280        35.17322         0.01389
C         40.28534        37.32686         0.19005
C         38.99732        38.05527         0.38103
C         40.25759        40.26308         0.20239
C         38.97821        39.55964         0.31588
C         40.24708        41.64270         0.08606
C         39.00476        42.37603        -0.03882
C         40.24146        44.49618         0.21350
C         39.00892        43.78695        -0.02085
C         40.23672        45.92241         0.23667
C         39.02240        46.64524        -0.00972
C         40.27267        48.77568         0.03003
C         39.05247        48.05071        -0.10371
C         40.27566        50.18975         0.19536
C         39.09504        50.96908         0.18407
C         40.37378        52.99343         0.76091
C         39.14935        52.33570         0.50614
C         42.86810        20.39674        -0.78337
C         41.59714        20.95148        -0.49058
C         42.77499        23.06999         0.18658
C         41.49659        22.27062         0.23174
C         42.77954        24.43144         0.03104
C         41.52581        25.18020        -0.02432
C         42.75189        27.29703        -0.57509
C         41.50231        26.56894        -0.14201
C         42.77284        28.76573        -0.16852
C         41.50888        29.46335        -0.05057
C         42.72719        31.63393         0.03606
C         41.50709        30.90207        -0.01394
C         42.74410        33.04258        -0.03756
C         41.50684        33.76386        -0.07032
C         42.74602        35.92214        -0.09802
C         41.51617        35.19687        -0.06139
C         42.72785        37.34844        -0.01757
C         41.49238        38.03452         0.18960
C         42.76255        40.24191         0.15706
C         41.51426        39.50421         0.58152
C         42.73073        41.62443         0.12502
C         41.49046        42.37240         0.19125
C         42.72972        44.42339         0.82805
C         41.46378        43.76127         0.33050
C         42.70298        45.95114         0.77184
C         41.46166        46.65844         0.35383
C         42.80032        48.72080        -0.20372
C         41.49730        48.03495         0.16472
C         42.77163        50.23453        -0.00257
C         41.55827        50.80021         0.70751
C         42.84459        52.95428         0.96561
C         41.57450        52.30526         0.76453
C         44.03552        21.01999        -0.42892
C         45.30137        23.05706         0.30853
C         44.02505        22.26427         0.43601
C         45.30506        24.44742         0.08259
C         44.03859        25.18067        -0.03031
C         45.27945        27.27666        -0.37526
C         44.01543        26.53967        -0.21476
C         45.24653        28.78177        -0.33949
C         43.95832        29.45751        -0.09837
C         45.25141        31.64607        -0.07451
C         44.00251        30.89977         0.34850
C         45.23659        33.04293        -0.17697
C         43.98906        33.77338        -0.10688
C         45.22030        35.89617        -0.38614
C         43.98988        35.18470        -0.17913
C         45.15443        37.35485        -0.58610
C         43.94710        38.10594        -0.18430
C         45.23606        40.25108        -0.23282
C         43.98007        39.50863        -0.11283
C         45.25595        41.66037        -0.12479
C         43.97379        42.38315        -0.12514
C         45.27404        44.53773         0.37608
C         43.97341        43.85765         0.14604
C         45.28261        45.90972         0.60576
C         44.01598        46.66807         0.70730
C         45.26414        48.77909         0.40485
C         44.04650        48.09238         0.36248
C         45.31575        50.19193         0.14913
C         44.06133        50.97258         0.13035
C         44.02839        52.32060         0.73756
C         47.72700        23.03964         0.44993
C         46.51190        22.37284         0.50347
C         47.77292        24.42303         0.18230
C         46.55136        25.12883        -0.00896
C         47.73066        27.29068        -0.13702
C         46.56446        26.57508        -0.15096
C         47.75203        28.75644         0.23654
C         46.49902        29.52007        -0.09659
C         47.75026        31.63924        -0.15415
C         46.49262        30.91044        -0.09402
C         47.68551        33.06031        -0.30909
C         46.47860        33.77255        -0.34828
C         47.68746        35.97989        -0.58755
C         46.45644        35.22400        -0.48197
C         47.72953        37.37509        -0.55700
C         46.47602        38.13096        -0.67285
C         47.70698        40.25572        -0.29849
C         46.47607        39.56694        -0.36627
C         47.71570        41.67210        -0.11184
C         46.47956        42.38384        -0.01605
C         47.73688        44.48366         0.44344
C         46.49665        43.80247         0.24308
C         47.75834        45.91244         0.66867
C         46.51279        46.65059         0.66407
C         47.73386        48.85380         0.96074
C         46.49034        48.05349         0.66233
C         47.74628        50.16721         0.22617
C         46.57618        50.82054        -0.04082
C         50.27429        24.53484         0.29312
C         49.04171        25.13035         0.10166
C         50.29937        27.34707        -0.19858
C         49.00943        26.56199        -0.23421
C         50.22854        28.82802        -0.14140
C         49.02972        29.49137        -0.11019
C         50.24411        31.63692        -0.16904
C         48.98480        30.93999        -0.18307
C         50.19440        33.10138        -0.03317
C         48.95794        33.77412        -0.52098
C         50.24397        35.99852        -0.47895
C         48.97264        35.25971        -0.67179
C         50.22503        37.42288        -0.52663
C         48.96641        38.12054        -0.50530
C         50.19691        40.26066        -0.39075
C         48.95700        39.53293        -0.40995
C         50.20517        41.67608        -0.21357
C         48.95549        42.37974        -0.02138
C         50.24063        44.40621         0.58474
C         48.95267        43.75347         0.30116
C         50.25028        45.91189         0.84827
C         48.97112        46.63314         0.76036
C         50.23575        48.71983         0.81468
C         49.00923        48.05600         0.79748
C         51.48224        25.28375         0.37279
C         52.72914        27.45576         0.46488
C         51.52441        26.65852         0.23696
C         52.73444        28.83679         0.19213
C         51.53337        29.52022        -0.43586
C         52.71382        31.72625        -0.04643
C         51.47401        30.99558        -0.15083
C         52.73299        33.13245        -0.07861
C         51.47095        33.87852        -0.01638
C         52.70018        36.00867        -0.40141
C         51.45507        35.31862        -0.34216
C         52.69670        37.41951        -0.57968
C         51.44952        38.12974        -0.57350
C         52.65293        40.28848        -0.64997
C         51.43579        39.56695        -0.54241
C         52.64624        41.68342        -0.55176
C         51.43979        42.38685        -0.25622
C         52.66826        44.52382         0.08813
C         51.48389        43.78834         0.08713
C         52.73389        45.90815         0.49250
C         51.51160        46.64957         0.67843
C         51.46205        48.03849         0.69715
C         55.10200        27.54817         1.02905
C         53.92691        26.83697         0.92433
C         55.13535        28.93192         0.72078
C         53.93216        29.58956         0.33653
C         55.17510        31.72469         0.17204
C         53.95239        31.01285         0.11290
C         55.18682        33.15367        -0.04321
C         53.95569        33.85728        -0.14970
C         55.16521        35.99802        -0.38675
C         53.94034        35.28880        -0.30616
C         55.15024        37.42841        -0.59231
C         53.93487        38.11424        -0.70325
C         55.19220        40.31155        -0.76298
C         53.91237        39.57263        -1.09692
C         55.19559        41.70535        -0.72091
C         53.90340        42.43092        -0.76349
C         55.19890        44.55552        -0.11249
C         53.91084        43.91425        -0.42384
C         55.19315        45.85383         0.40067
C         53.98860        46.53163         0.63136
C         56.35267        29.67312         0.78029
C         56.37577        31.01289         0.48583
C         56.39460        33.89937        -0.11896
C         56.38342        35.26535        -0.29034
C         56.38343        38.17769        -0.63906
C         56.39663        39.54447        -0.67206
C         56.39722        42.47928        -0.62069
C         56.39991        43.82860        -0.34440
O         43.26182        46.50252         2.02002
O         29.02206        43.11389        -2.25624
O         36.58185        25.78021         1.61155
O         50.31636        44.93426         1.95358
O         49.07128        34.35873        -1.86076
O         43.25421        50.95094        -1.16559
O         33.11571        37.65267         1.27278
O         33.52793        41.97654        -2.26648
O         33.87526        38.64705        -2.14096
O         30.16196        27.89829        -0.88133
O         49.75744        26.86086        -1.49027
O         53.81400        43.43899        -1.82169
O         45.29621        28.05404        -1.64984
O         38.89512        38.83280         1.63133
O         43.81370        43.38761        -1.22003
O         37.04585        35.47321         1.37573
O         37.89547        49.69458        -1.54240
O         45.70271        37.79385        -1.87627
O         34.48082        33.27821        -1.55893
O         50.69766        33.60895         1.24502
O         47.65656        49.19631         2.39906
H         47.58930        48.35318         2.89623
O         42.70005        27.28964        -2.04095
H         43.57993        27.62614        -2.34577
O         41.26376        21.91142         1.66788
H         41.04249        22.74323         2.14067
O         29.83761        35.60517        -1.78953
H         30.35464        36.15882        -2.41266
O         30.63349        31.81962         2.27517
H         29.86399        32.31431         2.63259
O         47.75535        28.70649         1.72469
H         47.73050        29.63268         2.04959
O         41.71253        50.32906         2.09474
H         40.96734        50.69243         2.61814
O         32.85780        33.39714         1.74525
H         32.11050        32.91424         2.18119
O         35.79769        37.02931        -2.20330
H         35.26000        37.64447        -2.76195
O         33.50894        24.95932        -1.38697
H         32.65973        25.44689        -1.46218
O         43.98174        21.77855         1.81725
H         43.04293        21.51773         1.99801
O         42.92665        48.46691        -1.63852
H         43.20463        49.32744        -2.04353
O         44.08080        30.83893         1.83044
H         43.96511        31.75402         2.16531
O         53.85075        39.57303        -2.57068
H         53.84218        40.50976        -2.86428
O         51.71665        29.39737        -1.89284
H         51.38956        28.51018        -2.16008
O         42.84032        44.01994         2.21909
H         43.09228        44.82579         2.73264
O         41.53462        39.49996         2.05193
H         40.63365        39.20369         2.33716
O         29.63907        35.67483         1.85899
H         28.88680        35.50629         2.46314
O         39.19221        22.68365        -2.25223
H         39.19895        23.66105        -2.34242
O         31.55404        33.30546        -1.69849
H         30.82763        33.81760        -2.12484
H         26.98944        26.88309         1.29289
H         25.75302        29.00175         1.15572
H         25.74094        31.46245         1.08406
H         25.80111        33.40500         1.05171
H         25.75784        35.76466         0.52385
H         25.71689        37.63960         0.14795
H         25.67812        40.03916        -0.22803
H         25.65597        41.94777        -0.49170
H         25.69001        44.38446        -0.48837
H         26.95883        46.51565        -0.18725
H         29.05729        25.58738         1.18362
H         29.09029        47.70936        -0.13395
H         32.98567        23.48936         1.23064
H         30.90086        24.77848         1.56964
H         32.80836        49.86419        -0.19584
H         30.70916        48.65539        -0.28206
H         34.41252        22.53482        -0.61892
H         34.42826        50.74592         0.21338
H         36.55380        21.30977        -0.79798
H         36.49105        51.97192         0.44164
H         40.44653        19.17239        -0.97244
H         38.26385        20.29104        -0.95790
H         40.37243        54.08538         0.89450
H         38.23179        52.93844         0.48123
H         42.90500        19.44104        -1.32960
H         42.84273        54.00039         1.30928
H         44.99868        20.54171        -0.65929
H         44.98215        52.82826         0.94097
H         48.65450        22.47715         0.61954
H         46.49338        21.29788         0.72864
H         48.70378        50.66041         0.00901
H         46.59995        51.84279        -0.44755
H         50.34338        23.45292         0.47138
H         50.26011        49.81561         0.88091
H         52.39627        24.72731         0.62106
H         52.38361        48.62995         0.61026
H         56.02623        27.04648         1.34984
H         53.92767        25.76752         1.17324
H         56.14785        46.35797         0.60819
H         54.03617        47.57115         0.98282
H         57.27964        29.15110         1.05840
H         57.33148        31.55122         0.53676
H         57.36330        33.38594        -0.05844
H         57.34658        35.78717        -0.35849
H         57.34313        37.64943        -0.57515
H         57.36325        40.06200        -0.60323
H         57.36558        41.97258        -0.72955
H         57.35948        44.35315        -0.22737
