         234
 CSIRO Nanostructure Databank - Neutral Graphene Oxide Data Set
C          1.26482         1.84937        -0.62150
C          1.19285         3.25380        -0.50642
C          2.48323         1.21228        -0.74995
C          2.34352         4.04034        -0.53672
C          1.08364         6.23123        -0.35459
C          1.08121         7.62417        -0.28396
C          2.28745         5.50677        -0.50366
C          2.24379         8.36540        -0.57833
C          1.28488        10.61472         0.07090
C          1.30782        11.98419         0.41756
C          2.38615         9.76773        -0.15288
C          2.42906        12.78417         0.72656
C          1.21325        14.98330         0.80683
C          1.20317        16.34333         0.86184
C          2.42943        14.23335         0.60385
C          2.35606        17.12300         0.40958
C          2.48181        18.54785         0.78089
C          3.68985         1.96631        -0.75341
C          3.62075         3.39279        -0.66551
C          4.95503         1.32772        -0.80457
C          4.83751         4.12230        -0.65861
C          3.47456         6.24018        -0.73865
C          3.39827         7.62715        -0.96931
C          4.83513         5.62129        -0.47171
C          4.46545         8.19445        -1.81563
C          3.66756        10.18357         0.35134
C          3.68152        12.19731         1.08789
C          4.99925        10.02856        -0.04368
C          4.90427        12.83433         0.91932
C          3.65466        14.90684         0.44610
C          3.66887        16.35290         0.17097
C          4.91302        14.21608         0.53852
C          4.94005        17.08997         0.09618
C          3.63591        19.20970         0.62232
C          4.89261        18.62649         0.00097
C          6.14985         2.03187        -0.65370
C          6.07343         3.47399        -0.56312
C          7.40756         1.26688        -0.67357
C          7.27345         4.30139        -0.52124
C          5.99563         6.32317        -1.16840
C          5.74845         7.46438        -1.87447
C          7.37186         5.66773        -1.17395
C          7.43939         8.50536         0.28600
C          6.21494        10.71497         0.37518
C          6.18471        12.06175         1.12225
C          7.49624         9.97589         0.42324
C          7.41706        12.83357         0.75168
C          6.13290        14.89384         0.29596
C          6.12659        16.32497         0.00080
C          7.37640        14.15327         0.35303
C          7.33449        16.91690        -0.45324
C          6.09459        19.24358         0.69520
C          7.34426        19.00738         0.19564
C          8.49071         1.63375         0.06054
C          8.40277         3.80969         0.04149
C          9.85824         1.13972         0.26768
C          9.73109         4.23260        -0.46085
C          8.60631         6.43134        -0.55721
C          8.67180         7.77978        -0.12165
C          9.83489         5.71040        -0.59104
C          9.92161         8.42887         0.04535
C          8.67529        10.61322         0.60473
C          8.69106        12.07462         0.87837
C          9.97881         9.83549         0.64115
C          9.98691        12.81240         0.74197
C          8.65758        14.81451        -0.01282
C          8.65790        16.29234        -0.36202
C          9.94009        14.24232         0.39285
C          9.86538        17.09852        -0.08871
C          8.67871        19.30077         0.57255
C          9.83757        18.52480         0.21553
C         10.90976         2.00360         0.34874
C         10.94216         3.34464        -0.33030
C         12.09632         1.57677         1.17727
C         12.28416         4.01523        -0.58483
C         11.09050         6.35088        -0.53261
C         11.13737         7.75233        -0.27937
C         12.34975         5.57948        -0.76961
C         12.40845         8.45973        -0.34594
C         11.07273        10.66171        -0.02174
C         11.18194        12.08582         0.29146
C         12.33872         9.92429        -0.43810
C         12.35130        12.80288         0.03769
C         11.10849        14.94808         0.12215
C         11.08622        16.39313        -0.04048
C         12.36868        14.24368         0.10265
C         12.33984        17.09240        -0.01553
C         11.08171        19.18492         0.28151
C         12.32198        18.52764         0.07850
C         13.41335         2.15970         0.74972
C         13.48128         3.24802        -0.14410
C         14.59701         1.57717         1.21950
C         14.76688         3.64314        -0.55779
C         13.64784         6.35159        -0.69950
C         13.64557         7.81231        -0.52470
C         14.82554         5.76978        -1.09216
C         14.86042         8.57579        -0.76186
C         13.57845        10.69762        -0.42828
C         13.57613        12.09160        -0.22880
C         14.78601         9.99518        -0.73023
C         14.80337        12.84148        -0.18586
C         13.57617        14.95109        -0.06546
C         13.57030        16.39863        -0.08425
C         14.80568        14.24528        -0.17211
C         14.80545        17.11879        -0.13709
C         13.54052        19.23330         0.02458
C         14.77249        18.55529        -0.10611
C         15.85862         2.15460         0.96864
C         15.94298         3.28495         0.11135
C         17.07429         1.50150         1.40716
C         17.22939         4.04031        -0.03833
C         16.17671         6.36704        -0.99655
C         16.19423         7.86195        -0.92780
C         17.34284         5.50546        -0.48728
C         17.47856         8.45338        -0.43065
C         15.91142        10.86477        -0.93830
C         16.02998        12.12138        -0.38513
C         17.76716         9.79236        -0.69397
C         17.31631        12.77445         0.00750
C         16.06629        14.98368        -0.58301
C         16.06431        16.45505        -0.20131
C         17.31588        14.26454        -0.10873
C         17.28179        17.16190        -0.13211
C         15.99131        19.25377        -0.28301
C         17.23818        18.61311        -0.29644
C         18.28512         2.12182         1.27487
C         18.28942         3.60677         0.98693
C         19.52684         1.43277         1.53579
C         19.65936         4.16946         0.71280
C         18.53483         6.24794         0.02276
C         18.55874         7.66022         0.05985
C         19.73010         5.55265         0.40216
C         19.76588         8.35395         0.42634
C         18.71446        10.54515         0.02019
C         18.68709        12.05130         0.28433
C         19.70103         9.75380         0.62878
C         19.88057        12.80050        -0.36450
C         18.60586        14.98686        -0.20176
C         18.53887        16.40223        -0.08633
C         19.84394        14.30145        -0.29280
C         19.77512        17.03314         0.13808
C         18.36778        19.42703        -0.70307
C         19.67669        19.12969        -0.34403
C         20.73155         2.05043         1.40068
C         20.82396         3.44359         1.00731
C         22.08011         4.09886         0.95002
C         20.99143         6.22946         0.47997
C         21.03612         7.67979         0.36554
C         22.15422         5.46385         0.71957
C         22.19154         8.36191        -0.05607
C         21.47156        10.73004         0.10075
C         21.24580        12.12800        -0.40377
C         22.26106         9.73975        -0.44010
C         22.43525        12.99776        -0.44515
C         21.06158        15.03690        -0.36452
C         21.02831        16.46404        -0.18395
C         22.32754        14.34895        -0.47300
C         22.14685        17.34343        -0.37307
C         20.92021        19.48498        -0.91866
C         22.07100        18.69293        -0.73782
O          3.61493        10.86995         1.60092
O          7.34262        18.15445        -0.99084
O          5.69548        10.60182        -1.09376
O         16.99594        10.40544        -1.67031
O          6.38401         7.94465         0.57468
O         17.70777         4.36756        -1.35649
O          4.28253         9.16437        -2.56499
O          8.75795        15.26436        -1.41876
O          8.29868         2.74125         0.93404
O         16.43143         7.16446        -2.20880
O         20.77434        10.38863         1.28487
O         12.31087         4.64336        -1.88412
O         20.38360        12.22774        -1.60699
O         14.85214         4.49688        -1.65628
O         11.32003        10.36874        -1.42591
O          2.78517        16.79319        -0.94862
O         19.78071        18.27139         0.77601
O          9.48000        12.41842         2.10430
O         10.15106         3.36799        -1.56746
O         17.04700        13.64388         1.18935
O          6.72062         8.12195        -2.57589
H          6.28366         8.93328        -2.93610
O         18.92991        12.14170         1.70361
H         18.37808        12.88407         2.05294
O          4.87121        18.98642        -1.40436
H          4.13635        18.47980        -1.81524
O         11.81647         2.00450         2.52801
H         12.61558         1.83833         3.06940
O         16.09962        14.95814        -2.04238
H         15.31059        15.43616        -2.37422
O         17.83312         4.25340         2.22966
H         18.46049         4.00429         2.94109
O         10.34200         9.70477         2.04348
H         10.15890        10.57990         2.46697
O          7.75377         5.48186        -2.55604
H          7.73473         6.36375        -2.98963
O          5.00972         5.81552         0.97134
H          4.33494         5.26995         1.42721
O          6.30103        11.64644         2.51261
H          6.56419        12.42534         3.04517
H          0.33546         1.26300        -0.60562
H          0.20407         3.72174        -0.40420
H          2.53408         0.11677        -0.82905
H          0.13936         5.69595        -0.18301
H          0.15872         8.14359         0.01161
H          0.29818        10.22918        -0.22918
H          0.35076        12.51218         0.27869
H          0.30788        14.42953         1.09380
H          0.31944        16.88062         1.23639
H          1.60437        19.04451         1.22365
H          4.98476         0.23133        -0.89565
H          3.68498        20.27392         0.89873
H          7.44217         0.36100        -1.29621
H          5.96333        19.71511         1.67803
H          9.98713         0.12013         0.67264
H          8.88266        20.28905         1.01462
H         12.17407         0.44969         1.16728
H         11.09134        20.26984         0.46515
H         14.53917         0.67348         1.84466
H         13.53393        20.33205         0.08013
H         17.01259         0.45942         1.75571
H         15.95720        20.34668        -0.40472
H         19.47520         0.37175         1.82245
H         18.16074        20.28147        -1.36498
H         21.66351         1.50049         1.59554
H         22.99470         3.52481         1.15671
H         23.13221         5.96350         0.76279
H         23.05773         7.74298        -0.33872
H         22.97804        10.00539        -1.23213
H         23.42673        12.52217        -0.41448
H         23.24717        14.94948        -0.49805
H         23.14726        16.89078        -0.44270
H         20.98840        20.37384        -1.56247
H         23.02072        19.14280        -1.07077
