         630
 CSIRO Nanostructure Databank - Neutral Graphene Oxide Data Set
C         23.06785        27.37602        -0.98836
C         23.06053        28.75040        -0.85325
C         23.01580        31.61984        -0.32879
C         22.96439        32.97665        -0.20077
C         22.93472        35.92759        -0.42315
C         22.98953        37.23753        -0.75392
C         23.09379        40.14719        -1.26764
C         23.08030        41.54724        -1.28247
C         23.04897        44.48788        -1.31323
C         23.04926        45.86285        -1.35735
C         25.47225        24.53262        -0.92010
C         24.29672        25.23078        -1.01216
C         25.51793        27.37047        -0.90057
C         24.28687        26.65846        -0.97200
C         25.49294        28.79233        -0.87642
C         24.27057        29.48631        -0.77067
C         25.45330        31.64308        -0.37831
C         24.26733        30.93025        -0.50888
C         25.43072        33.04952        -0.03342
C         24.16141        33.76126        -0.08929
C         25.33092        35.93569         0.16695
C         24.12850        35.15916        -0.15018
C         25.45245        37.32500        -0.28186
C         24.29587        37.92068        -1.06373
C         25.46590        40.14852        -0.75295
C         24.25607        39.43405        -0.97971
C         25.46679        41.57751        -0.82778
C         24.24748        42.28811        -1.06146
C         25.44072        44.45546        -0.83372
C         24.24603        43.75043        -1.06774
C         25.44876        45.89318        -0.83594
C         24.24604        46.59838        -1.12794
C         25.44051        48.71085        -0.94806
C         24.27188        48.01757        -1.17681
C         27.99083        23.04296        -0.65772
C         27.95141        24.47021        -0.61112
C         26.72665        25.20290        -0.76710
C         27.97976        27.31340        -0.56867
C         26.75230        26.63023        -0.77414
C         28.04137        28.78112        -0.73408
C         26.76579        29.54124        -0.98691
C         27.98855        31.63334        -0.23414
C         26.75663        31.06992        -0.90345
C         27.89575        32.98096         0.30354
C         26.61980        33.71713         0.26271
C         27.89136        35.92120         0.38558
C         26.63593        35.16634         0.50328
C         27.88419        37.29769         0.18545
C         26.64731        38.00743        -0.15790
C         27.85750        40.16922        -0.22308
C         26.67610        39.44583        -0.41337
C         27.88910        41.56950        -0.46909
C         26.70243        42.28931        -0.71661
C         27.87537        44.46080        -0.53494
C         26.70263        43.74295        -0.71108
C         27.84605        45.89149        -0.06236
C         26.63671        46.63130        -0.56411
C         27.90344        48.76519        -0.39734
C         26.64983        48.03157        -0.61995
C         27.92348        50.17890        -0.37378
C         30.41383        23.00791        -0.34244
C         29.16573        22.34263        -0.52395
C         30.39977        24.43627        -0.28812
C         29.17486        25.16842        -0.40527
C         30.40653        27.31435        -0.09929
C         29.17776        26.60371        -0.35443
C         30.42151        28.77823         0.00028
C         29.24832        29.50434        -0.28296
C         30.44307        31.62216         0.17922
C         29.22241        30.92689        -0.12433
C         30.44778        33.12208         0.04849
C         29.17248        33.72731         0.62427
C         30.41447        35.93838         0.46925
C         29.14814        35.24128         0.87905
C         30.37877        37.35194         0.37681
C         29.13094        38.01928         0.25788
C         30.39556        40.23992         0.28713
C         29.07817        39.48402         0.26437
C         30.42901        41.63716        -0.16101
C         29.17950        42.26098        -0.58082
C         30.40303        44.50413        -0.29330
C         29.16868        43.80022        -0.65829
C         30.34855        45.93032        -0.18739
C         29.15104        46.62931        -0.25152
C         30.37811        48.80020        -0.23244
C         29.13147        48.06800        -0.27285
C         30.35728        50.23515        -0.20114
C         29.10795        50.89037        -0.25328
C         32.89653        20.18431        -0.06120
C         31.70965        20.86367        -0.19850
C         32.88221        23.00756        -0.09326
C         31.65182        22.29079        -0.21223
C         32.85752        24.43773        -0.06061
C         31.62089        25.14965        -0.11437
C         32.82592        27.26075         0.40310
C         31.58054        26.57514         0.03516
C         32.84744        28.76481         0.58364
C         31.60525        29.49540         0.32517
C         32.90462        31.61290         0.68727
C         31.65115        30.91933         0.38211
C         32.79852        33.03572         1.22958
C         31.66718        33.81678         0.59330
C         32.88232        35.96167         0.70119
C         31.64222        35.21616         0.58429
C         32.87478        37.37703         0.52596
C         31.63577        38.08817         0.36675
C         32.87780        40.22540         0.16914
C         31.65628        39.48594         0.25762
C         32.87848        41.64780         0.03476
C         31.62312        42.35361        -0.14477
C         32.86565        44.52537        -0.14809
C         31.60870        43.79708        -0.19280
C         32.86012        45.89993        -0.18883
C         31.61804        46.65694         0.16981
C         32.85531        48.82101        -0.26413
C         31.61149        48.11616        -0.19575
C         32.84145        50.27460        -0.17021
C         31.59755        50.95931        -0.05469
C         32.80220        53.02653         0.42965
C         31.61669        52.34917         0.23211
C         35.46823        18.75661         0.34760
C         35.38368        20.16368         0.19477
C         34.14977        20.86522         0.04903
C         35.34985        23.03879         0.12427
C         34.12580        22.30111         0.02039
C         35.31396        24.45631         0.00504
C         34.09813        25.15561        -0.03303
C         35.24059        27.34609         0.06572
C         34.08499        26.59165         0.08308
C         35.27927        28.77339         0.22842
C         34.12251        29.49397         0.44112
C         35.42294        31.57704         0.77107
C         34.13018        30.92835         0.66388
C         35.48063        33.03332         1.09970
C         34.13918        33.81405         1.29046
C         35.18854        36.12859         1.31045
C         34.07170        35.29642         1.08374
C         35.32540        37.44418         0.80756
C         34.10045        38.11196         0.51101
C         35.34792        40.22386         0.26678
C         34.10989        39.52105         0.29187
C         35.34043        41.63939         0.11060
C         34.10677        42.35847         0.01461
C         35.33408        44.50575         0.00425
C         34.12660        43.79549        -0.09879
C         35.36750        45.95317        -0.10100
C         34.10575        46.63676        -0.57994
C         35.34247        48.80771        -0.45728
C         34.06477        48.11173        -0.29328
C         35.32929        50.33220        -0.38469
C         34.05240        51.00497        -0.09440
C         35.30937        53.09118         0.39697
C         34.05368        52.37822         0.26287
C         35.36926        54.44532         0.80227
C         37.82581        18.77980         1.11222
C         36.61720        18.10261         0.76231
C         37.89688        20.22528         0.77893
C         36.64463        20.92032         0.27920
C         37.80363        23.11833         0.54203
C         36.59765        22.38944         0.33794
C         37.82374        24.53261         0.36382
C         36.58287        25.18630        -0.07264
C         37.70234        27.50797         0.31188
C         36.53022        26.67515        -0.09365
C         37.76274        28.75326        -0.58912
C         36.64404        29.37815         0.32995
C         37.79121        31.62143         0.12183
C         36.62844        30.88070         0.49313
C         37.78330        33.02706         0.09433
C         36.73595        33.73407         0.71769
C         37.90410        35.93902         0.39251
C         36.97850        35.10155         1.02520
C         37.84488        37.37566         0.42842
C         36.60743        38.09485         0.60552
C         37.80477        40.20786         0.10896
C         36.58884        39.50243         0.34759
C         37.79887        41.64336         0.01692
C         36.57914        42.35144         0.06565
C         37.79148        44.48425         0.19666
C         36.58145        43.78720         0.10117
C         37.76419        45.93269         0.59908
C         36.53900        46.66555         0.07694
C         37.77342        48.83226         0.05076
C         36.60286        48.10452        -0.11002
C         37.81884        50.28398        -0.05240
C         36.59221        51.02943        -0.11296
C         37.76895        53.20380         0.03751
C         36.53977        52.41042         0.13716
C         37.80145        54.57707         0.53602
C         36.57079        55.13991         0.92837
C         40.19703        15.99980         1.77906
C         39.03086        16.69262         1.69718
C         40.20059        18.91382         1.92805
C         38.96066        18.13394         1.61965
C         40.21919        20.40131         1.79951
C         38.88162        21.10559         1.54300
C         40.21920        23.19723         1.03634
C         39.01532        22.48369         0.94673
C         40.23645        24.63257         0.87564
C         38.97624        25.27981         0.60360
C         40.08680        27.46297         0.75349
C         38.95669        26.72224         0.55396
C         39.85422        28.89103         0.68918
C         39.01754        29.49648        -0.20390
C         40.29472        31.73899        -0.28138
C         39.00490        30.96305        -0.51852
C         40.25123        33.09848        -0.54282
C         38.93854        33.77560        -0.47663
C         40.27494        35.99005        -0.46395
C         38.97904        35.28112        -0.38064
C         40.26974        37.37088        -0.29500
C         39.02830        38.08787         0.01378
C         40.21152        40.22442        -0.61452
C         39.01395        39.48670        -0.06766
C         40.25119        41.67791        -0.22887
C         39.03564        42.36951        -0.06419
C         40.25477        44.52085         0.00277
C         39.03263        43.80079         0.06799
C         40.24168        45.98529         0.08380
C         39.04588        46.66332         0.31039
C         40.29934        48.85449         0.24350
C         39.01830        48.14281         0.57410
C         40.29865        50.25996         0.23356
C         39.05011        50.96337         0.09202
C         40.34105        53.14101         0.30807
C         39.11652        52.41914        -0.04541
C         40.29955        54.55323         0.48568
C         39.05419        55.26796         0.60697
C         40.28891        57.33865         1.01225
C         39.09690        56.67041         0.85446
C         42.72927        16.02098         1.43300
C         41.50463        16.67670         1.89144
C         42.74827        18.91875         1.54497
C         41.51961        18.19415         1.93144
C         42.71901        20.37472         1.39994
C         41.50010        21.09950         1.47237
C         42.68503        23.22692         1.06788
C         41.47093        22.49730         1.23936
C         42.67637        24.66203         0.96631
C         41.43645        25.36990         0.97574
C         42.73961        27.58191         0.72186
C         41.43097        26.88391         1.19839
C         42.81775        29.00745         0.36788
C         41.74534        29.89756         0.52908
C         42.73610        31.67895        -0.75909
C         41.58735        31.10328        -0.17234
C         42.65136        33.08877        -1.17105
C         41.44707        33.84625        -0.79444
C         42.74325        35.96289        -0.79233
C         41.48376        35.25868        -0.74749
C         42.74622        37.38237        -0.59268
C         41.51382        38.09445        -0.43081
C         42.72968        40.22371        -0.42418
C         41.51638        39.50333        -0.40593
C         42.72057        41.66012        -0.33279
C         41.47681        42.37137        -0.21066
C         42.71918        44.49726        -0.17071
C         41.47917        43.80625        -0.11645
C         42.72510        45.97724        -0.46169
C         41.47039        46.70511        -0.04825
C         42.74366        48.85586         0.04355
C         41.51427        48.12850         0.08018
C         42.77056        50.25360         0.24057
C         41.53982        50.97925         0.27849
C         42.81647        53.08190         0.46253
C         41.56250        52.40421         0.38016
C         42.80610        54.56282         0.44329
C         41.52718        55.27077         0.63014
C         42.76203        57.32637         1.24640
C         41.52926        56.64520         0.91900
C         43.87651        16.74264         1.31144
C         45.25840        18.87449         1.35375
C         43.91222        18.18387         1.37524
C         45.17719        20.35233         1.02768
C         43.93274        21.07542         1.13668
C         45.12064        23.23530         0.79824
C         43.91403        22.50638         1.00131
C         45.12625        24.64198         0.78246
C         43.90932        25.37648         0.84476
C         45.21691        27.53047         0.58850
C         43.90846        26.82672         0.70454
C         45.25163        28.96581         0.04946
C         43.96914        29.62243        -0.22464
C         45.18670        31.61099        -1.21753
C         43.94139        30.94658        -0.73191
C         45.24499        33.09872        -1.18409
C         43.98690        33.85416        -1.28067
C         45.23154        35.94955        -0.82960
C         43.98242        35.28487        -0.96295
C         45.23110        37.38383        -0.64886
C         43.97722        38.09261        -0.59302
C         45.20119        40.23512        -0.51856
C         43.97441        39.51513        -0.49056
C         45.18191        41.65789        -0.45159
C         43.94296        42.36670        -0.30993
C         45.19599        44.51206        -0.15114
C         43.93712        43.80285        -0.21833
C         45.23238        45.92511         0.00579
C         43.93454        46.67290         0.17935
C         45.26140        48.82297         0.28484
C         44.03293        48.14033        -0.26613
C         45.26012        50.21453         0.46952
C         44.02516        50.95721         0.38146
C         45.36100        53.10823         0.46631
C         44.02897        52.36944         0.49272
C         45.29020        54.48939         1.09269
C         44.09398        55.30918         0.77974
C         43.95772        56.68669         1.27513
C         47.44078        18.86398         0.17322
C         46.31632        18.20404         0.50978
C         47.59261        20.28441         0.45943
C         46.35803        21.00545         0.71887
C         47.67648        23.14873         0.50488
C         46.35542        22.46604         0.53513
C         47.72371        24.60935         0.79193
C         46.42975        25.36353         0.82114
C         47.68698        27.43201         0.20230
C         46.47998        26.79158         0.47893
C         47.70755        28.82832        -0.23714
C         46.50371        29.49812        -0.47480
C         47.72827        31.61621        -0.99104
C         46.49805        30.85116        -1.06005
C         47.71265        33.04125        -1.26697
C         46.44096        33.79509        -1.15808
C         47.71892        35.91324        -0.83456
C         46.47118        35.23285        -0.97196
C         47.72801        37.34078        -0.33272
C         46.43919        38.08815        -0.55223
C         47.68569        40.21331        -0.56184
C         46.45818        39.51718        -0.53559
C         47.67299        41.68061        -0.88197
C         46.40500        42.38487        -0.46959
C         47.68324        44.42918         0.03654
C         46.40307        43.76262        -0.25631
C         47.68965        45.89638         0.30769
C         46.42598        46.64267         0.18086
C         47.69814        48.72416         0.67810
C         46.45548        48.06087         0.37042
C         47.70033        50.10553         0.98626
C         46.48661        50.88445         0.84156
C         47.65150        52.92939         1.55663
C         46.51117        52.27598         0.99258
C         47.55783        54.24384         1.96604
C         46.35756        54.99833         1.77502
C         50.07225        20.24433         0.19684
C         48.83018        20.92708         0.40445
C         50.15997        23.10598         0.26267
C         48.93950        22.37964         0.80760
C         50.12588        24.51103         0.12656
C         48.96105        25.29285         0.37434
C         50.16568        27.37854        -0.07841
C         48.93662        26.68664         0.16053
C         50.16313        28.80114        -0.26985
C         48.95912        29.48377        -0.47872
C         50.19314        31.69084        -0.53987
C         49.02895        30.87551        -1.06678
C         50.22567        33.06284        -0.65065
C         49.02204        33.79543        -1.12510
C         50.20408        35.94013        -0.78931
C         48.95893        35.24947        -0.88775
C         50.19198        37.40362        -1.15983
C         48.95136        38.12905        -0.72403
C         50.19700        40.27126        -0.75275
C         48.93928        39.51259        -0.68770
C         50.20416        41.66776        -0.64175
C         48.95444        42.40116        -0.53610
C         50.18743        44.57423        -0.49873
C         48.94881        43.74247        -0.28587
C         50.17673        45.94746         0.13085
C         48.97292        46.62778         0.30473
C         50.17410        48.68294         0.85856
C         48.94274        48.00937         0.63132
C         50.15346        50.08214         1.18973
C         48.93101        50.75459         1.30336
C         50.16713        52.90626         1.49640
C         48.91280        52.15308         1.87218
C         51.27005        20.91450         0.14796
C         52.62446        23.01385        -0.00499
C         51.36106        22.35563         0.12798
C         52.65427        24.43875        -0.36157
C         51.33325        25.22026        -0.32626
C         52.63376        27.36551        -0.21084
C         51.39180        26.68328        -0.17770
C         52.62951        28.81332        -0.12418
C         51.41441        29.49847        -0.21507
C         52.69086        31.72940         0.05211
C         51.36438        30.95976        -0.05290
C         52.67337        33.15491        -0.29716
C         51.45343        33.81971        -0.47335
C         52.68282        35.97265        -0.69085
C         51.42830        35.25540        -0.66622
C         52.67497        37.41731        -0.75929
C         51.46240        38.13608        -0.82122
C         52.67966        40.26663        -0.64580
C         51.44476        39.54912        -0.75023
C         52.68324        41.68099        -0.50155
C         51.44472        42.39757        -0.48070
C         52.66927        44.50373        -0.07551
C         51.45379        43.79394        -0.28470
C         52.66473        45.89734         0.23344
C         51.40944        46.61584         0.37864
C         52.65424        48.61981         1.27672
C         51.39288        47.96406         0.78458
C         52.62366        50.13028         1.18141
C         51.41390        50.80904         1.25826
C         51.33090        52.26305         1.27257
C         55.06377        23.08687         0.13955
C         53.86629        22.38447         0.21476
C         55.11521        24.49367        -0.05815
C         53.90066        25.20616        -0.21937
C         55.10993        27.32973        -0.10180
C         53.86891        26.62791        -0.22547
C         55.09805        28.76499         0.15252
C         53.87072        29.55288         0.00473
C         55.18699        31.68401        -0.14860
C         53.93474        30.94707        -0.02824
C         55.13643        33.13375        -0.27181
C         53.93215        33.84290        -0.40620
C         55.15316        35.99313        -0.75246
C         53.91216        35.27990        -0.60799
C         55.14719        37.43232        -0.83073
C         53.91276        38.13672        -0.74640
C         55.15597        40.27428        -0.70404
C         53.91808        39.55870        -0.70433
C         55.15658        41.69261        -0.53841
C         53.91842        42.39187        -0.40380
C         55.14585        44.50974        -0.09586
C         53.91496        43.79881        -0.18078
C         55.13462        45.91721         0.15939
C         53.89828        46.59686         0.38289
C         55.11474        48.70600         0.75524
C         53.91436        47.98518         0.73046
C         55.07043        50.12641         1.04096
C         53.89409        50.80176         1.19736
C         57.60769        24.55533        -0.28006
C         56.37539        25.21327        -0.14718
C         57.56885        27.38156        -0.39981
C         56.34506        26.64886        -0.15646
C         57.56912        28.77730        -0.54017
C         56.45068        29.54574        -0.03603
C         57.77417        31.62537        -0.25231
C         56.39212        30.99580        -0.24818
C         57.72865        33.14129        -0.39772
C         56.40712        33.88194        -0.32372
C         57.61007        35.96312        -1.00308
C         56.38091        35.29740        -0.74048
C         57.58159        37.40738        -1.27795
C         56.35548        38.15714        -0.97212
C         57.63898        40.29699        -0.88147
C         56.38474        39.56962        -0.87708
C         57.63364        41.71062        -0.65979
C         56.39002        42.40903        -0.49220
C         57.61795        44.54161        -0.21997
C         56.38278        43.81493        -0.26897
C         57.60067        45.95243         0.00901
C         56.36404        46.64155         0.21748
C         57.60730        48.73975         0.48041
C         56.36352        48.04307         0.47390
C         58.79773        25.26668        -0.50009
C         60.00532        27.41409        -0.87440
C         58.79304        26.65611        -0.61104
C         59.96247        28.72708        -1.18929
C         58.63732        29.43367        -1.38261
C         59.66891        31.65359        -1.87586
C         58.71859        30.93922        -1.21503
C         59.77605        33.08373        -1.77170
C         58.84890        33.82565        -1.07753
C         60.07357        36.00527        -1.14265
C         58.83754        35.27653        -1.10095
C         60.12300        37.36906        -1.11246
C         58.91519        38.16969        -1.33196
C         60.07789        40.34948        -0.94987
C         58.87791        39.62256        -1.03808
C         60.07426        41.72015        -0.74326
C         58.86357        42.43243        -0.60258
C         60.06017        44.62138        -0.36042
C         58.85573        43.86620        -0.39494
C         60.04778        45.98427        -0.15470
C         58.82377        46.67708         0.04094
C         58.79679        48.08230         0.26879
O         47.03607        22.85124        -0.75911
O         25.75684        35.68096         1.55154
O         55.94310        29.14153         1.27262
O         37.74404        20.46898        -0.64136
O         48.55792        33.40654        -2.47058
O         47.17965        25.03716         2.07390
O         40.75084        29.63430         1.46940
O         57.30222        33.73471         0.86796
O         28.57430        33.00205         1.70032
O         40.17142        19.78259         3.13655
O         43.20684        33.45654        -2.46408
O         58.19367        37.79938        -2.55435
O         29.30394        42.97795        -1.86055
O         37.26302        28.44200         1.42380
O         43.65229        55.14455        -0.62516
O         27.59856        29.12805        -2.12767
O         41.68706        17.40789         3.15926
O         35.37167        49.62495        -1.68481
O         47.67153        44.92992         1.44404
O         45.34443        28.66622         1.50221
O         38.57729        34.61108        -1.63012
O         29.60045        40.06771         1.52429
O         36.73422        25.96804        -1.36467
O         51.87864        31.42071         1.23664
O         34.93198        33.37697         2.43075
O         36.24378        35.64439         2.08815
O         32.80008        27.86292         1.74977
O         45.78827        30.97925        -2.38686
O         38.46276        52.97673        -1.22764
O         51.89960        24.74420        -1.58864
O         31.61219        46.66641         1.66159
H         30.70159        46.89905         1.94769
O         27.69279        45.81126         1.41112
H         26.81702        45.40644         1.59105
O         29.10047        35.39953         2.32993
H         28.66498        34.58924         2.69163
O         50.15901        44.86825        -1.95434
H         50.13144        44.00789        -2.42719
O         38.81377        31.10133        -1.96048
H         38.27048        30.34494        -2.28125
O         47.83316        37.19296         1.14696
H         47.76926        38.09305         1.53338
O         52.69534        48.32936         2.73061
H         53.53231        48.70972         3.07361
O         26.80999        31.56893        -2.28430
H         27.32707        30.89969        -2.79343
O         44.22181        48.19083        -1.72388
H         44.27873        49.13605        -1.98079
O         38.23901        21.34546         2.82731
H         38.72699        20.80017         3.49370
O         24.57871        37.60343        -2.47516
H         25.38069        38.10490        -2.73489
O         45.74428        18.77921         2.73932
H         45.02848        19.10288         3.32691
O         48.93702        52.00725         3.33422
H         49.71909        51.45982         3.55991
O         40.01847        40.23504        -2.08192
H         39.98521        39.30024        -2.37885
O         30.37489        33.43677        -1.38991
H         31.13448        33.00617        -1.83555
O         49.29505        30.69247        -2.50866
H         49.11101        31.56740        -2.93310
O         58.31599        31.34649         1.07299
H         57.89920        31.99890         1.68246
O         47.65683        41.74073        -2.36707
H         46.90941        41.18376        -2.67471
O         42.77666        46.01975        -1.91424
H         43.14055        46.89721        -2.18933
O         49.07199        22.40277         2.26196
H         49.86093        21.87209         2.50025
O         34.14173        46.56466        -2.05759
H         34.79417        47.22830        -2.37250
O         41.44223        27.06167         2.64983
H         41.33870        28.02487         2.82109
O         38.90948        48.28864         2.06720
H         39.77090        48.00136         2.44245
O         37.50863        28.63345        -1.97391
H         37.17046        27.72774        -2.16384
O         50.13302        37.40527        -2.64093
H         50.92806        36.93252        -2.96788
O         58.26116        29.21756        -2.79081
H         58.28659        28.25069        -2.95530
O         45.66086        53.32506        -0.95778
H         44.99413        53.98539        -1.27458
O         43.65639        46.67544         1.60646
H         44.48649        46.89372         2.08073
O         37.61282        45.91637         2.06698
H         37.82780        46.83233         2.37804
O         32.38062        32.86263         2.62056
H         33.20692        32.74668         3.14610
H         22.12045        26.82426        -1.06885
H         22.09317        29.26703        -0.82737
H         22.07210        31.06223        -0.37277
H         21.98654        33.47428        -0.15177
H         21.95412        35.43729        -0.33451
H         22.04996        37.77943        -0.92854
H         22.15570        39.61869        -1.48311
H         22.12707        42.05205        -1.48611
H         22.10537        43.95572        -1.49176
H         22.11868        46.40899        -1.56877
H         25.43761        23.43562        -0.93952
H         23.33985        24.69637        -1.09985
H         25.42502        49.80654        -1.01643
H         23.34517        48.56123        -1.41066
H         27.06314        22.47601        -0.81031
H         26.98447        50.74379        -0.44076
H         29.13135        21.24606        -0.57210
H         29.05852        51.98705        -0.22756
H         32.87423        19.08625        -0.04929
H         30.78270        20.28114        -0.28718
H         32.76428        54.09283         0.68842
H         30.67280        52.89938         0.34228
H         34.56884        18.14557         0.18700
H         34.44342        54.97241         1.06810
H         36.55771        17.01390         0.89480
H         36.53796        56.16816         1.31395
H         40.18375        14.90022         1.75349
H         38.09708        16.12177         1.59869
H         40.29515        58.41901         1.21528
H         38.15714        57.23551         0.91589
H         42.71884        14.94034         1.22926
H         42.69456        58.37411         1.57503
H         44.80470        16.20693         1.07214
H         44.84585        57.20958         1.65672
H         48.24236        18.34120        -0.36830
H         46.22269        17.13981         0.25420
H         48.39778        54.72296         2.48680
H         46.32753        56.02130         2.17697
H         50.07440        19.15095         0.08269
H         50.14303        54.00616         1.49416
H         52.19046        20.33071         0.00818
H         52.23804        52.84975         1.06906
H         55.99849        22.53356         0.30264
H         53.90114        21.31282         0.45608
H         56.00722        50.69756         1.07211
H         53.92740        51.89259         1.32657
H         57.65275        23.45816        -0.25158
H         57.63004        49.82262         0.65943
H         59.74191        24.71582        -0.61930
H         60.96942        26.88589        -0.81742
H         60.88984        29.27693        -1.40784
H         60.37205        31.13568        -2.54444
H         60.57793        33.59072        -2.32627
H         61.00793        35.43318        -1.04768
H         61.08394        37.86989        -0.93011
H         61.04070        39.83654        -1.07562
H         61.03768        42.24372        -0.70105
H         61.02725        44.12190        -0.50344
H         60.99146        46.54815        -0.13492
H         59.74510        48.63870         0.28163
