         634
 CSIRO Nanostructure Databank - Neutral Graphene Oxide Data Set
C         22.86556        69.86919        -0.20118
C         22.88734        71.27510        -0.25787
C         21.69931        72.04042        -0.46988
C         22.99465        74.09585        -0.48915
C         21.75840        73.41447        -0.57632
C         25.32701        65.59250        -0.40717
C         25.30068        67.00437        -0.28331
C         24.08746        67.71867        -0.21017
C         25.31471        69.84538         0.02159
C         24.06848        69.13384        -0.12421
C         25.32718        71.24636         0.14051
C         24.13275        71.97094        -0.09319
C         25.46133        74.06689        -0.18202
C         24.17240        73.39589        -0.24343
C         27.82106        61.30307        -0.38679
C         27.79570        62.72211        -0.40650
C         26.57389        63.44386        -0.43281
C         27.79053        65.56640        -0.45836
C         26.54810        64.85711        -0.44630
C         27.81037        67.05328        -0.68835
C         26.53851        67.75300        -0.28930
C         27.80428        69.93030        -0.32588
C         26.54711        69.11788        -0.10250
C         27.87554        71.18948         0.58208
C         26.53671        71.99151         0.67259
C         27.85820        74.20722         0.46308
C         26.60234        73.42235         0.16907
C         30.30612        57.02227        -0.38421
C         30.27500        58.43550        -0.36860
C         29.05788        59.15880        -0.35889
C         30.27676        61.29096        -0.23200
C         29.03796        60.57717        -0.32560
C         30.28072        62.72722        -0.24413
C         29.03341        63.44574        -0.36386
C         30.24103        65.61553        -0.19382
C         29.00651        64.87277        -0.37870
C         30.24437        66.97234         0.05097
C         29.03850        67.73955        -0.13469
C         30.30642        69.82857         0.09203
C         29.05873        69.11505        -0.09318
C         30.32295        71.30154        -0.24134
C         29.07727        72.03600         0.18877
C         30.35437        74.12401         0.05307
C         29.11671        73.41060         0.20137
C         32.79605        52.76911         0.05285
C         32.77713        54.18433        -0.11638
C         31.55785        54.89156        -0.26065
C         32.76700        57.02777        -0.41358
C         31.53158        56.30606        -0.35779
C         32.75893        58.45895        -0.44233
C         31.52058        59.15852        -0.35150
C         32.75988        61.26397        -0.12093
C         31.52320        60.57785        -0.23688
C         32.74585        62.70614         0.29038
C         31.49804        63.41463        -0.15902
C         32.79366        65.60763        -0.18565
C         31.51035        64.86962        -0.29492
C         32.77885        67.03541         0.21657
C         31.45890        67.66208         0.64560
C         32.70438        69.88484         0.65803
C         31.45771        69.15128         0.37304
C         32.74743        71.33726         0.40184
C         31.59940        72.01628         0.13467
C         32.83246        74.16762         0.18550
C         31.59719        73.47448         0.06955
C         35.25736        48.48090         0.27705
C         35.23520        49.89843         0.20272
C         34.01847        50.61824         0.15212
C         35.26533        52.72881         0.11560
C         34.00797        52.02951         0.11986
C         35.26766        54.22380         0.29110
C         34.00210        54.91520        -0.11306
C         35.23430        57.03112        -0.52117
C         34.01916        56.32066        -0.34445
C         35.22467        58.47885        -0.95045
C         33.97698        59.18612        -0.50695
C         35.25528        61.28192        -0.19602
C         33.98989        60.57845        -0.28576
C         35.23714        62.68882        -0.05712
C         34.04033        63.41977         0.00015
C         35.23830        65.57795        -0.10438
C         34.06977        64.85995        -0.02065
C         35.22933        67.07980        -0.27127
C         33.95572        67.70717         0.26364
C         35.27839        69.84938         0.65434
C         34.00695        69.11817         0.70067
C         35.23669        71.32833         0.93616
C         34.09161        71.98354         0.14995
C         35.29514        74.14304         0.39354
C         34.06756        73.48999         0.29188
C         37.75534        44.21074         0.21502
C         37.68158        45.61218         0.23128
C         36.49156        46.34412         0.38274
C         37.70378        48.52373         0.35941
C         36.47180        47.77857         0.33592
C         37.72153        49.91080         0.24299
C         36.47774        50.61446         0.13917
C         37.78390        52.72348        -0.26115
C         36.47061        52.03186         0.06223
C         37.74667        54.18967        -0.02648
C         36.49493        54.83836        -0.36947
C         37.78935        56.99225        -0.92778
C         36.46567        56.28921        -0.75193
C         37.79551        58.51884        -1.11705
C         36.51727        59.20361        -0.65094
C         37.76624        61.29719        -0.25434
C         36.50621        60.55912        -0.35258
C         37.78780        62.69657        -0.09059
C         36.51307        63.44739         0.21011
C         37.73442        65.56222         0.13404
C         36.52453        64.85787        -0.40465
C         37.61502        66.91439         0.61515
C         36.45032        67.73083         0.33400
C         37.75360        69.82919         0.73820
C         36.47600        69.12187         0.60911
C         37.74902        71.27961         0.63830
C         36.55099        72.00500         0.62911
C         37.77000        74.09742         0.31771
C         36.54522        73.42666         0.45298
C         40.29161        39.95799         0.48036
C         40.25133        41.36933         0.27456
C         39.06024        42.08602         0.33315
C         40.20660        44.21935        -0.02936
C         39.00593        43.51544         0.14270
C         40.22384        45.67273        -0.16762
C         38.92147        46.39735         0.01135
C         40.24063        48.52088         0.49187
C         38.95730        47.75422         0.67337
C         40.21095        49.90138         0.54635
C         38.98412        50.65101         0.35578
C         40.23821        52.81898         0.43515
C         39.01828        52.03169         0.25736
C         40.22117        54.20284         0.42052
C         38.93838        54.99926         0.34435
C         40.29382        57.03579        -0.36054
C         39.04522        56.27570        -0.52722
C         40.27429        58.43990        -0.41484
C         39.04192        59.18002        -0.56089
C         40.22333        61.31386        -0.16834
C         39.01033        60.58659        -0.34196
C         40.23530        62.71601        -0.00360
C         39.00359        63.41079        -0.01895
C         40.25466        65.59221         0.45400
C         39.04832        64.91956        -0.16651
C         40.23197        66.91937         0.78758
C         38.96262        67.66908         0.95338
C         40.23508        69.81986         0.74939
C         38.95796        69.13560         0.80316
C         40.22752        71.25496         0.56443
C         39.00008        71.96646         0.50803
C         40.23526        74.07366         0.21416
C         39.00370        73.39497         0.34755
C         42.89738        35.86465         1.17215
C         42.81634        37.19821         0.73185
C         41.57055        37.87591         0.69604
C         42.64302        39.87336        -0.37926
C         41.47118        39.22544         0.31970
C         42.66054        41.37912        -0.22704
C         41.51646        42.06757         0.02271
C         42.64497        44.28106        -0.60521
C         41.54207        43.56870         0.20130
C         42.70578        45.73738        -0.20134
C         41.49648        46.40344         0.05441
C         42.73272        48.45026         0.50091
C         41.48939        47.78265         0.38856
C         42.73752        49.84711         0.96851
C         41.44095        50.64666         0.88058
C         42.70360        52.79741         0.75482
C         41.49513        52.11486         0.70162
C         42.76073        54.23613         0.63135
C         41.46487        55.02237         0.69775
C         42.76889        57.06331         0.00781
C         41.56122        56.22685        -0.30543
C         42.74950        58.44918        -0.14165
C         41.51912        59.14617        -0.36327
C         42.76182        61.34621        -0.13079
C         41.49185        60.60615        -0.38737
C         42.71664        62.66649         0.59300
C         41.46675        63.45531         0.27339
C         42.73006        65.45393         1.06621
C         41.47222        64.80726         0.52024
C         42.73816        66.95448         0.94668
C         41.45406        67.66378         1.29905
C         42.69832        69.82071         0.85309
C         41.44259        69.12735         0.89935
C         42.69619        71.26069         0.62486
C         41.45677        71.95868         0.48319
C         42.70072        74.07700         0.17140
C         41.46260        73.38394         0.27944
C         45.46702        33.25402         1.95268
C         44.22323        33.87219         1.77143
C         45.36008        35.95236         1.08937
C         44.14037        35.21328         1.33426
C         45.29871        37.27667         0.67072
C         44.04046        37.91905         0.42214
C         45.17796        39.97416        -0.31422
C         43.97885        39.24428        -0.04577
C         45.18809        41.35224        -0.45421
C         43.90157        42.07757        -0.74058
C         45.15016        44.21975        -0.42719
C         43.95640        43.55217        -0.45008
C         45.17329        45.71901        -0.68080
C         43.92952        46.42661        -0.18692
C         45.21757        48.51260         0.25822
C         43.95098        47.79274         0.19025
C         45.26263        49.88939         0.55795
C         44.03462        50.58808         0.98961
C         45.25566        52.80853         0.63435
C         43.99809        52.10082         0.94541
C         45.24958        54.22170         0.56230
C         43.96784        54.91102         0.56894
C         45.26604        57.07729         0.27823
C         43.96621        56.41685         0.65923
C         45.26076        58.46808         0.03677
C         44.00049        59.19035        -0.04098
C         45.22396        61.33099        -0.05739
C         44.01472        60.57646        -0.01572
C         45.22080        62.72633         0.07518
C         43.99762        63.43770         0.36487
C         45.21183        65.55814         0.45455
C         43.99007        64.79890         0.54965
C         45.18209        66.93716         0.66463
C         43.92926        67.65295         0.87442
C         45.17365        69.84692         1.06838
C         43.90817        69.10831         0.95995
C         45.17776        71.31687         0.74874
C         43.89373        71.97685         0.48350
C         45.18613        74.08805         0.26952
C         43.92044        73.39534         0.25804
C         46.65259        33.93304         1.69514
C         47.82991        35.93629         0.88751
C         46.64437        35.28545         1.24961
C         47.82703        37.28088         0.39255
C         46.56680        38.09987         0.59198
C         47.68896        39.99828        -0.57869
C         46.44136        39.17029        -0.49598
C         47.67527        41.35473        -0.64029
C         46.42068        42.09952        -0.53239
C         47.63830        44.28708        -0.85569
C         46.40108        43.49022        -0.50710
C         47.64595        45.70032        -0.30524
C         46.44196        46.40241        -0.24058
C         47.67888        48.50161         0.10473
C         46.44020        47.79922         0.04780
C         47.69777        49.92488         0.31028
C         46.47966        50.62038         0.53236
C         47.68952        52.79572         0.60015
C         46.47318        52.08146         0.61927
C         47.71483        54.21473         0.56911
C         46.48199        54.93206         0.52517
C         47.71636        57.09423         0.31085
C         46.49442        56.38336         0.37899
C         47.71211        58.48949         0.01893
C         46.47372        59.16174        -0.13125
C         47.71952        61.36649        -0.28716
C         46.44727        60.61004        -0.53966
C         47.71026        62.75581        -0.19540
C         46.45611        63.47226        -0.00324
C         47.69845        65.60138         0.08540
C         46.45372        64.85492         0.19054
C         47.69440        66.96467         0.28431
C         46.47040        67.64385         0.75260
C         47.71243        69.89859         0.68927
C         46.48005        69.12104         0.99911
C         47.68253        71.20818         0.34147
C         46.38282        71.92627         0.05849
C         47.65388        74.09887         0.37743
C         46.41490        73.42574         0.27589
C         48.92907        37.83927        -0.19994
C         50.16693        40.00011        -0.40214
C         48.95720        39.21214        -0.82410
C         50.18496        41.36627        -0.50566
C         48.95071        42.09087        -1.00453
C         50.21368        44.30762        -0.70757
C         48.92520        43.54259        -0.63979
C         50.13305        45.58693         0.13349
C         48.87584        46.38296        -0.11511
C         50.17145        48.52148        -0.29125
C         48.89460        47.77487        -0.00822
C         50.16005        49.93779         0.21845
C         48.95040        50.61415         0.37942
C         50.19391        52.78727         0.37988
C         48.96909        52.05101         0.84343
C         50.18837        54.23054         0.34097
C         48.97592        54.92026         0.52741
C         50.26982        57.12449         0.38465
C         48.97961        56.40810         0.80740
C         50.22891        58.55434        -0.04537
C         48.92792        59.22929        -0.16803
C         50.17344        61.33717        -0.55535
C         48.94912        60.63415        -0.36353
C         50.17825        62.75536        -0.49116
C         48.95340        63.47810        -0.25736
C         50.16709        65.61291        -0.31530
C         48.94633        64.89284        -0.19426
C         50.18819        67.04575        -0.13604
C         48.88520        67.81724        -0.08333
C         50.21523        69.87967         0.41745
C         48.99400        69.09226         0.79238
C         50.19672        71.28227         0.31326
C         48.91772        71.96799        -0.09128
C         50.11271        74.11550         0.42415
C         48.89781        73.43454         0.30276
C         51.35972        42.11361        -0.18847
C         52.59474        44.20321         0.08370
C         51.42317        43.50767        -0.24879
C         52.64735        45.63454         0.13001
C         51.41742        46.37395         0.05585
C         52.65428        48.47446         0.17775
C         51.42931        47.76218         0.05163
C         52.65945        49.90839         0.26583
C         51.40240        50.63003         0.30524
C         52.64473        52.80556         0.31785
C         51.37684        52.05412         0.30061
C         52.62953        54.14485        -0.36675
C         51.41136        54.94284         0.04901
C         52.65943        57.04101        -0.33482
C         51.46425        56.33393        -0.01316
C         52.67090        58.44196        -0.53295
C         51.34852        59.05695        -0.94746
C         52.67892        61.30759        -0.85526
C         51.36563        60.61327        -1.17020
C         52.67391        62.79996        -1.10555
C         51.39544        63.49234        -0.64316
C         52.64816        65.62283        -0.73309
C         51.37923        64.88331        -0.54552
C         52.64738        67.10581        -0.44966
C         51.37897        67.75099        -0.07469
C         52.65370        69.84427         0.32099
C         51.43259        69.16206         0.24943
C         52.63967        71.27184         0.79017
C         51.38596        72.00554         0.40203
C         52.60630        74.13315         0.46386
C         51.38263        73.44558         0.40588
C         53.86293        46.33253         0.21329
C         55.11828        48.46660         0.23815
C         53.89476        47.75217         0.23331
C         55.14146        49.88063         0.22690
C         53.89181        50.58394         0.32306
C         55.17559        52.76466         0.08842
C         53.93677        52.04809         0.39301
C         55.13850        54.18794        -0.05995
C         53.92507        54.87596        -0.19425
C         55.17067        57.05722        -0.28067
C         53.92820        56.29653        -0.65180
C         55.12436        58.46713        -0.31750
C         53.87749        59.16902        -0.53440
C         55.12595        61.33735        -0.45141
C         53.86869        60.62133        -0.62701
C         55.15216        62.77367        -0.50947
C         53.93106        63.50253        -0.64753
C         55.13639        65.62735        -0.38279
C         53.92784        64.89450        -0.57254
C         55.13462        67.05593        -0.19930
C         53.91627        67.77748        -0.12980
C         55.12874        69.87274         0.30539
C         53.90043        69.15997         0.17355
C         55.11659        71.31332         0.40318
C         53.89968        72.02128         0.47263
C         55.09493        74.14827         0.37436
C         53.87261        73.44898         0.43908
C         56.35680        50.61347         0.13453
C         57.60890        52.76327        -0.09971
C         56.39669        52.03607         0.03208
C         57.61122        54.18053        -0.12381
C         56.38484        54.90920        -0.10990
C         57.62349        57.05134         0.04485
C         56.39252        56.34132        -0.11360
C         57.53999        58.48272         0.11984
C         56.33365        59.19671        -0.13602
C         57.57377        61.34973        -0.06264
C         56.34090        60.63809        -0.18821
C         57.62558        62.77673        -0.25113
C         56.37711        63.48805        -0.43090
C         57.60364        65.64088        -0.36789
C         56.37641        64.92341        -0.39594
C         57.60801        67.04868        -0.16226
C         56.36399        67.75205        -0.01879
C         57.58553        69.87855         0.36414
C         56.36173        69.16709         0.21441
C         57.58259        71.31502         0.46431
C         56.34644        72.02871         0.39502
C         57.57906        74.14968         0.36692
C         56.34021        73.46351         0.38742
C         58.82292        54.91780        -0.20912
C         60.15343        56.94215        -0.31906
C         58.87240        56.31692        -0.09121
C         60.46606        58.21973         0.14399
C         58.66554        59.26540         0.48031
C         60.08645        61.26864         0.17558
C         58.79799        60.64464         0.20279
C         60.11636        62.77901         0.27949
C         58.84405        63.45154        -0.23057
C         60.13690        65.64208        -0.57113
C         58.84248        64.86425        -0.79271
C         60.10850        67.10689        -0.21231
C         58.82071        67.79035        -0.03640
C         60.05603        69.85941         0.53846
C         58.83022        69.16955         0.29287
C         60.03700        71.29327         0.99304
C         58.79154        72.02663         0.58096
C         60.06113        74.12562         0.36939
C         58.80974        73.45323         0.46124
C         61.42228        59.16029        -0.28156
C         62.55550        61.29317        -0.20447
C         61.31242        60.56253        -0.05019
C         62.66562        62.66528        -0.19549
C         61.34116        63.41262        -0.39772
C         62.30565        65.56732         0.53250
C         61.31540        64.89088        -0.11076
C         62.44931        66.99459         0.55696
C         61.31614        67.75019         0.34340
C         62.51666        69.85179         0.78825
C         61.29433        69.17336         0.57523
C         62.52368        71.28900         0.61197
C         61.30703        72.00789         0.61824
C         62.50780        74.03298        -0.04437
C         61.29015        73.40361         0.34393
C         63.96094        63.29752        -0.36316
C         65.17916        65.54791         0.00514
C         64.22773        64.53541         0.23490
C         65.06127        66.90250         0.46662
C         63.77678        67.58277         0.89263
C         65.06875        69.91437         0.99147
C         63.77382        69.10363         1.00330
C         64.98335        71.14949         0.07519
C         63.72592        71.95572         0.26653
C         64.89677        73.88174        -0.86371
C         63.70077        73.30948        -0.12793
C         66.20642        67.69502         0.35343
C         67.46597        69.77373         0.29570
C         66.28995        69.10720         0.56297
C         67.56860        71.24470         0.30823
C         66.23020        72.00930         0.22020
C         67.41430        73.94859        -0.69407
C         66.22721        73.32633        -0.41871
C         68.74111        71.93582        -0.23154
C         68.66798        73.24885        -0.59259
O         45.27529        70.87250         2.13227
O         38.14448        67.15404         1.99474
O         32.25941        65.36215        -1.54844
O         63.77061        68.22895         2.20370
O         45.20218        45.78974        -2.12807
O         50.62830        58.21459         1.32826
O         60.36143        66.63603        -1.62926
O         39.46576        46.25939        -1.31713
O         63.28380        64.86339         1.22700
O         42.26174        61.30649        -1.49342
O         41.95768        50.12411         2.16592
O         52.62832        66.57644        -1.84042
O         36.27994        55.19280        -1.77936
O         44.17390        51.36354         2.21714
O         66.96059        71.92312         1.45789
O         33.26896        69.43380         1.95769
O         38.58782        56.25506        -1.92800
O         46.64090        68.21770         2.15639
O         53.29700        52.69624         1.60430
O         59.65469        58.65996         1.23216
O         48.90432        56.50493         2.26594
H         49.41243        57.31441         2.51262
O         48.92024        71.94529        -1.55525
H         47.97741        71.92154        -1.84915
O         30.32762        71.36307        -1.71625
H         29.42297        71.07104        -2.00524
O         34.95529        71.54006         2.34646
H         35.47482        70.89425         2.86857
O         35.11992        58.41229        -2.42461
H         36.04482        58.44915        -2.78467
O         36.52209        63.68607         1.65077
H         36.27411        62.85342         2.10444
O         27.77502        70.34998        -1.72296
H         27.67858        69.52784        -2.25790
O         50.40912        44.69951        -2.08957
H         50.17874        43.92610        -2.65195
O         42.30016        44.23494        -2.02182
H         42.93896        44.83302        -2.47633
O         49.03821        39.02807        -2.28804
H         49.11456        39.93339        -2.67462
O         50.02183        45.11385         1.51238
H         49.96845        45.89566         2.10118
O         59.98861        71.25122         2.48010
H         60.09964        72.17292         2.79728
O         37.84810        58.72213        -2.58108
H         38.38300        57.97226        -2.93663
O         43.80407        56.71499         2.11920
H         44.56440        56.30337         2.58602
O         58.67486        64.72109        -2.23893
H         59.09175        65.51821        -2.64169
O         49.09156        51.99268         2.32004
H         49.99690        51.67423         2.52583
O         52.50034        53.85729        -1.79931
H         52.83794        54.65447        -2.27911
O         41.88117        43.81764         1.60407
H         41.20633        43.37480         2.16069
O         41.32485        55.57208         2.03585
H         42.16923        56.04963         2.26513
O         35.46741        54.49885         1.71846
H         34.71516        54.10366         2.20762
O         51.04760        58.42328        -2.22409
H         51.49097        58.95328        -2.92553
O         42.70394        65.16127         2.53255
H         43.53304        65.52942         2.91110
O         43.77099        41.97200        -2.21729
H         43.12144        42.67916        -2.47801
O         64.95705        70.67296        -1.30064
H         64.90390        71.47003        -1.88261
O         52.70795        62.98963        -2.56326
H         52.07965        62.33004        -2.94863
O         38.90503        47.44119         2.11049
H         39.04319        48.27726         2.60484
O         41.75792        55.57922        -1.60714
H         41.60395        56.24957        -2.30576
O         46.31316        60.58786        -2.02130
H         46.02604        61.48249        -2.30456
O         42.65308        62.35033         2.01463
H         42.62089        63.21436         2.49607
O         26.26678        72.17084         2.11593
H         25.36369        72.54795         2.19487
O         41.35657        67.64170         2.76084
H         41.52545        66.71095         3.04119
O         64.73260        73.48136        -2.25187
H         63.85037        73.78588        -2.55133
O         60.22178        63.11567         1.70109
H         59.55934        62.58400         2.19029
O         47.50391        44.44685        -2.32101
H         46.63154        44.97771        -2.44935
O         31.34572        67.47716         2.08824
H         31.99795        68.09871         2.49655
O         53.94446        56.21469        -2.15949
H         53.76701        57.12277        -2.49058
O         52.59866        71.20460         2.27786
H         52.53337        72.12800         2.60416
O         49.23021        68.69529         2.16024
H         48.35608        68.42064         2.54046
O         34.37635        71.69243        -1.25190
H         33.66738        72.09813        -1.79517
O         50.21991        48.64866        -1.75929
H         49.33347        48.93740        -2.06360
O         65.23581        70.38305         2.34013
H         65.00782        69.63238         2.93293
O         37.90354        52.63365        -1.74117
H         37.35621        53.35425        -2.13290
O         42.44483        39.60839        -1.80688
H         43.02783        40.24768        -2.29143
O         49.01865        42.08815        -2.48852
H         48.31795        42.72551        -2.78850
O         39.25325        65.13696        -1.61987
H         38.42450        64.81633        -2.06328
O         27.81269        74.58948         1.85557
H         27.54218        73.79186         2.36461
O         35.25916        67.31546        -1.73269
H         34.38642        67.03539        -2.08767
O         32.65800        62.70491         1.78999
H         31.89271        62.14074         2.03458
O         48.62409        68.29770        -1.43839
H         48.81373        67.56842        -2.06550
O         61.10571        63.27511        -1.82563
H         61.74211        63.84698        -2.30240
O         38.66394        55.54442         1.68184
H         39.54184        55.68359         2.12313
O         46.30347        38.48280        -1.77166
H         47.18511        38.48299        -2.21851
O         51.15526        60.82269        -2.62341
H         50.19361        60.72344        -2.79737
O         46.14217        71.72928        -1.38281
H         45.45862        72.37743        -1.66006
O         28.19831        70.63973         1.88066
H         27.75420        71.19020         2.56435
O         46.69219        38.79716         1.86350
H         46.78530        38.12197         2.56771
O         27.90445        67.25093        -2.15834
H         28.64418        66.69026        -2.47894
O         36.59915        64.74179        -1.86467
H         36.28259        65.60673        -2.22356
H         23.02574        75.18696        -0.61998
H         25.49275        75.14262        -0.41740
H         27.87626        75.15328        -0.13576
H         30.32243        75.22412         0.06008
H         32.82289        75.26804         0.22889
H         35.32654        75.24379         0.38129
H         37.78031        75.18892         0.17975
H         40.23603        75.16414         0.06928
H         42.69262        75.17007         0.04925
H         45.17074        75.18763         0.31278
H         47.64401        75.18930         0.53452
H         50.10141        75.20581         0.58006
H         52.60524        75.23305         0.47196
H         55.08823        75.24804         0.34528
H         57.58685        75.24742         0.29270
H         60.07495        75.21309         0.20713
H         62.49107        75.09227        -0.34519
H         64.89832        75.00587        -0.80913
H         67.41398        74.95464        -1.13921
H         21.90734        69.33558        -0.28654
H         20.73833        71.51567        -0.57015
H         20.83990        73.99106        -0.75452
H         24.37470        65.04171        -0.41522
H         23.13453        67.17324        -0.28039
H         26.87075        60.75075        -0.43405
H         25.62442        62.88828        -0.42856
H         29.35917        56.46271        -0.37299
H         28.10615        58.60901        -0.40309
H         31.84033        52.22504         0.06768
H         30.60813        54.33709        -0.23853
H         34.30668        47.92730         0.28607
H         33.06552        50.06891         0.14144
H         36.83683        43.62225         0.35981
H         35.53321        45.80828         0.46055
H         39.38323        39.45059         0.84152
H         38.11615        41.54537         0.49715
H         41.97104        35.31804         1.40579
H         40.67405        37.35277         1.06459
H         45.50459        32.20959         2.29353
H         43.29813        33.31194         1.96959
H         47.61742        33.42118         1.82355
H         48.77618        35.37362         0.89570
H         49.84727        37.23710        -0.29484
H         51.06228        39.46467        -0.04966
H         52.25439        41.55407         0.12965
H         53.51025        43.63352         0.30869
H         54.81037        45.77397         0.23437
H         56.06659        47.90985         0.21374
H         57.30513        50.05680         0.10003
H         58.56519        52.22183        -0.13413
H         59.76718        54.36585        -0.33006
H         60.88917        56.38978        -0.92224
H         62.29260        58.80473        -0.85314
H         63.47622        60.69029        -0.25008
H         64.74575        62.75832        -0.91788
H         66.07871        65.30438        -0.58204
H         67.13293        67.19638         0.02369
H         68.34356        69.20276        -0.04845
H         69.68040        71.37582        -0.35251
H         69.57143        73.76436        -0.94884
