         671
 CSIRO Nanostructure Databank - Neutral Graphene Oxide Data Set
C          6.08892        31.98467         1.20096
C          6.08636        33.34337         1.07553
C          8.45748        27.55586         0.60363
C          8.33028        29.00848         0.18900
C          7.18680        29.79980         0.79607
C          8.19861        31.84799        -0.17926
C          7.14982        31.15748         0.66383
C          8.29230        33.34626        -0.06582
C          7.16607        34.08296         0.45357
C          8.29739        36.20834        -0.07164
C          7.20882        35.47395         0.48328
C          8.36957        37.58537         0.03603
C         11.03737        23.35739         0.98374
C         10.98021        24.75026         0.78423
C          9.73993        25.44653         0.73752
C         10.96025        27.62613         0.52988
C          9.65128        26.85640         0.55318
C         10.79453        29.03691        -0.00818
C          9.62855        29.81723         0.52600
C         10.65632        31.85865        -0.56633
C          9.55133        31.20000        -0.07119
C         10.64358        33.28265        -0.82417
C          9.41830        33.99535        -0.54554
C         10.70368        36.12174        -0.86140
C          9.35072        35.46442        -0.86120
C         10.70564        37.62941        -1.00465
C          9.51536        38.33743        -0.37504
C         10.81158        40.43846        -0.50254
C          9.58541        39.70529        -0.23278
C         10.84735        41.84348        -0.62033
C         13.57934        19.09767         1.42157
C         13.57241        20.56740         1.74866
C         12.30158        21.26845         1.33285
C         13.51104        23.39604         0.98777
C         12.27382        22.64468         1.10225
C         13.46712        24.74204         0.67032
C         12.22558        25.46336         0.56001
C         13.39990        27.44598        -0.23407
C         12.18981        26.81108         0.13903
C         13.45914        28.61671        -1.01763
C         11.59692        29.67423        -0.90128
C         13.08243        31.71109        -1.13946
C         11.85535        31.10944        -0.89400
C         13.11903        33.18095        -1.16642
C         11.85659        33.93386        -1.09296
C         13.12221        36.12216        -1.32420
C         11.84854        35.39476        -1.08906
C         13.20709        37.53227        -0.96157
C         11.98626        38.22300        -0.42253
C         13.25201        40.39117        -0.76744
C         12.02294        39.71824        -0.60227
C         13.26410        41.80780        -0.92228
C         12.05704        42.51933        -0.86170
C         13.35549        44.70811        -0.88647
C         12.02715        44.01275        -1.11368
C         13.36582        46.09121        -0.71298
C         15.90553        14.77954         1.06553
C         15.93870        16.19809         1.12243
C         14.74738        16.96919         1.20474
C         16.06610        19.07549         1.58799
C         14.75793        18.37749         1.36737
C         16.11025        20.56719         1.47385
C         14.80081        21.24334         1.07917
C         16.03935        23.37225         0.64681
C         14.84096        22.75589         1.34910
C         15.99776        24.73183         0.30211
C         14.75114        25.47279         0.58543
C         15.89709        27.54954        -0.40159
C         14.70203        26.91093         0.16985
C         15.80078        28.89997        -0.81907
C         14.51775        29.51387        -1.01584
C         15.65616        31.67695        -1.33794
C         14.35560        30.92528        -1.58050
C         15.59992        33.09415        -0.82498
C         14.34307        33.84514        -1.20044
C         15.66850        36.02876        -0.97819
C         14.44034        35.30507        -1.36901
C         15.65608        37.41091        -0.90171
C         14.43307        38.19053        -0.93702
C         15.73157        40.31148        -0.77349
C         14.48030        39.62738        -0.78404
C         15.73017        41.80588        -0.52740
C         14.57332        42.50441        -1.24618
C         15.80200        44.65840        -0.73521
C         14.56997        43.98319        -0.91236
C         15.81596        46.07799        -0.61628
C         14.58714        46.81430        -0.61187
C         15.82892        48.94707        -0.52345
C         14.61060        48.22820        -0.53199
C         15.85672        50.36737        -0.39288
C         18.32342        10.46131         1.21418
C         18.28303        11.83950         0.97071
C         17.10872        12.59618         1.11018
C         18.33732        14.72652         0.87558
C         17.09782        14.02980         1.02102
C         18.37612        16.13180         0.83194
C         17.19700        16.86367         1.06090
C         18.33125        19.01946         0.46252
C         17.37737        18.30771         1.45964
C         18.68050        20.48055         0.91859
C         17.42374        21.35938         1.28610
C         18.30950        23.25393        -0.18202
C         17.22284        22.62347         0.44768
C         18.29344        24.63209        -0.49868
C         17.12651        25.39429        -0.24446
C         18.22698        27.48083        -1.09537
C         17.09339        26.82091        -0.56464
C         18.18807        28.88089        -1.32046
C         16.96653        29.59056        -1.22277
C         18.13880        31.80105        -1.64571
C         16.86644        31.02592        -1.37444
C         18.11902        33.17838        -1.03322
C         16.90718        33.85483        -0.93737
C         18.09567        35.94066        -0.44053
C         16.89482        35.27777        -0.72795
C         18.13816        37.38323        -0.37998
C         16.84488        38.14570        -0.35487
C         18.20440        40.28114        -0.86446
C         16.91020        39.59001        -0.78343
C         18.22337        41.76444        -0.83132
C         17.06101        42.48636        -0.77274
C         18.27191        44.64562        -0.71638
C         17.06721        43.94323        -0.74811
C         18.30614        46.06804        -0.60458
C         17.05447        46.79169        -0.56467
C         18.33111        48.90205        -0.70166
C         17.05108        48.19445        -0.57001
C         18.33787        50.40825        -0.58735
C         17.06306        51.11499        -0.28643
C         18.39649        53.13079         0.47369
C         17.09953        52.44028         0.12284
C         18.37754        54.62924         0.30572
C         20.81525         6.22526         2.15353
C         20.82180         7.73686         2.18867
C         19.54331         8.40919         1.75726
C         20.81568        10.41073         1.02896
C         19.55065         9.71903         1.29880
C         20.82319        11.81214         0.74366
C         19.53066        12.54709         0.50348
C         20.84241        14.68400         0.52846
C         19.61963        13.96721         1.05036
C         20.83439        16.09119         0.36531
C         19.62557        16.83985         0.54778
C         20.80590        18.86186        -0.13861
C         19.62118        18.21757         0.30912
C         20.69583        20.26949        -0.58392
C         19.56060        21.06786        -0.15879
C         20.80637        23.19707        -0.47324
C         19.46727        22.45342        -0.71933
C         20.72347        24.63377        -0.92839
C         19.51385        25.28747        -0.96182
C         20.69772        27.46183        -1.41540
C         19.43025        26.67806        -1.54961
C         20.66859        28.88506        -1.72278
C         19.41050        29.63347        -1.54139
C         20.65797        31.73485        -1.25585
C         19.41531        31.01184        -1.45104
C         20.57935        33.09394        -0.76426
C         19.36807        33.80958        -0.70601
C         20.50937        35.88003         0.02821
C         19.34204        35.21121        -0.31951
C         20.52803        37.35292         0.35736
C         19.30324        38.05749        -0.15192
C         20.55012        40.24696         0.23897
C         19.42899        39.50025        -0.45961
C         20.70831        41.67112        -0.26502
C         19.55079        42.43656        -0.84424
C         20.75055        44.63888        -0.31899
C         19.58709        43.95700        -1.01332
C         20.77192        46.01940        -0.22423
C         19.54134        46.75554        -0.44891
C         20.76098        48.87449        -0.10251
C         19.57776        48.17478        -0.40031
C         20.76981        50.32657        -0.09194
C         19.61799        51.05300        -0.24659
C         20.86763        53.22002         0.05534
C         19.57548        52.55382        -0.33590
C         20.84488        54.60937         0.24229
C         19.57438        55.33779         0.24115
C         20.84362        57.46931         0.37545
C         19.62158        56.76001         0.26395
C         20.88809        58.87815         0.43095
C         23.27070         3.40069         2.26185
C         22.05362         4.07367         2.21821
C         23.28231         6.17662         1.98616
C         22.01878         5.49661         2.09220
C         23.26986         7.63582         1.85833
C         21.99153         8.22760         1.32346
C         23.27410        10.35587         0.89207
C         22.03930         9.72189         1.15251
C         23.24661        11.70873         0.23373
C         22.00823        12.50468         0.53309
C         23.25724        14.64622         0.15785
C         22.02786        13.94430         0.36867
C         23.26381        16.02840        -0.00282
C         22.04456        16.76773         0.02190
C         23.25647        18.83075        -0.69691
C         22.02426        18.17137        -0.25057
C         23.24275        20.23877        -1.06576
C         21.95685        20.97424        -1.08757
C         23.11853        23.13077        -1.47709
C         21.99476        22.45667        -1.07444
C         23.11993        24.59491        -1.51553
C         21.97092        25.30963        -1.24386
C         23.19295        27.53831        -1.54701
C         21.97959        26.80896        -1.02557
C         23.24578        28.93162        -1.57609
C         21.96950        29.68015        -1.73344
C         23.16364        31.81711        -1.14103
C         21.89222        31.09207        -1.35505
C         23.11455        33.07317        -0.40552
C         21.79204        33.65517        -0.15477
C         23.03828        35.84650         0.33870
C         21.74584        35.13977         0.25303
C         23.03272        37.24041         0.34682
C         21.82603        38.02072        -0.12058
C         23.04508        40.18685         0.44137
C         21.87727        39.50764         0.19866
C         23.13685        41.63397         0.48550
C         21.87247        42.40057         0.32605
C         23.21523        44.56558         0.24802
C         21.89333        43.87994         0.21939
C         23.19349        46.03086         0.46242
C         21.97269        46.74843         0.16746
C         23.14844        48.86675         0.69084
C         21.96396        48.14733         0.23017
C         23.15642        50.24526         0.72673
C         22.12045        51.00514        -0.08360
C         23.26041        53.17096         0.44367
C         22.06700        52.49046         0.18716
C         23.29320        54.58991         0.47354
C         22.06883        55.31658         0.39567
C         23.32350        57.41547         0.58771
C         22.08659        56.73600         0.45952
C         23.34569        58.83879         0.62908
C         22.11696        59.57235         0.55470
C         23.38542        61.65490         0.71845
C         22.16710        60.99275         0.60401
C         24.49045         4.08229         2.17545
C         25.75789         6.21324         1.84191
C         24.51639         5.49407         2.03135
C         25.80505         7.57452         1.59300
C         24.56306         8.36641         1.66151
C         25.73551        10.32480         0.67166
C         24.51876         9.70316         1.04121
C         25.72202        11.73487         0.33412
C         24.54637        12.44443         0.34720
C         25.76993        14.55180        -0.23312
C         24.56372        13.94259         0.43005
C         25.65782        15.95441        -0.76798
C         24.57638        16.78041        -0.04448
C         25.67050        18.72863        -1.27798
C         24.45212        18.13881        -0.70035
C         25.67023        20.22548        -1.59217
C         24.39406        20.92905        -1.37060
C         25.66990        23.05115        -2.05695
C         24.35213        22.35003        -1.79693
C         25.63361        24.56259        -2.18024
C         24.33767        25.29909        -2.00063
C         25.75582        27.54774        -1.85817
C         24.37054        26.80023        -1.94353
C         25.70375        28.91461        -1.34090
C         24.49464        29.61564        -1.42770
C         25.66417        31.67508        -0.48139
C         24.50486        31.07961        -1.19184
C         25.56127        32.95497         0.05699
C         24.29469        33.69662         0.05088
C         25.47506        35.77563         0.82965
C         24.23353        35.06781         0.45275
C         25.52955        37.23997         0.55082
C         24.24940        37.96988         0.73321
C         25.59155        40.16317         0.79725
C         24.28839        39.45397         0.77006
C         25.59353        41.57254         0.89117
C         24.34067        42.27976         0.69409
C         25.61263        44.42805         1.12281
C         24.43130        43.75280         0.55551
C         25.51110        45.87244         1.36680
C         24.34663        46.66558         0.87320
C         25.55111        48.76786         1.28069
C         24.36900        48.11346         1.01531
C         25.57438        50.21106         1.71830
C         24.31915        50.98127         1.28253
C         25.75936        53.08867         0.92481
C         24.43366        52.44518         0.98385
C         25.81315        54.49543         0.37248
C         24.53665        55.27945         0.57632
C         25.81995        57.38806         0.74075
C         24.55621        56.67349         0.63158
C         25.80821        58.78771         0.79758
C         24.59438        59.53167         0.73822
C         24.58912        60.94499         0.78372
C         26.99755         8.28543         1.22401
C         28.28787        10.25571         0.40670
C         26.97657         9.61272         0.81823
C         28.26667        11.76332         0.28326
C         26.98326        12.36087        -0.22039
C         28.21048        14.57458        -0.37898
C         26.95589        13.87090        -0.23760
C         28.19866        15.98608        -0.61553
C         26.97611        16.68665        -0.78116
C         28.19549        18.76115        -1.21816
C         26.97471        18.05607        -1.04745
C         28.22274        20.17807        -1.78360
C         26.94359        20.96582        -1.58371
C         28.17317        23.09196        -1.69528
C         26.96281        22.36574        -1.74459
C         28.23472        24.51616        -2.09730
C         26.94997        25.31440        -2.17695
C         28.13200        27.35735        -1.25824
C         26.99031        26.75192        -1.75894
C         28.10682        28.75178        -0.81385
C         26.90999        29.52685        -0.85009
C         28.09676        31.45650         0.09144
C         26.89705        30.89021        -0.40731
C         28.10434        32.87207         0.56297
C         26.76462        33.56802         0.69442
C         28.03763        35.82330         0.90631
C         26.76712        35.05304         0.93707
C         28.04832        37.21570         0.92143
C         26.81123        37.97933         0.65296
C         28.00773        40.12409         1.12678
C         26.79469        39.44483         0.87036
C         27.99986        41.52692         1.34549
C         26.80760        42.26419         1.19106
C         28.00708        44.42333         1.69675
C         26.78056        43.72230         1.37638
C         28.06562        45.82036         1.69474
C         26.80818        46.59819         1.67392
C         28.04451        48.78765         1.74520
C         26.86031        48.03298         1.18513
C         28.06064        50.25675         1.55745
C         26.88831        50.94186         1.41980
C         28.21189        53.07041         1.13428
C         26.90859        52.38350         1.16983
C         28.22433        54.50292         0.99664
C         27.05872        55.24043         0.79091
C         27.03064        56.64785         0.84176
C         29.40899        12.49491         0.26178
C         30.63516        14.63517        -0.14690
C         29.42632        13.90922        -0.10223
C         30.65995        16.00330        -0.47043
C         29.42261        16.70103        -0.70941
C         30.70000        18.78848        -1.36510
C         29.40352        18.08156        -1.04138
C         30.59642        20.27047        -1.05575
C         29.44587        20.93489        -1.30150
C         30.67048        23.12229        -1.20452
C         29.34191        22.42378        -0.99894
C         30.70836        24.53970        -1.42036
C         29.54568        25.31677        -1.99990
C         30.58652        27.31530        -0.96706
C         29.42947        26.68078        -1.32008
C         30.54711        28.53377        -0.06845
C         29.27613        29.33646        -0.27242
C         30.44579        31.02110         1.08683
C         29.24029        30.63374         0.26135
C         30.60352        33.25358         0.03927
C         29.32516        33.72541         0.50800
C         30.47584        35.79856         1.15439
C         29.27627        35.08997         0.93236
C         30.49843        37.21741         1.15238
C         29.26402        37.96564         1.03302
C         30.48956        40.11343         1.17969
C         29.25531        39.37794         1.13574
C         30.53249        41.48090         1.43331
C         29.24748        42.12941         1.96647
C         30.55839        44.42104         1.82510
C         29.24768        43.66346         1.96376
C         30.52192        45.85958         1.49891
C         29.31911        46.53500         1.61022
C         30.57414        48.75494         1.37371
C         29.33418        48.02022         1.73846
C         30.55778        50.13850         1.29712
C         29.38662        50.94388         1.80166
C         29.37755        52.37769         1.35935
C         31.87567        16.75329        -0.45640
C         33.09352        18.85857        -0.58487
C         31.90446        18.11110        -0.74496
C         33.09829        20.25786        -0.61123
C         31.78359        20.99688        -0.46654
C         33.11856        23.07603        -0.99647
C         31.85329        22.43335        -0.92854
C         33.15867        24.50089        -1.32264
C         31.89281        25.23096        -1.32234
C         33.09224        27.33167        -0.62150
C         31.92017        26.73668        -1.42640
C         33.09504        28.87294        -0.70279
C         31.80612        29.41271        -0.09986
C         33.02157        31.43443         0.87766
C         31.76997        30.63437         0.49154
C         33.03122        32.97816         0.67664
C         31.79021        33.72562         0.60798
C         32.96609        35.79984         1.34033
C         31.70957        34.99265         1.44921
C         32.93486        37.17231         1.35866
C         31.72212        37.91326         1.21296
C         32.99731        40.08219         1.14323
C         31.73378        39.36126         0.77404
C         33.00433        41.54272         1.11009
C         31.78629        42.20120         1.37147
C         33.05871        44.42903         1.13007
C         31.82958        43.65041         1.62579
C         32.91673        45.86616         0.86146
C         31.74703        46.57126         1.13510
C         31.71345        47.98876         1.01713
C         34.30386        20.97606        -0.60093
C         35.57919        23.10780        -0.68705
C         34.33228        22.38076        -0.76173
C         35.66175        24.46494        -0.81600
C         34.48140        25.25226        -1.21677
C         35.60352        27.36960        -0.59895
C         34.44383        26.70298        -0.91870
C         35.57394        28.78860        -0.23286
C         34.33951        29.47194        -0.07215
C         35.53097        31.46673         0.66995
C         34.31585        30.78430         0.42050
C         35.48473        32.88051         1.11419
C         34.20691        33.62786         1.01617
C         35.44543        35.87443         0.97831
C         34.26978        35.06701         1.54389
C         35.36943        37.24411         0.84127
C         34.22740        37.88980         1.62789
C         35.75153        40.37346         0.53711
C         34.09600        39.36593         1.49219
C         35.29777        41.55459         0.02540
C         34.17446        42.27780         0.64097
C         34.11079        43.64986         0.48970
C         36.99058        25.17119        -0.70325
C         38.04864        27.38050        -0.44178
C         36.88923        26.67976        -0.58995
C         38.06436        28.81654        -0.26084
C         36.78368        29.48323        -0.03699
C         38.00716        31.60089         0.33603
C         36.76563        30.84574         0.35133
C         37.97736        32.93576         0.59561
C         36.77356        33.69321         0.96909
C         37.53538        35.79412        -0.48242
C         36.69789        35.16167         0.62705
C         37.01417        37.10743        -1.04952
C         36.31521        37.97092        -0.01159
C         36.46688        39.32921        -0.17080
C         39.24219        29.50431        -0.27028
C         39.76585        31.59098        -1.48643
C         39.33064        30.99696        -0.13515
C         39.67959        32.88387        -1.86869
C         39.09210        33.92428        -1.02830
C         38.33465        34.97446        -1.43165
O         39.15888        33.68087         0.36649
O         25.56008        19.20365        -2.66519
O         24.79678        24.89240        -3.32889
O         30.33491        31.49961         2.20868
O         18.38225        49.76121        -1.90541
O         21.54482        43.21375         1.50698
O         35.28535        40.03332         1.83588
O         13.78766        35.79342        -2.58345
O         24.11845        44.18088        -0.85133
O         25.98680        35.40145         2.15336
O         24.00272        51.96240         2.34241
O         36.27973        33.27405         2.27725
O         20.58553        41.81415        -1.70241
O         23.87332         8.34458         2.99071
O         19.49113        12.60451        -0.98644
O         25.88601        46.29320         2.73772
O         21.60330        34.07215         1.24397
O         24.12318        38.66256         2.02955
O         28.64327        48.38098         3.00985
O         21.33065        29.31135        -3.01100
O         25.03194        27.37538        -3.10076
O         27.35929        32.89795         1.84542
O         27.63019        24.87914        -3.40410
O         17.71458        21.92850         2.59456
O         37.93559        35.91013         0.90039
O         24.91257        22.45222        -3.14951
O         21.00219        20.41078        -2.05873
O         14.85785        26.53572         1.59676
O         19.15980        39.74178        -1.86703
O         26.22222        37.59597        -0.68705
O         12.35294        28.92120        -1.80753
O         33.96769        24.85959        -2.53204
O         32.86538        44.06540         2.55909
O         24.03841        31.85958        -2.34211
O         29.95519        44.16407         3.14485
O          8.91155        35.55762        -2.27957
H          9.54432        35.02748        -2.81117
O         14.82075        42.36585        -2.66855
H         14.08133        42.78289        -3.15670
O         18.36722        13.45965        -1.35766
H         18.60119        13.68907        -2.28997
O         15.06052        22.95899         2.78825
H         14.93145        23.91508         2.97503
O         40.37247        31.28504         0.82029
H         40.37826        32.26109         0.95270
O         14.67624        21.06660        -0.34705
H         13.79178        21.39074        -0.62135
O          7.75191        31.62537        -1.58387
H          8.36124        32.12530        -2.16894
O         22.08493        26.92322         0.47699
H         23.02126        26.76623         0.72482
O         14.22654        30.78993        -3.02828
H         13.46974        30.18267        -3.18904
O         13.61298        20.68472         3.19619
H         14.08228        21.52224         3.42286
O         19.79461        13.82499         2.49406
H         19.83021        14.72362         2.88531
O         19.30422        52.88425        -1.72373
H         19.93768        52.38825        -2.28379
O         16.05620        19.93170         2.78207
H         16.86734        22.29660         2.94974
O         31.62969        34.57110         2.85523
H         32.55875        34.43579         3.17081
O         28.36673        19.99527        -3.23587
H         27.49781        19.65927        -3.56068
O         19.23584        22.39455        -2.14919
H         19.87790        21.74197        -2.52885
O         15.44474        32.90002         0.64183
H         16.25542        32.45587         0.97225
O         18.64490        52.86976         1.89357
H         18.69273        51.89832         2.01891
O         10.99606        44.63652        -0.34112
H         11.22014        44.53322         0.60620
O         32.83991        26.96031         0.75796
H         33.44701        27.47249         1.33313
O         25.19089        15.82358        -2.14221
H         25.83129        15.26446        -2.63058
O         20.16488        40.32313         1.63635
H         20.31665        39.42870         2.03304
O         34.41663        34.93859         2.98959
H         34.54069        35.85863         3.33887
O         33.16373        29.34647        -2.06898
H         32.75954        28.66554        -2.66430
O         29.07472        22.52906         0.44481
H         29.80369        22.03641         0.90005
O         19.79603        44.19770        -2.44124
H         20.37514        43.47100        -2.76816
O         29.53969        50.98108         3.26821
H         29.29767        50.07733         3.59395
O         31.71331        39.29598        -0.70406
H         30.83540        38.94568        -0.96816
O         28.61376         9.76368        -0.92110
H         28.48352         8.79201        -0.92389
O         18.00648        18.24604         2.75340
H         17.67087        19.01759         3.26986
O         37.78730        24.82297        -1.85263
H         37.27261        25.04619        -2.65587
O         26.94304        11.98450        -1.64914
H         27.48851        11.16678        -1.74796
O         23.12778        11.41609        -1.22761
H         23.99623        11.06627        -1.52411
O         10.68084        37.90716        -2.42543
H          9.90137        37.43273        -2.79363
O         15.45205        41.95943         0.89843
H         16.22588        41.62653         1.40012
O         21.03986         8.12875         3.57923
H         22.00741         8.21467         3.73902
O         21.79017        37.91737        -1.57504
H         22.50893        38.46560        -1.95324
O          8.17939        28.96363        -1.24914
H          7.89263        29.86131        -1.56083
O          9.64698        29.96456         1.97893
H         10.33881        30.62142         2.20591
O         30.44893        28.00145         1.29226
H         30.41260        28.76101         1.91325
O         11.93637        37.93937         1.01482
H         12.64881        38.45329         1.44934
O         16.58016        38.24025         1.11511
H         15.69465        38.65276         1.21947
O         29.98100        25.57552        -3.37316
H         29.16209        25.57368        -3.93245
O         19.21986        26.45872        -3.00013
H         19.52714        27.26316        -3.47177
O         22.60051        50.90991        -1.47550
H         22.47602        49.98161        -1.76899
O         36.09425        36.82834        -2.12410
H         35.22258        36.60451        -1.73733
O         24.79116        14.24567         1.88033
H         25.55411        13.70471         2.18011
O         18.10847        32.06277        -3.09464
H         18.13096        31.19828        -3.55744
O         33.04881        31.30782         2.32753
H         32.18854        31.65694         2.67161
O         34.54693        37.67155         3.04522
H         35.26618        38.30320         3.27027
O         21.02269        23.19009         0.96782
H         21.59023        23.95521         1.19825
O         25.92470        54.32264        -1.08813
H         25.97971        55.21809        -1.48462
O         30.88133        18.67275        -2.80954
H         30.08893        19.09120        -3.23097
O         20.52129        37.49581         1.81569
H         19.81267        36.92223         2.17799
O         17.63443        19.07461        -0.79367
H         18.21826        19.49024        -1.46405
O         25.00782        16.99749         1.32424
H         24.94476        16.12420         1.78887
O         30.68676        32.39377        -1.02451
H         29.80037        32.21358        -1.39671
O         27.17083        47.94345        -0.25157
H         26.37147        47.62292        -0.72207
O         32.10018        27.08250        -2.82252
H         31.41304        26.57466        -3.33436
O         31.50803        21.06335         0.98572
H         32.28612        21.48128         1.41348
O         19.51879        20.32610         2.08151
H         19.41688        21.14408         2.62059
O         25.53475        50.12068         3.17136
H         25.06115        50.92626         3.48906
O         29.18051        41.72064         3.36170
H         29.66648        42.40570         3.87915
O         11.26002        27.83721         1.95879
H         10.54056        28.41474         2.32013
O         21.82636         7.66642        -0.00851
H         21.04971         8.09869        -0.42301
H          5.26195        31.48508         1.72775
H          5.25241        33.92347         1.49832
H          7.52269        26.99655         0.77586
H          6.39819        29.28047         1.36430
H          6.40915        36.02898         0.99769
H          7.54178        38.12731         0.52180
H         10.09943        22.79492         1.10664
H          8.80878        24.86429         0.82213
H          8.70727        40.26567         0.12472
H          9.91663        42.42568        -0.55453
H         12.62015        18.57055         1.30000
H         11.34867        20.73274         1.46436
H         11.74189        44.16760        -2.19367
H         12.41008        46.63560        -0.69657
H         14.93666        14.26270         1.12181
H         13.77695        16.45341         1.14942
H         13.65860        48.77890        -0.50217
H         14.89998        50.89579        -0.26322
H         17.39350         9.94899         1.50831
H         16.16254        12.07929         1.33482
H         16.15587        52.94755         0.38004
H         17.41793        55.16832         0.33198
H         19.87251         5.68511         2.33361
H         18.58267         7.93375         2.01050
H         18.67763        57.32596         0.24393
H         19.95073        59.45186         0.37594
H         23.27637         2.30663         2.37008
H         21.11005         3.51694         2.30760
H         23.40421        62.75329         0.75559
H         21.23011        61.56523         0.54948
H         25.43605         3.52278         2.20938
H         26.69029         5.62892         1.81009
H         26.76065        59.33133         0.88962
H         25.54243        61.48570         0.87024
H         27.96027         7.75123         1.26599
H         29.10422         9.93515         1.11598
H         29.17466        55.03233         1.16904
H         27.96881        57.19400         1.02670
H         30.37112        12.01943         0.51057
H         31.58121        14.11908         0.07543
H         31.48039        50.66792         1.01287
H         30.33431        52.92309         1.37188
H         32.79741        16.25669        -0.11465
H         34.04372        18.32351        -0.42559
H         33.79637        46.41171         0.48812
H         32.63196        48.51354         0.71514
H         35.25490        20.42382        -0.55666
H         36.48934        22.53504        -0.45230
H         35.70412        41.93798        -0.92274
H         34.89270        44.17839        -0.07525
H         37.54892        24.78221         0.18976
H         39.01066        26.84683        -0.45904
H         37.86833        37.67286        -1.49836
H         37.10140        39.66250        -1.00881
H         40.18640        28.95964        -0.42237
H         40.20159        30.87850        -2.20592
H         39.98851        33.16561        -2.88837
H         38.21800        35.20146        -2.50042
