         651
 CSIRO Nanostructure Databank - Neutral Graphene Oxide Data Set
C          6.33907        31.35719        -1.17307
C          6.36589        32.70529        -1.36902
C          8.46174        27.20799         0.50541
C          8.53905        28.62234         0.27311
C          7.45072        29.29197        -0.38620
C          8.68614        31.40959        -0.39268
C          7.49148        30.65808        -0.65600
C          8.71355        32.79291        -0.55815
C          7.54014        33.48048        -1.05304
C          8.73929        35.61521        -0.89768
C          7.57498        34.85392        -1.22585
C          8.76644        36.98971        -1.09693
C         10.64527        22.87435         1.58531
C         10.70598        24.37525         1.41176
C          9.58376        25.05399         0.98983
C         10.70592        27.19502         1.53210
C          9.55008        26.48457         0.96442
C         10.75624        28.72611         1.37951
C          9.70116        29.33786         0.58907
C         10.97805        31.52023         0.63016
C          9.95437        30.66583        -0.06549
C         11.01472        32.87999         0.40932
C          9.88967        33.55755        -0.21129
C         11.06827        35.72473         0.02318
C          9.90285        34.94825        -0.35149
C         11.07925        37.15185        -0.18828
C          9.91272        37.77153        -0.77084
C         11.02070        39.94801        -0.72549
C          9.90066        39.14256        -1.03519
C         11.03636        41.31078        -1.06418
C         13.30166        18.99723        -0.18490
C         13.27230        20.28761         0.37049
C         12.01724        21.00747         0.56321
C         13.15253        22.81491         1.81931
C         11.94648        22.18692         1.23429
C         13.14702        24.32415         2.05191
C         11.92802        25.08567         1.70608
C         13.19750        27.21620         1.98823
C         11.97605        26.47625         1.70612
C         13.16834        28.68650         1.97716
C         12.06379        29.39452         1.56232
C         13.39193        31.50913         1.20411
C         12.01903        30.91642         1.55108
C         13.35305        33.02961         1.20551
C         12.18380        33.67695         0.78599
C         13.50729        35.84842         0.63754
C         12.19381        35.08896         0.56536
C         13.37607        37.34925         0.80584
C         12.18688        37.94872         0.19021
C         13.25635        40.16897         0.28651
C         12.14990        39.35340        -0.05336
C         13.31449        41.49972        -0.15674
C         12.18737        42.09641        -0.83843
C         13.39740        44.23601        -1.06633
C         12.23165        43.44290        -1.25008
C         13.40847        45.59469        -1.40074
C         15.82271        14.86673        -1.31205
C         15.77719        16.20188        -0.82067
C         14.55663        16.92206        -0.73785
C         15.73963        18.89462         0.11936
C         14.51567        18.25685        -0.27245
C         15.72715        20.23621         0.59153
C         14.47930        20.88958         0.80035
C         15.73078        22.94563         1.68068
C         14.45862        22.12977         1.59872
C         15.63078        24.40531         1.89980
C         14.43136        25.07074         2.06751
C         15.60633        27.17118         2.82082
C         14.39308        26.52269         2.16972
C         15.67083        28.70958         2.74046
C         14.38186        29.44137         2.42966
C         15.77755        31.56924         2.00789
C         14.46931        30.90515         2.08964
C         15.77091        33.01285         1.75721
C         14.51854        33.78129         1.55276
C         15.60515        35.96575         2.19121
C         14.54205        35.17625         1.50457
C         15.53076        37.53642         2.17952
C         14.39912        38.11015         1.30175
C         15.64078        40.33333         0.98834
C         14.30571        39.64387         1.23819
C         15.73058        41.60383         0.45573
C         14.53002        42.27113        -0.04786
C         15.86414        44.27563        -0.64274
C         14.57365        43.57296        -0.52313
C         15.85406        45.74929        -0.98679
C         14.53191        46.49062        -0.95611
C         15.78596        48.59456        -1.52362
C         14.63644        47.84802        -1.62042
C         15.86993        49.99641        -1.87437
C         18.34336        10.74463        -2.50420
C         18.30027        12.12892        -2.16746
C         17.10724        12.81896        -1.95443
C         18.24871        14.85616        -1.12563
C         17.04525        14.18374        -1.48671
C         18.23316        16.14863        -0.54375
C         16.99301        16.84328        -0.41100
C         18.16798        18.83753         0.50114
C         16.97925        18.19880         0.05222
C         18.18432        20.23000         0.83197
C         16.95281        20.92115         0.82428
C         18.19712        23.07475         1.17449
C         16.89355        22.42231         0.82993
C         18.16686        24.52421         1.35015
C         16.87303        25.19785         1.72006
C         18.24726        27.28155         2.24438
C         16.95340        26.52437         2.41538
C         18.27022        28.74735         2.32142
C         16.98838        29.44926         2.59502
C         18.21362        31.57672         2.29632
C         16.98659        30.89678         2.24222
C         18.21159        33.01374         2.56263
C         16.99706        33.76307         2.14085
C         18.16804        35.76660         2.95421
C         16.86392        35.16815         2.60759
C         18.08895        37.90440         2.50780
C         16.86156        38.24324         1.85772
C         18.14882        40.38386         1.47694
C         16.82465        39.68148         1.55170
C         18.16569        41.74572         0.91048
C         17.00340        42.33665         0.45330
C         18.22778        44.48232         0.08074
C         17.06041        43.70877        -0.01521
C         18.21804        45.88192        -0.29987
C         17.05977        46.52505        -0.68447
C         18.32349        48.69285        -1.09561
C         16.99991        47.98381        -0.90381
C         18.35335        49.89502        -2.01471
C         17.07412        50.70127        -1.94824
C         18.37899        52.80289        -2.21277
C         17.14951        52.10565        -2.13225
C         18.43943        54.20010        -2.41818
C         20.81629         6.55742        -3.50824
C         20.76830         7.92530        -3.08570
C         19.56799         8.63198        -2.96343
C         20.79626        10.63073        -2.23700
C         19.54418        10.01272        -2.59765
C         20.92467        12.13338        -2.14745
C         19.58134        12.87942        -2.09533
C         20.75640        14.85179        -0.90477
C         19.53712        14.24590        -1.45093
C         20.69916        16.10649        -0.31076
C         19.44828        16.75732        -0.09625
C         20.70711        18.77395         0.99672
C         19.38776        18.03665         0.61256
C         20.68219        20.25404         1.13202
C         19.41999        20.93779         1.09343
C         20.64250        23.11199         1.36417
C         19.40349        22.37599         1.24097
C         20.66438        24.51014         1.38616
C         19.43943        25.24163         1.51659
C         20.66489        27.35972         1.52371
C         19.45484        26.60948         1.71261
C         20.63869        28.75152         1.64915
C         19.44564        29.43286         2.08046
C         20.68305        31.71095         2.00037
C         19.52264        30.87696         2.52808
C         20.74633        33.08170         2.22124
C         19.50864        33.77999         2.64333
C         20.67283        36.05464         2.69506
C         19.40222        35.26316         2.62472
C         20.61150        37.62166         2.72111
C         19.36327        38.25951         2.08514
C         20.61524        40.38392         1.92214
C         19.44969        39.58212         1.37075
C         20.59561        41.87870         1.73773
C         19.29156        42.62550         1.40099
C         20.65034        44.56102         0.64715
C         19.43813        43.90157         0.62024
C         20.71900        45.99980         0.30372
C         19.45890        46.67913        -0.16251
C         20.82310        48.72585        -0.80054
C         19.55458        47.93065        -0.91634
C         20.92228        49.90268        -1.80211
C         19.62586        50.70075        -1.86125
C         20.94413        52.73472        -2.25627
C         19.62150        52.04671        -2.05342
C         20.96495        54.22891        -2.53564
C         19.64406        54.94581        -2.51758
C         20.91362        57.05529        -2.77508
C         19.67409        56.31764        -2.75200
C         20.98268        58.38357        -3.22542
C         23.33283         3.89243        -4.22849
C         22.10130         4.53632        -4.07308
C         23.28996         6.72152        -3.77572
C         22.02901         5.91203        -3.74244
C         23.25721         7.96031        -2.94785
C         22.01697         8.56444        -2.71438
C         23.20339        10.45302        -1.58867
C         21.96332         9.89333        -2.18013
C         23.17426        11.81082        -0.96537
C         21.83394        12.56834        -0.96339
C         23.30189        14.67571        -0.59448
C         22.00899        14.07443        -1.04057
C         23.26659        16.10283        -0.14989
C         21.95548        16.83839        -0.03037
C         23.19863        18.79997         0.87516
C         21.96592        18.13529         0.65635
C         23.18395        20.18641         1.46450
C         21.88427        20.92986         1.26212
C         23.16615        23.07929         1.10415
C         21.92635        22.38588         1.63720
C         23.03525        24.48578         0.67488
C         21.88188        25.26166         1.18747
C         23.06159        27.41198         0.74679
C         21.86920        26.65532         1.12941
C         23.05705        28.86433         0.84462
C         21.78254        29.53818         1.13802
C         23.07672        31.77669         1.16877
C         21.79766        31.05701         1.30568
C         23.09822        33.20826         1.45338
C         21.92324        33.85642         1.92931
C         23.14290        36.10251         1.91564
C         21.94745        35.31300         2.28142
C         23.15340        37.51441         2.02681
C         21.90689        38.26911         2.20719
C         23.10280        40.45289         2.14681
C         21.89351        39.63580         2.02558
C         23.12276        41.87101         1.76568
C         21.88435        42.57193         1.49733
C         23.13927        44.58139         0.79450
C         21.86768        43.87113         1.00373
C         23.16800        46.03144         0.50708
C         22.03177        46.64323         0.06987
C         23.30136        48.72929        -0.51393
C         22.10589        47.86171        -0.82065
C         23.26754        50.08636        -0.83905
C         22.12509        50.71208        -1.38453
C         23.28811        53.00827        -1.14895
C         22.03679        52.16230        -1.39063
C         23.29044        54.41322        -1.54632
C         22.13283        55.03586        -2.00920
C         23.29627        57.24933        -2.03061
C         22.09868        56.42649        -2.26828
C         23.40232        58.52717        -2.74301
C         22.22447        59.09763        -3.29858
C         23.54488        61.03642        -3.96142
C         22.31765        60.37656        -3.90002
C         24.54009         4.56330        -4.01676
C         25.74650         6.61179        -3.38894
C         24.56589         5.94132        -3.68748
C         25.75743         7.96168        -2.90721
C         24.49345         8.61221        -2.60626
C         25.71631        10.49974        -1.55026
C         24.50142         9.84647        -1.94440
C         25.69849        11.75227        -0.89714
C         24.47402        12.50648        -0.73326
C         25.70054        14.46937         0.20473
C         24.47293        13.82174        -0.30231
C         25.71482        15.93844         0.53001
C         24.43130        16.68519         0.56942
C         25.69745        18.78724         1.28450
C         24.41840        18.13352         0.80851
C         25.64919        20.23000         0.62041
C         24.42203        20.97086         1.08089
C         25.69156        23.08346         1.34362
C         24.39300        22.36966         1.11309
C         25.44018        24.64765        -0.40467
C         24.15048        25.28823         0.01793
C         25.40580        27.48208        -0.11235
C         24.17381        26.74576         0.25287
C         25.41530        28.97888         0.06597
C         24.18191        29.64215         0.56577
C         25.42792        31.83001         0.27894
C         24.19811        31.07468         0.73595
C         25.50097        33.24602         0.82774
C         24.32379        33.91308         1.28360
C         25.44312        36.12021         0.87459
C         24.45243        35.35287         1.74818
C         25.48215        37.61567         1.06357
C         24.36220        38.24009         1.78380
C         25.63939        40.43225         1.62651
C         24.46111        39.66649         2.04924
C         25.61689        41.83195         1.62707
C         24.35381        42.52091         1.67919
C         25.56871        44.75259         1.67303
C         24.39705        43.92293         1.21799
C         25.57789        46.15924         1.11130
C         24.45354        46.72379         0.57893
C         25.75050        48.90331         0.25032
C         24.44284        48.16526         0.22940
C         25.83483        50.16063        -0.54413
C         24.54880        50.84214        -0.89625
C         25.79127        52.95702        -1.12473
C         24.58507        52.30222        -1.02882
C         25.79302        54.38863        -1.62998
C         24.55693        55.14394        -1.12122
C         25.86003        57.25053        -1.84548
C         24.56473        56.60760        -1.51843
C         25.86185        58.51991        -2.37736
C         24.65287        59.18333        -2.82249
C         24.70419        60.45229        -3.44574
C         26.94554         8.63408        -2.64467
C         28.18606        10.58525        -1.84053
C         26.97957         9.90790        -1.98622
C         28.30021        11.75414        -0.97680
C         26.97432        12.34528        -0.45245
C         28.25078        14.57986        -0.01428
C         27.00848        13.76407         0.04872
C         28.23509        15.95031         0.24864
C         26.94642        16.76044         0.18503
C         28.23382        18.78457         1.15482
C         26.95402        18.06690         0.92212
C         28.14729        20.25777         0.63972
C         26.94352        20.95915         0.74731
C         28.10690        23.18063         0.13762
C         26.98074        22.43715         0.88685
C         27.92923        24.63801        -0.29540
C         26.71282        25.36029        -0.11400
C         27.93101        27.49818        -0.21756
C         26.70615        26.76541        -0.13978
C         27.93782        28.92765         0.04942
C         26.72643        29.65430         0.22714
C         27.96233        31.73781         0.43928
C         26.73201        31.05085         0.40027
C         27.98393        33.24155         0.20241
C         26.70138        33.92653         0.63729
C         28.01292        36.15460         0.33815
C         26.69357        35.38476         0.49345
C         27.99219        37.64922         0.49275
C         26.76325        38.34501         0.94209
C         28.05203        40.46166         1.15458
C         26.81775        39.70878         1.22941
C         28.05351        41.84387         1.15391
C         26.83074        42.59442         1.33398
C         28.03743        44.77445         1.26261
C         26.83651        43.99472         1.35165
C         28.06057        46.14127         1.47246
C         26.80550        46.97759         1.50471
C         28.20875        48.86458         0.49609
C         27.00916        48.24026         0.66708
C         28.33985        50.16297        -0.30660
C         27.06243        50.95449        -0.44882
C         28.28970        53.05264        -0.84384
C         27.05261        52.27958        -0.84603
C         28.27377        54.40633        -1.06056
C         27.07133        55.14984        -1.35521
C         27.07285        56.50989        -1.55608
C         29.47295        12.62832        -0.96875
C         30.68851        14.66669        -0.35464
C         29.48258        13.92261        -0.41170
C         30.70654        16.02081         0.04571
C         29.45679        16.69080         0.32026
C         30.64220        18.81602         0.51776
C         29.45341        18.07735         0.61117
C         30.60718        20.26145         0.45955
C         29.32632        20.92460         0.30854
C         30.55806        22.89128        -0.53194
C         29.19964        22.23161        -0.46850
C         30.73592        24.01107        -1.25168
C         28.95685        25.40706        -0.88708
C         30.39221        27.56340        -0.64932
C         29.10904        26.82286        -0.66616
C         30.42116        28.89523        -0.10760
C         29.18311        29.61299         0.15485
C         30.44219        31.74319         0.62509
C         29.17075        31.01569         0.40142
C         30.48925        33.21529         0.62039
C         29.18866        33.94489         0.86752
C         30.47858        36.12574         0.80010
C         29.27480        35.43890         0.56911
C         30.57104        37.54520         0.83640
C         29.32745        38.33213         0.70014
C         30.65434        40.46022         1.24836
C         29.32200        39.71509         1.24052
C         30.61705        41.89629         1.02361
C         29.31991        42.55833         0.90610
C         30.55787        44.68644         1.35169
C         29.28649        44.05688         0.93680
C         30.54789        46.02411         1.74129
C         29.34992        46.85471         1.61041
C         30.77917        48.91358         0.60036
C         29.47935        48.30117         1.07309
C         30.74332        50.23012         0.21800
C         29.47742        51.04599         0.23586
C         29.60861        52.32670        -0.61675
C         31.91572        16.74697         0.14286
C         33.10744        18.88867         0.43411
C         31.90986        18.14302         0.35900
C         33.09294        20.30955         0.53225
C         31.80496        20.96961         0.44603
C         33.07630        22.98626        -0.21517
C         31.72703        22.46993         0.34280
C         33.06138        24.45374        -0.59523
C         31.94396        24.78707        -1.27448
C         32.92153        27.50111        -0.54680
C         31.66114        27.00690        -0.98661
C         32.89116        28.87953        -0.18612
C         31.68065        29.56737        -0.01589
C         32.94187        31.81290         0.12963
C         31.74478        30.99649         0.39837
C         32.94950        33.17798         0.38373
C         31.69693        33.87340         0.65819
C         33.04459        36.07807         0.83467
C         31.72967        35.33575         0.94952
C         33.04815        37.55336         0.72019
C         31.82095        38.26826         0.87883
C         33.09776        40.41664         0.80292
C         31.86911        39.69532         0.91669
C         33.14293        41.85103         0.80503
C         31.85707        42.62405         0.55770
C         33.73201        44.89895         1.10085
C         31.73843        43.91027         1.34542
C         33.58069        46.25702         0.71242
C         32.47045        47.05412         1.08488
C         32.03651        48.20343         0.43254
C         34.28261        21.04643         0.64214
C         35.50136        23.28932         0.31674
C         34.23832        22.55257         0.68265
C         35.50409        24.59093        -0.12193
C         34.32014        25.26217        -0.80048
C         35.39489        27.46661        -0.30161
C         34.18363        26.77021        -0.52724
C         35.43155        28.89190        -0.25136
C         34.15432        29.61764        -0.38472
C         35.46191        31.80647        -0.34805
C         34.14036        31.10768        -0.37836
C         35.45133        33.28421        -0.15752
C         34.17425        33.96456         0.20430
C         35.47582        36.03645        -0.08748
C         34.22622        35.31776         0.38632
C         35.50163        37.53926         0.18890
C         34.25733        38.25146         0.54997
C         35.57708        40.33952         0.82583
C         34.30851        39.66397         0.67702
C         35.58530        41.75326         0.87550
C         34.40737        42.51451         0.78146
C         34.58265        43.94977         0.57423
C         36.70269        25.36303        -0.05032
C         37.86144        27.48597         0.07934
C         36.66192        26.75169        -0.13441
C         37.87331        28.87611         0.14474
C         36.63727        29.60675        -0.05140
C         37.86544        31.72033         0.31407
C         36.67850        31.03197        -0.02231
C         37.88808        33.14477         0.46327
C         36.71447        33.93162         0.26911
C         37.94852        35.99546         0.72624
C         36.73231        35.31358         0.37116
C         37.99388        37.38878         0.84233
C         36.83184        38.22724         0.57165
C         36.75751        39.60618         1.02009
C         39.07602        29.59119         0.42486
C         40.29043        31.68350         0.89102
C         39.08280        30.97209         0.54267
C         40.29969        33.03650         1.03441
C         39.10030        33.81755         0.82995
C         39.11226        35.20355         0.97501
O         12.94983        23.36448         3.14956
O         17.29978        25.25385         0.30942
O         23.06183        24.74818        -0.79925
O         16.36616        29.23012         3.91090
O         19.93284        18.02775         1.99338
O         27.22062        35.75493        -0.82293
O         17.45223        40.40760         2.75707
O         21.34272        52.47017        -3.68073
O         24.82658        49.03290         1.39813
O         18.02939        36.99502         3.56698
O         30.01506        39.91900         2.49806
O         22.94946        14.54550        -2.04103
O         22.28483        52.76126        -0.08214
O         29.24174        43.43770        -0.39883
O         22.83869        16.96327        -1.23472
O         23.89752        40.11776         3.31390
O         17.87432        26.58608         3.53500
O         15.33553        22.08550         2.77928
O         25.23309        28.38791        -1.27327
O         24.06737        43.96040        -0.20839
O         29.35894        48.03389         2.48881
O         20.42112        41.25004         3.06550
O         21.57525        35.55274         3.72499
O         19.61879        14.04349        -2.97036
O         36.28661        38.18508        -0.83449
O         31.21188        31.18652         1.75791
O         21.29403        53.92153        -3.98131
O         25.45004        23.63620        -1.10904
O         31.74969        25.99507        -1.94537
O         16.05230        44.77230        -2.04002
O         23.72411        57.37641        -0.59832
O         25.36791        50.11745        -1.93921
O         31.69308        46.62728         2.20173
O         23.37196         7.25480        -5.27801
O         25.70566        24.07556         2.06515
O         35.57141        32.71779        -1.50320
O         28.69861        38.29750        -0.62823
O         32.51133        35.64285         2.15227
O         32.79554        44.40220         2.06818
O         18.82042        33.30450         3.88064
O         23.06848        10.62310        -0.10201
O         26.32543        13.78263         1.35352
O         16.75964        33.51084         0.71921
O         28.13097        23.02226         1.57857
O         15.79202        35.42738         3.55436
O         14.05896        30.46908         3.43509
O         29.68446        24.70509        -1.86601
O         24.93971        36.93995        -0.18885
O         10.32556        28.08354         2.62928
O         27.77341        11.47981         0.39046
O         21.35554        30.42894         0.03628
O         19.92905        46.82511         1.26859
O         25.01413        16.08644         1.80839
O         17.56084        48.82443         0.15610
O         33.98014        30.39882        -1.65822
O         33.26411        22.28724        -1.47833
H         34.05029        22.67574        -1.92007
O         19.74718        39.42579        -0.04579
H         19.12592        38.77196        -0.42851
O         19.74976        30.77560         3.97348
H         19.49234        31.64895         4.36446
O         13.87953        40.09751         2.55843
H         14.41227        39.59824         3.22491
O         22.07884        22.45110         3.10626
H         22.73359        21.75077         3.35729
O         31.41653        23.04630         1.62723
H         32.19884        22.91989         2.21647
O         18.39648        49.31859        -3.35807
H         18.44607        50.05537        -4.00267
O         25.47108        19.88766        -0.79936
H         25.42498        20.72379        -1.31379
O         31.83418        42.92554        -0.87264
H         30.89206        43.13404        -1.10268
O         15.40997        26.84756         4.21229
H         16.13604        27.29192         4.70830
O         25.68641        19.01811         2.71906
H         25.47276        18.15994         3.14672
O         22.23494         8.07388        -5.52482
H         21.56475         7.44679        -5.89212
O         14.29498        46.74922         0.47478
H         13.50868        47.32920         0.55327
O         29.16663        51.46679         1.58238
H         29.26077        50.69650         2.18254
O         25.26561        32.03263        -1.17082
H         25.01964        31.16841        -1.56816
O         21.60627        12.50096        -3.36313
H         21.24764        13.37845        -3.64253
O         23.26561        20.01139         2.93505
H         22.48966        19.47345         3.20560
O         25.64082        54.31707        -3.07646
H         26.40944        53.83110        -3.44212
O          9.54373        22.34652         0.85993
H          9.35309        21.44641         1.19035
O         33.98623        22.95709         2.07932
H         34.70738        22.58241         2.62784
O         24.59593        55.07559         0.31986
H         24.02033        55.80127         0.65391
O         16.56298        22.79966        -0.55172
H         16.77299        23.76453        -0.63839
O         21.14756        49.40215        -3.15210
H         21.29501        50.17949        -3.73521
O         26.78531        17.06940        -1.25264
H         26.33043        17.94208        -1.33049
O         25.09765        35.33068         3.06811
H         24.46258        34.94359         3.70828
O         28.93269        33.85542         2.30180
H         29.75448        34.09821         2.77975
O         30.56033        53.19033        -0.00104
H         30.35134        53.19526         0.95874
O         34.63316        25.16374        -2.23208
H         33.92193        25.63946        -2.71593
O         10.58041        30.33694        -1.37655
H         10.77887        31.18672        -1.82572
O         28.46725        18.96393         2.58389
H         27.59569        19.20419         2.98504
O         11.62554        31.34384         2.87397
H         12.29276        30.98669         3.51126
O         28.13491        33.37066        -1.22917
H         27.26187        33.18516        -1.64143
O         21.14878        12.29512         0.27102
H         21.51140        11.44063         0.61082
O         35.43269        35.89560        -1.53588
H         36.04682        36.56916        -1.90842
O         15.18815        37.92449         3.53320
H         15.77181        37.40665         4.13702
O         28.72950        49.78861        -1.65945
H         27.93071        49.46863        -2.13156
O         26.55854        47.41844         2.87431
H         25.84054        48.09671         2.81775
O         13.70634        31.09436        -0.15612
H         14.54671        31.52564        -0.42052
O         18.76534        43.10831         2.67754
H         18.76911        42.33759         3.29392
O         14.06290        35.73524        -0.73861
H         14.19096        34.77985        -0.92403
O         25.45626        44.86817         3.11807
H         25.95594        45.67536         3.39644
O         20.56089        37.96140         4.12368
H         21.14628        37.33158         4.60121
O         22.29372        47.26507        -2.13311
H         22.08204        47.94829        -2.81738
O         28.78646        21.89563        -1.81235
H         28.87216        22.70465        -2.36374
O         20.72328        49.35971         0.49868
H         20.44197        48.66610         1.14778
H          5.43220        30.77771        -1.39958
H          5.48250        33.23023        -1.76090
H          7.56330        26.67249         0.16374
H          6.53888        28.72009        -0.61335
H          6.69207        35.38084        -1.61706
H          7.88660        37.49600        -1.52050
H         10.48033        22.68331         2.69135
H          8.69206        24.48790         0.68557
H          9.02059        39.59868        -1.51142
H         10.15936        41.75807        -1.55473
H         12.36111        18.52477        -0.50497
H         11.09691        20.55417         0.16401
H         11.34120        43.89240        -1.71474
H         12.49180        46.04846        -1.81029
H         14.88174        14.37208        -1.59542
H         13.62334        16.43359        -1.05596
H         13.72803        48.29540        -2.05448
H         14.92531        50.54134        -2.03054
H         17.39075        10.22068        -2.67671
H         16.15589        12.28154        -2.08901
H         16.21322        52.68237        -2.18847
H         17.48961        54.75095        -2.50127
H         19.87370         5.99857        -3.61747
H         18.62029         8.13314        -3.21705
H         18.73274        56.86705        -2.90349
H         20.07237        58.87008        -3.60626
H         23.34979         2.82000        -4.46810
H         21.16920         3.95851        -4.15745
H         23.60325        62.02751        -4.43289
H         21.41605        60.84551        -4.31905
H         25.48725         4.00542        -4.04927
H         26.70402         6.07242        -3.45657
H         26.82223        59.02058        -2.57467
H         25.66639        60.97827        -3.52394
H         27.90263         8.15736        -2.90429
H         29.08526        10.21047        -2.35177
H         29.22309        54.96040        -0.99023
H         28.02130        57.06807        -1.51049
H         30.39619        12.25607        -1.43866
H         31.63135        14.17897        -0.64280
H         31.67363        50.71566        -0.11433
H         30.01456        52.03440        -1.62286
H         32.87308        16.22523        -0.00263
H         34.07262        18.36256         0.38656
H         34.22456        46.62741        -0.09761
H         32.73518        48.65635        -0.28742
H         35.24555        20.51816         0.71549
H         36.45120        22.87548         0.69854
H         36.55348        42.27258         0.92020
H         35.43874        44.27113        -0.03628
H         37.64506        24.86813         0.23048
H         38.79872        26.92912         0.22709
H         38.90459        37.87088         1.22621
H         37.66312        40.10628         1.39297
H         40.00677        29.02411         0.57494
H         41.20938        31.10023         1.04930
H         41.22632        33.56226         1.30725
H         40.04818        35.71237         1.24948
