         598
 CSIRO Nanostructure Databank - Neutral Graphene Oxide Data Set
C         23.11553        69.86328         1.83742
C         22.73726        71.13198         1.41151
C         21.84470        72.08786         1.94733
C         23.07994        74.17493         1.21246
C         21.96437        73.46975         1.66051
C         25.53799        65.70834         1.03228
C         25.58664        67.10171         1.14667
C         24.40741        67.84693         1.43594
C         25.58371        69.98107         1.11416
C         24.35202        69.24195         1.40265
C         25.63961        71.44122         1.15231
C         24.53907        72.20486         0.85525
C         25.57409        74.37421         1.14703
C         24.40931        73.63200         1.05580
C         27.92253        61.37432         0.09885
C         27.90699        62.80250         0.35058
C         26.75742        63.48775         0.61878
C         28.04821        65.73791         0.61999
C         26.75160        64.93072         0.95026
C         27.97319        67.18058         0.45266
C         26.81141        67.84047         0.88785
C         28.08966        69.96009         0.85268
C         26.77553        69.27020         0.94740
C         28.17887        71.44842         1.10461
C         26.90126        72.17595         1.42586
C         28.10784        74.36570         0.89327
C         26.87173        73.69032         1.29132
C         30.08730        57.06508        -0.52937
C         30.27031        58.40606        -0.34687
C         29.00581        59.23455        -0.56453
C         30.35926        61.36822        -0.27699
C         29.07682        60.67970        -0.13843
C         30.32103        62.76711        -0.38303
C         29.24598        63.51979         0.34997
C         30.18341        65.72810        -0.82002
C         29.08581        64.96342        -0.11551
C         30.21377        67.20207        -0.67341
C         29.11831        67.89875        -0.09466
C         30.26095        70.11755        -0.42087
C         29.15258        69.30282         0.07843
C         30.40436        71.53856        -0.01478
C         29.30551        72.21529         0.54490
C         30.45671        74.34822         0.18243
C         29.27305        73.65731         0.55232
C         32.74400        52.74313        -0.88179
C         32.63474        54.19027        -1.08700
C         31.29103        54.87070        -1.04704
C         33.03128        57.04078         0.10172
C         31.08685        56.01561        -0.35191
C         32.89393        58.50777         0.20952
C         31.53879        59.15974        -0.03721
C         32.81931        61.31712        -0.49687
C         31.56632        60.61927        -0.38070
C         32.79470        62.80918        -0.60181
C         31.49469        63.48879        -0.88090
C         32.74163        65.74331        -1.02428
C         31.47631        65.00192        -1.10127
C         32.75965        67.16746        -1.31949
C         31.39754        67.91236        -1.15718
C         32.78631        70.05989        -0.98217
C         31.47867        69.39729        -1.01753
C         32.73260        71.52737        -0.96114
C         31.56190        72.23798        -0.42436
C         32.86991        74.33952        -0.19816
C         31.62161        73.65749        -0.20482
C         35.32448        48.55487        -0.48794
C         35.25187        49.94093        -0.73888
C         34.03153        50.65834        -0.70818
C         35.22216        52.81744        -0.99918
C         33.97011        52.07131        -0.87768
C         35.21630        54.19994        -0.94948
C         33.95383        54.97045        -0.97531
C         35.25522        57.17291        -0.84050
C         34.03706        56.40551        -0.56022
C         35.28475        58.53383        -0.68026
C         34.20883        59.27806         0.08978
C         35.32528        61.44043        -0.54735
C         34.05260        60.69505        -0.40216
C         35.28694        62.82497        -1.10055
C         34.04041        63.59319        -0.84720
C         35.25632        65.77146        -1.59410
C         33.97572        65.00691        -1.33469
C         35.26459        67.23643        -1.31605
C         34.04068        67.92319        -1.21976
C         35.28247        70.04873        -0.90734
C         34.01394        69.35728        -1.05240
C         35.31550        71.45147        -0.66090
C         34.12042        72.27371        -0.81546
C         35.27328        74.21303         0.20769
C         34.08516        73.64340        -0.26762
C         38.01962        44.60105         0.65527
C         37.89870        45.84905         0.01044
C         36.66357        46.53390        -0.01553
C         37.76618        48.53872        -0.88722
C         36.56626        47.86280        -0.48989
C         37.71096        49.94404        -1.12455
C         36.48172        50.65651        -0.98373
C         37.71228        52.74323        -1.06718
C         36.47271        52.07200        -1.06359
C         37.75568        54.20990        -1.16012
C         36.46347        54.96855        -1.14874
C         37.71585        57.08889        -0.78559
C         36.50904        56.44327        -0.96819
C         37.79419        58.53260        -0.90528
C         36.50410        59.25338        -1.22017
C         37.82567        61.44557        -1.26092
C         36.60471        60.70958        -0.83460
C         37.85038        62.81517        -1.32112
C         36.55114        63.52391        -1.47481
C         37.87466        65.72447        -1.54232
C         36.56673        65.01293        -1.65640
C         37.83050        67.22152        -1.39054
C         36.51580        67.92891        -1.17882
C         37.82235        70.08696        -0.93492
C         36.51360        69.30735        -0.93687
C         37.73292        71.39787        -0.19624
C         36.51012        72.09177        -0.19203
C         37.65626        74.08758         0.69440
C         36.47686        73.47248         0.24517
C         40.71733        40.79010         2.30283
C         40.13487        41.66929         1.37892
C         39.28604        42.75844         1.57018
C         40.31827        44.33233        -0.17553
C         39.20879        43.85292         0.63333
C         40.24784        45.65609        -0.69791
C         39.07660        46.43560        -0.56761
C         40.20105        48.49652        -1.32108
C         39.03034        47.83285        -0.94900
C         40.13996        49.91008        -1.82964
C         38.92692        50.65717        -1.32816
C         40.21566        52.72019        -0.73963
C         38.93569        52.04086        -1.15748
C         40.19065        54.22607        -0.78002
C         39.01437        54.90813        -0.82867
C         40.22058        57.06627        -0.30741
C         38.90351        56.30239        -0.26892
C         40.24091        58.54175        -0.60048
C         38.97859        59.22415        -0.93247
C         40.33191        61.40467        -1.12959
C         39.07452        60.63324        -1.49522
C         40.32441        62.79137        -1.12269
C         39.10052        63.56553        -1.25890
C         40.35232        65.69106        -0.92747
C         39.12190        64.96064        -1.21662
C         40.34695        67.09832        -0.75000
C         39.11900        67.89578        -1.01685
C         40.20548        69.91197        -0.10951
C         39.05128        69.28754        -0.54322
C         40.16140        71.31582         0.26718
C         38.91797        72.01896         0.26015
C         40.07416        74.04994         1.06648
C         38.87850        73.39058         0.70605
C         43.34597        36.92872         3.81730
C         42.79307        37.78171         2.85761
C         42.00974        38.93389         3.02343
C         42.89594        40.30442         1.06159
C         41.84186        39.94827         2.02590
C         42.88875        41.58472         0.38351
C         41.68372        42.24837         0.05973
C         42.78519        44.24352        -0.69902
C         41.57855        43.61459        -0.28635
C         42.71594        45.46990        -1.58346
C         41.39611        46.23577        -1.45128
C         42.71166        48.47667        -2.03984
C         41.40369        47.73209        -1.69351
C         42.72486        49.93415        -1.59195
C         41.45903        50.68112        -1.71814
C         42.73050        52.79779        -1.00471
C         41.46046        52.13581        -1.37150
C         42.71657        54.18817        -0.75317
C         41.45888        54.92862        -0.63545
C         42.72534        57.04428        -0.83281
C         41.46556        56.29652        -0.50615
C         42.71095        58.52402        -0.56778
C         41.52960        59.24277        -0.81383
C         42.79321        61.31789        -0.70297
C         41.55773        60.65558        -0.92325
C         42.89469        62.76416        -0.94754
C         41.60237        63.53975        -1.13353
C         42.80370        65.67868        -0.60318
C         41.59198        64.99326        -0.84218
C         42.78131        67.07313        -0.39296
C         41.54219        67.78593        -0.41692
C         42.63674        69.90810         0.25705
C         41.48326        69.20680        -0.08744
C         42.59107        71.29435         0.63738
C         41.33916        71.98669         0.64401
C         42.52151        74.07451         1.23979
C         41.30345        73.38283         1.00524
C         45.93130        34.34052         4.47955
C         44.75646        35.06944         4.49849
C         45.55255        36.46010         2.63106
C         44.51885        36.13344         3.58386
C         45.49753        37.63827         1.77793
C         44.29048        38.26281         1.43899
C         45.37373        40.26853         0.62034
C         44.16008        39.61734         1.03277
C         45.34168        41.58538         0.08643
C         44.09065        42.25181        -0.01810
C         45.23509        44.23842        -1.00106
C         44.01518        43.56918        -0.58582
C         45.19092        45.59768        -1.37110
C         43.96705        46.32558        -1.47614
C         45.17769        48.47085        -1.44527
C         43.96148        47.72228        -1.62443
C         45.16810        49.88962        -1.26508
C         43.90506        50.61160        -1.30949
C         45.15725        52.72473        -0.78318
C         43.92943        52.04873        -1.03435
C         45.14852        54.13195        -0.59969
C         43.95274        54.87549        -0.59574
C         45.06449        57.00002         0.04887
C         43.95794        56.31980        -0.37301
C         45.00735        58.45692         0.47606
C         43.88981        59.20310        -0.21742
C         45.03438        61.32767         0.48219
C         43.91575        60.60485        -0.23974
C         45.14710        62.79291         0.05519
C         44.11538        63.48516        -0.50225
C         45.38744        65.69353        -0.33954
C         44.13613        64.97315        -0.88085
C         45.32980        67.11957         0.03697
C         44.05462        67.82636        -0.25874
C         45.13402        69.93179         0.74880
C         43.96889        69.28722         0.10710
C         45.01922        71.27162         1.09153
C         43.77750        71.98397         0.95868
C         44.97596        74.14014         1.26664
C         43.74365        73.40860         1.19886
C         46.95831        34.69687         3.58980
C         47.93679        36.13408         1.79322
C         46.78733        35.75852         2.70346
C         47.94968        37.59970         1.42415
C         46.69676        38.28701         1.33634
C         47.83190        40.22892         0.33290
C         46.62497        39.58306         0.76143
C         47.77364        41.49214        -0.28119
C         46.54311        42.20873        -0.40416
C         47.70845        44.23478        -1.24607
C         46.48946        43.53242        -0.93186
C         47.71542        45.60473        -1.47625
C         46.43289        46.30515        -1.83576
C         47.63766        48.42431        -1.32759
C         46.42527        47.76208        -1.45747
C         47.63545        49.83425        -0.90614
C         46.37474        50.59317        -0.99271
C         47.65359        52.69677        -0.61001
C         46.40989        51.99583        -0.78662
C         47.66854        54.10008        -0.30589
C         46.41482        54.86329        -0.45886
C         47.54837        56.91133         0.62101
C         46.36701        56.31937        -0.06724
C         47.55075        58.43254         0.77656
C         46.33978        59.18146         0.41160
C         47.60343        61.24239         0.69430
C         46.36936        60.57442         0.43441
C         47.62776        62.69893         0.91073
C         46.36310        63.47986         0.55037
C         47.69427        65.61333         0.83282
C         46.55990        64.91098         0.20388
C         47.66082        67.02045         0.89434
C         46.42725        67.76372         0.58916
C         47.49870        69.84666         1.41234
C         46.37334        69.19624         0.92132
C         47.47826        71.28493         1.78282
C         46.18107        72.02093         1.60572
C         47.42430        74.15301         1.11658
C         46.19127        73.48820         1.35894
C         49.11484        38.23073         1.04806
C         50.30465        40.20710         0.19900
C         49.10420        39.56100         0.51899
C         50.31784        41.48923        -0.40889
C         49.01822        42.05647        -0.82531
C         50.25026        44.25427        -1.28897
C         48.98999        43.50675        -1.29517
C         50.22377        45.65263        -1.50504
C         48.94475        46.34454        -1.57204
C         50.10808        48.53830        -1.77452
C         48.89152        47.74895        -1.51065
C         50.18149        49.95644        -1.38214
C         48.95135        50.58600        -0.86144
C         50.12287        52.76435        -0.73571
C         48.91039        52.05214        -0.76583
C         50.12324        54.14621        -0.29984
C         48.85191        54.76995        -0.02697
C         50.12202        56.84499         0.87766
C         48.83784        56.12753         0.58569
C         50.08698        58.34784         1.08097
C         48.83795        59.13181         0.84574
C         50.10916        61.30714         0.77147
C         48.83519        60.52517         0.77503
C         50.12508        62.74394         1.14369
C         48.90196        63.44030         1.05958
C         50.06629        65.56867         1.49426
C         48.86935        64.87525         1.17022
C         50.06091        66.98206         1.51397
C         48.83955        67.68927         1.30661
C         50.06483        69.89794         1.74438
C         48.75896        69.12072         1.62258
C         50.05485        71.40485         1.58304
C         48.74018        72.09900         1.65430
C         49.81353        74.14044         0.65056
C         48.64272        73.47897         1.09870
C         51.48891        42.20404        -0.64189
C         52.68737        44.31901        -1.08817
C         51.48385        43.57772        -1.05618
C         52.69227        45.70369        -1.35602
C         51.44456        46.36039        -1.59844
C         52.71511        48.54970        -1.92501
C         51.43381        47.77873        -1.96024
C         52.65775        50.06226        -1.72831
C         51.35569        50.68451        -1.39165
C         52.57975        52.78201        -0.91723
C         51.36950        52.07904        -0.98402
C         52.54161        54.24315        -0.73311
C         51.30909        54.87518        -0.23678
C         52.63678        57.01103         0.23018
C         51.46038        56.12540         0.61382
C         52.64602        58.38879         0.67460
C         51.38731        59.08056         1.05568
C         52.59715        61.27128         1.35840
C         51.40526        60.56966         0.84349
C         52.56408        62.62618         1.69404
C         51.33662        63.37039         1.56030
C         52.52677        65.58546         2.36708
C         51.26525        64.80705         1.93536
C         52.50011        67.05866         2.05834
C         51.31935        67.70366         1.64913
C         52.36811        69.85242         0.92635
C         51.28868        69.13952         1.39990
C         52.45303        71.30068         0.96730
C         51.12526        71.99574         0.64228
C         52.15525        74.26671        -0.03283
C         51.07777        73.54860         0.53756
C         53.91402        46.45139        -1.34744
C         55.13529        48.59501        -1.40568
C         53.95805        47.83914        -1.54905
C         55.13193        50.01978        -1.33198
C         53.89725        50.75365        -1.33330
C         55.09041        52.85435        -0.84284
C         53.85914        52.13156        -1.04664
C         55.11016        54.24530        -0.58547
C         53.84028        54.99932        -0.62728
C         55.08898        57.12624        -0.17688
C         53.81205        56.39790        -0.13391
C         55.08497        58.55828         0.33955
C         53.80792        59.10935         0.80795
C         55.12044        61.09379         1.81657
C         53.78432        60.41855         1.51989
C         55.10445        62.54297         1.97709
C         53.82662        63.26655         2.20566
C         55.19046        65.44445         2.58843
C         53.84543        64.78763         2.52057
C         55.38815        66.70865         3.16876
C         53.63418        67.86069         2.47281
C         55.15948        69.96327         2.07443
C         54.11841        68.98114         1.82842
C         54.98407        71.42560         1.71313
C         53.59929        71.90268         1.37419
C         54.64242        73.80778        -0.44465
C         53.47863        73.84891         0.28918
C         56.33232        50.72892        -1.12315
C         57.54816        52.81422        -0.69603
C         56.33832        52.12682        -0.89974
C         57.57323        54.19568        -0.35710
C         56.31884        54.93232        -0.31180
C         57.53438        57.00153         0.27049
C         56.34708        56.34373        -0.07442
C         57.57819        58.38993         0.62137
C         56.35383        59.14810         0.81261
C         57.64505        60.97288         1.84985
C         56.36560        60.38872         1.39996
C         57.64018        62.43040         2.25163
C         56.38898        63.22820         1.98206
C         57.73708        65.33345         2.67407
C         56.42337        64.71854         2.25568
C         57.80307        66.81834         2.63685
C         56.58949        67.42822         3.07290
C         57.56983        70.28243         1.82475
C         56.45510        69.69260         2.51810
C         57.32205        71.33557         0.86379
C         56.04958        71.95063         0.74602
C         57.03390        73.63673        -0.67959
C         55.88009        73.11178        -0.08400
C         58.77205        54.83710        -0.07786
C         60.02876        56.99002         0.16760
C         58.79814        56.20528         0.51639
C         60.05339        58.34820         0.43539
C         58.82659        59.02381         0.83635
C         60.12146        61.03351         1.37636
C         58.90530        60.34652         1.37434
C         60.24203        62.36227         2.01561
C         58.98478        63.10583         2.40096
C         60.23834        65.35561         2.23356
C         59.03386        64.59583         2.57791
C         60.35240        66.83680         2.50212
C         59.01373        67.47194         2.64171
C         59.84595        69.76431         0.81599
C         58.83657        69.64144         1.81925
C         59.67375        71.01542         0.01845
C         58.45918        71.77643         0.11660
C         59.42542        73.73131        -1.07662
C         58.31215        73.04290        -0.56100
C         61.25154        59.12045         0.33525
C         62.50469        61.20611         0.64545
C         61.30019        60.44193         0.78049
C         62.61641        62.52862         1.06734
C         61.51693        63.14739         1.84032
C         62.60091        65.45916         1.39242
C         61.49288        64.66663         1.95990
C         62.47439        66.83158         1.19995
C         61.22509        67.55377         1.46384
C         62.02205        69.01570        -0.23075
C         60.95805        68.75941         0.75390
C         61.81578        70.98275        -1.24339
C         60.68907        71.67641        -0.76394
C         61.80885        73.68025        -1.72205
C         60.66186        73.06859        -1.14603
C         63.76135        63.31706         0.81737
C         64.88019        65.42217         0.42116
C         63.78038        64.72085         0.96533
C         64.83363        66.80414         0.20794
C         63.72743        67.62912         0.84530
C         64.44938        69.49143        -0.79420
C         63.34753        68.73789        -0.10480
C         64.29875        70.83598        -1.48222
C         63.02109        71.57222        -1.57318
C         64.17722        73.51205        -2.51028
C         63.02338        72.97508        -1.88776
C         65.78834        67.39621        -0.62619
C         66.65413        69.26317        -1.95203
C         65.67333        68.71723        -1.13634
C         66.56311        70.58443        -2.51608
C         65.39752        71.35981        -2.31501
C         66.40848        73.21372        -3.54687
C         65.31267        72.69806        -2.80337
C         67.62343        71.13012        -3.28065
C         67.53347        72.42838        -3.78788
O         50.78986        58.71173         2.33385
O         56.53224        64.21443         0.86541
O         37.13330        54.64051        -2.44001
O         41.44607        51.74497        -2.78001
O         33.41620        72.15403        -2.07691
O         38.65954        67.82791        -2.44549
O         31.89091        67.49533        -2.46198
O         26.96704        72.97716         2.63367
O         53.72237        63.79117         3.58048
O         32.00800        56.29389         0.67851
O         33.32087        54.72483        -2.28996
O         43.12940        37.49048         1.51525
O         44.62004        61.25094         1.83877
O         29.02518        65.17783        -1.54869
O         58.35672        64.88676         3.91923
O         34.40774        65.31968        -2.69976
O         44.23269        68.86470        -1.28666
O         50.90356        61.02315        -0.45596
O         59.78279        62.41025         3.39926
O         40.52782        41.47856         0.03180
O         31.39409        64.05244        -2.23127
O         42.44007        63.15864        -2.28107
O         53.53183        73.28842         1.58552
O         54.27199        67.41291         3.65175
O         32.07605        58.94861         1.33373
O         48.38948        49.97625         0.36566
O         49.39616        69.43344         2.92759
O         61.96239        63.77077         3.06650
O         59.08146        68.82639         2.93202
O         46.51471        65.29247        -1.21342
O         52.82117        49.45224        -3.05776
O         30.47678        70.02131        -1.88130
O         36.27829        61.13831         0.52625
O         27.76683        65.28746         1.97459
O         49.68747        72.09478         2.79662
O         23.43894        71.58009         0.26769
O         53.53133        69.17864         0.53476
O         37.32620        65.35396        -2.85865
O         28.57936        70.49946         2.15720
O         46.64044        71.61496         2.94104
O         56.65205        68.73430         3.52772
O         50.62585        48.16784        -3.10354
O         55.11797        58.25884        -1.10330
O         61.63828        69.61951        -1.42808
O         46.65748        63.17844         1.92592
O         46.63254        55.94405        -1.46447
O         54.35749        60.35904         2.86189
O         64.75479        70.72824        -0.05215
O         57.50117        61.39718         3.25731
O         47.27697        57.47523         1.90336
O         40.33317        52.41257         0.64365
O         50.72008        71.65093        -0.64052
O         49.42341        56.12378         1.94160
O         48.95834        42.38454        -2.24962
O         40.26424        58.01925         0.81092
O         35.70203        62.87149        -2.49666
O         41.01435        46.77090        -2.75506
O         53.14169        54.93031        -1.92722
O         33.53568        63.45753         0.51242
O         51.56544        65.13110         3.34912
O         64.26880        68.13991         2.08913
H         63.52958        68.51012         2.61589
O         42.74299        44.90925        -2.92612
H         42.37192        45.59968        -3.52455
O         42.74962        48.55673        -3.49469
H         41.85725        48.85855        -3.78752
O         38.58558        56.08556         1.14158
H         38.98527        56.83784         1.63886
O         28.66507        59.21016        -1.96806
H         29.28985        59.79009        -2.45080
O         39.93656        49.72816        -3.27748
H         40.13874        50.60384        -3.68647
O         34.71662        59.34075         1.45478
H         33.96489        59.62328         2.02255
O         58.85888        55.99369         1.99220
H         58.88413        56.88306         2.40833
O         55.31541        72.10715         2.97188
H         54.94944        73.01928         2.90286
O         36.34223        59.28369        -2.67080
H         36.48935        58.37803        -3.01683
O         38.04907        70.46656        -2.33531
H         38.23797        69.62449        -2.82193
O         39.16609        60.41942        -2.94479
H         39.12997        61.29614        -3.38437
O         44.23583        65.04287        -2.32183
H         45.17952        64.90329        -2.56105
O         46.37848        46.26522        -3.31072
H         47.20381        46.67333        -3.64975
O         29.74066        63.55463         1.72197
H         29.05473        64.02192         2.26219
O         42.81218        56.98441        -2.30997
H         42.99758        56.05487        -2.56581
O         49.18959        35.73438         2.35246
H         49.31145        36.20489         3.20211
O         44.67162        58.52524         1.89167
H         44.60018        59.50986         2.10781
O         61.03864        67.01033         3.78878
H         60.63659        66.38228         4.42795
O         51.89875        55.57623         1.89675
H         51.08529        55.44776         2.44317
H         22.99188        75.27235         1.18216
H         25.54222        75.47274         1.20147
H         28.09948        75.46065         0.78691
H         30.48759        75.44357         0.27588
H         32.88379        75.39695         0.10565
H         35.26550        75.24593         0.58534
H         37.63143        75.14304         1.00226
H         40.04082        75.10995         1.35740
H         42.49444        75.15577         1.43904
H         44.94615        75.23607         1.17042
H         47.39357        75.21036         0.81016
H         49.73069        75.22306         0.45481
H         51.96800        75.05097        -0.78351
H         54.66357        74.34235        -1.40625
H         56.95243        74.56439        -1.26531
H         59.31188        74.75206        -1.46754
H         61.73746        74.72584        -2.05454
H         64.17926        74.56391        -2.83241
H         66.36211        74.24383        -3.92782
H         22.48734        69.30917         2.55119
H         21.05220        71.76633         2.63877
H         21.10357        74.09149         1.95739
H         24.56612        65.19874         0.95874
H         23.49332        67.28881         1.68760
H         26.95888        60.84160         0.09613
H         25.79204        62.95786         0.62478
H         29.08424        56.74483        -0.85879
H         28.15815        58.73169        -0.03285
H         31.82524        52.17525        -0.66912
H         30.58706        54.58053        -1.84182
H         34.40965        48.00267        -0.22681
H         33.09211        50.10311        -0.56235
H         37.15590        44.20734         1.21061
H         35.76791        46.03684         0.38507
H         40.25541        40.70433         3.29799
H         38.67845        42.82702         2.48455
H         42.91303        36.91173         4.82913
H         41.45437        39.05701         3.96603
H         46.07590        33.50511         5.17822
H         43.96987        34.81959         5.22496
H         47.91508        34.15614         3.59993
H         47.82306        35.55423         0.83246
H         50.07101        37.69186         1.12219
H         51.26075        39.71195         0.42535
H         52.45475        41.74404        -0.38416
H         53.63974        43.80665        -0.88779
H         54.84869        45.91908        -1.11715
H         56.08561        48.06911        -1.23092
H         57.28738        50.18357        -1.12013
H         58.49724        52.25975        -0.74081
H         59.71751        54.27800        -0.14574
H         60.95011        56.46399        -0.12226
H         62.16209        58.64455        -0.05688
H         63.36226        60.73478         0.14212
H         64.63479        62.83612         0.35129
H         65.71138        64.84425        -0.01245
H         66.64456        66.78517        -0.95522
H         67.55506        68.66879        -2.16915
H         68.52727        70.52980        -3.45646
H         68.36903        72.84165        -4.36987
