         638
 CSIRO Nanostructure Databank - Neutral Graphene Oxide Data Set
C         23.09030        69.81428         0.01223
C         23.10917        71.22588        -0.17901
C         21.98204        71.89116        -0.74007
C         23.15435        74.00593        -0.70444
C         22.01540        73.26435        -0.99156
C         25.40556        65.59968         1.32357
C         25.45097        67.02737         0.83492
C         24.28507        67.69873         0.47885
C         25.47713        69.83639         0.62733
C         24.27352        69.11442         0.35468
C         25.40248        71.31765         0.89473
C         24.26461        71.97832         0.15549
C         25.45482        74.13119         0.14498
C         24.30455        73.38068        -0.12170
C         27.88866        61.32196         0.66489
C         27.89127        62.73833         0.79884
C         26.67749        63.47609         0.85864
C         27.90773        65.56359         1.11564
C         26.68878        64.85664         1.05310
C         27.89994        67.03247         1.46880
C         26.66573        67.73896         0.95408
C         27.90393        69.90692         1.29993
C         26.66919        69.14612         0.86294
C         27.90553        71.34842         0.81948
C         26.72490        72.02619         0.71766
C         27.93892        74.22464         0.25027
C         26.67646        73.54021         0.78347
C         30.31538        57.04176        -0.03502
C         30.30170        58.46069         0.13788
C         29.09427        59.18380         0.29012
C         30.34591        61.27433         0.56419
C         29.09870        60.58537         0.51211
C         30.39973        62.69366         1.06276
C         29.11934        63.45553         0.86814
C         30.38633        65.59122         0.88965
C         29.12978        64.86218         0.97136
C         30.38315        67.01324         0.89471
C         29.17392        67.75724         1.08464
C         30.39894        69.86063         0.76224
C         29.18399        69.14782         1.02476
C         30.39406        71.31959         0.67630
C         29.18396        72.04127         0.68607
C         30.40875        74.15003         0.55027
C         29.20859        73.46352         0.53693
C         32.68288        52.65194        -0.27954
C         32.35274        53.89542         0.21561
C         31.35783        54.83289        -0.15908
C         32.76860        56.92888         0.07485
C         31.49629        56.25010         0.01799
C         32.78279        58.42165        -0.24311
C         31.53552        59.16748         0.14662
C         32.79233        61.31452         0.31155
C         31.56023        60.57558         0.34396
C         32.81126        62.74408         0.33155
C         31.61510        63.45847         0.61695
C         32.82797        65.60572         0.47802
C         31.59749        64.87525         0.64163
C         32.83178        66.99969         0.58316
C         31.61202        67.72909         0.70668
C         32.84749        69.85709         0.12126
C         31.59959        69.15073         0.61076
C         32.86929        71.33383         0.42480
C         31.63209        72.02689         0.57946
C         32.88492        74.14810         0.62684
C         31.65045        73.45604         0.60784
C         35.27694        48.44641        -0.55304
C         35.23012        49.87391        -0.50287
C         34.03344        50.53580        -0.31098
C         35.20134        52.80175        -0.45683
C         33.98463        51.97442         0.13668
C         35.47834        54.13321         0.31338
C         34.23889        54.96622         0.50923
C         35.25853        57.01053        -0.31986
C         34.04531        56.27836         0.08810
C         35.23990        58.38122        -0.29391
C         34.04464        59.05530         0.35143
C         35.29082        61.33874        -0.11215
C         34.06599        60.57990         0.28434
C         35.20078        62.78303        -0.54113
C         34.01626        63.47874         0.07662
C         35.28819        65.57509         0.00925
C         34.05774        64.87905         0.19497
C         35.25930        67.07389        -0.08252
C         34.16060        67.69120         0.77950
C         35.31335        69.84156         0.41260
C         34.13280        69.18119         0.51601
C         35.37539        71.32397         0.13376
C         34.06941        72.02609         0.42470
C         35.36686        74.13809         0.62884
C         34.10154        73.45325         0.58057
C         37.78872        44.23264        -0.12185
C         37.76260        45.64896        -0.34434
C         36.53799        46.34181        -0.42298
C         37.72852        48.48378        -0.78135
C         36.49210        47.74758        -0.58292
C         37.69323        49.87569        -0.87458
C         36.48352        50.62169        -0.63148
C         37.73707        52.73960        -0.79629
C         36.50263        52.01140        -0.58457
C         37.75048        54.15462        -0.76815
C         36.55707        54.89716        -0.42108
C         37.63581        56.98914        -1.25339
C         36.46027        56.24879        -0.64745
C         37.70104        58.38931        -0.68003
C         36.42013        59.14454        -0.74681
C         37.77412        61.33902        -0.55479
C         36.47776        60.62217        -0.65604
C         37.75474        62.76045        -0.40587
C         36.52793        63.48005        -0.31382
C         37.78402        65.58895        -0.04374
C         36.52731        64.88183        -0.13742
C         37.80051        67.00542         0.15892
C         36.58335        67.73947         0.21374
C         37.81856        69.82943         0.55750
C         36.58430        69.11560         0.44128
C         37.82879        71.24474         0.71311
C         36.51429        71.95358         0.94418
C         37.82483        74.10649         0.79533
C         36.57527        73.45268         0.73891
C         40.24711        40.11111         1.02220
C         40.17738        41.49590         0.72872
C         39.00960        42.13156         0.32551
C         40.24266        44.25115        -0.08388
C         38.98246        43.54230         0.05032
C         40.24441        45.66609        -0.42719
C         38.98907        46.36515        -0.47888
C         40.20712        48.45194        -0.91788
C         38.99210        47.77263        -0.76165
C         40.21330        49.82048        -1.40481
C         38.89196        50.59582        -1.31361
C         40.16329        52.73471        -1.33120
C         38.94477        52.05441        -1.15138
C         40.18850        54.14389        -1.23647
C         38.96429        54.86148        -1.04374
C         40.17181        56.99505        -1.16262
C         38.95060        56.27030        -1.10671
C         40.20381        58.40039        -0.96334
C         38.98082        59.13738        -0.60857
C         40.20790        61.33298        -0.53993
C         38.98189        60.62880        -0.58328
C         40.23151        62.74519        -0.40485
C         39.00209        63.46161        -0.31671
C         40.26268        65.56113         0.03857
C         39.01283        64.87674        -0.11360
C         40.27779        66.97199         0.26728
C         39.03995        67.69328         0.31263
C         40.28355        69.81059         0.60034
C         39.04604        69.10802         0.48583
C         40.28281        71.22898         0.73053
C         39.03716        71.94350         0.77080
C         40.28572        74.06673         0.94241
C         39.04876        73.39669         0.85561
C         42.75256        36.07368         2.35473
C         42.70223        37.47353         2.09824
C         41.50470        38.10720         1.72979
C         42.68733        40.25274         1.42066
C         41.44758        39.48685         1.41384
C         42.67692        41.61655         1.09643
C         41.37296        42.35859         1.05790
C         42.69327        44.27456         0.04313
C         41.43638        43.62869         0.25708
C         42.69482        45.51791        -0.81122
C         41.45008        46.33077        -0.59152
C         42.61869        48.36301        -1.62104
C         41.55314        47.82413        -0.61499
C         42.68521        49.88537        -1.46602
C         41.49572        50.56502        -1.45005
C         42.69327        52.77358        -1.66201
C         41.39990        52.01948        -1.85209
C         42.66946        54.15435        -1.62103
C         41.41315        54.87500        -1.42204
C         42.62197        57.05684        -1.69200
C         41.39970        56.26037        -1.33150
C         42.76106        58.33271        -0.84075
C         41.45179        59.07597        -0.64128
C         42.75065        61.30948        -0.53470
C         41.46694        60.58016        -0.43805
C         42.72911        62.71836        -0.35819
C         41.48623        63.43669        -0.26898
C         42.74480        65.53903         0.06771
C         41.49409        64.83885        -0.04671
C         42.74998        66.94085         0.35405
C         41.50869        67.66067         0.44331
C         42.72859        69.80138         0.79000
C         41.51461        69.08820         0.60585
C         42.72729        71.19660         0.91506
C         41.51379        71.92561         0.86865
C         42.74968        74.06404         1.04129
C         41.51819        73.37384         0.97410
C         45.24558        33.40848         3.17915
C         44.01726        34.03711         2.89706
C         45.11981        36.27249         3.16957
C         43.93296        35.43456         2.74510
C         45.14670        37.63546         2.53014
C         43.93930        38.23425         2.12832
C         45.12775        40.35826         1.70083
C         43.92137        39.60523         1.71987
C         45.09503        41.72671         1.35900
C         43.88466        42.35742         1.02260
C         45.14866        44.40178         0.26553
C         43.88062        43.71600         0.49040
C         45.14313        45.70454        -0.42020
C         43.97638        46.31356        -0.77797
C         45.21213        48.47017        -1.19764
C         44.00362        47.61566        -1.59029
C         45.18144        49.93097        -1.36498
C         43.94765        50.61358        -1.49478
C         45.17900        52.73091        -1.68229
C         43.94855        52.03438        -1.62640
C         45.16105        54.17114        -2.10745
C         43.91144        54.91394        -1.69043
C         45.19605        57.02386        -1.59319
C         43.91170        56.27505        -1.64199
C         45.19539        58.50907        -1.40715
C         43.87117        59.25695        -1.42314
C         45.19951        61.29486        -0.71251
C         43.95219        60.62186        -0.76426
C         45.18504        62.68242        -0.41452
C         43.97280        63.40867        -0.30276
C         45.18771        65.58070        -0.17649
C         43.97341        64.84262        -0.11047
C         45.16857        66.97626         0.09577
C         43.98489        67.63416         0.45813
C         45.23321        69.85509         0.62363
C         44.01460        69.04494         1.01274
C         45.24947        71.21633         0.80150
C         44.00430        71.90089         1.31552
C         45.20611        74.07444         1.00533
C         43.99424        73.39297         1.07639
C         46.43366        34.12696         3.24466
C         47.61816        36.26714         2.99940
C         46.44441        35.54557         3.09160
C         47.62655        37.68298         2.72258
C         46.37005        38.34247         2.44660
C         47.59676        40.39833         1.89428
C         46.38175        39.70550         2.01905
C         47.60136        41.75497         1.23540
C         46.33540        42.56026         1.53807
C         47.63259        44.44429         0.45385
C         46.31377        43.82940         0.71692
C         47.69850        45.75169        -0.26070
C         46.44740        46.34347        -0.89432
C         47.61222        48.68443        -0.51101
C         46.37421        47.85324        -0.83724
C         47.69109        49.85949        -1.48131
C         46.40141        50.64790        -1.43312
C         47.68783        52.77779        -1.70952
C         46.41522        52.04739        -1.61482
C         47.69325        54.18572        -1.80246
C         46.45248        54.92368        -1.87974
C         47.71125        57.05118        -2.22515
C         46.43770        56.29783        -1.91183
C         47.65099        58.60161        -2.07700
C         46.42523        59.32063        -1.60567
C         47.79216        61.19331        -0.67445
C         46.44502        60.58868        -1.07087
C         47.75195        62.69495        -0.40380
C         46.44984        63.42426        -0.23555
C         47.65296        65.57890        -0.49539
C         46.44836        64.89653        -0.36344
C         47.63675        67.04877        -0.61313
C         46.38176        67.76868        -0.19807
C         47.69346        69.93768         0.10100
C         46.52334        69.09567         0.51860
C         47.70248        71.30053         0.41282
C         46.47185        71.97332         0.71573
C         47.68560        74.10110         0.86091
C         46.46850        73.39362         0.88952
C         48.81810        38.39453         2.62213
C         50.04091        40.49714         2.11381
C         48.83819        39.76745         2.21624
C         50.04975        41.89574         1.79331
C         48.84536        42.54924         1.50887
C         50.09831        44.63399         0.87648
C         48.78990        44.04435         1.34957
C         50.12904        45.90251         0.28713
C         48.91421        46.58312        -0.10229
C         50.16999        48.62152        -0.64582
C         48.91863        47.91679        -0.45705
C         50.17570        49.97494        -1.07929
C         48.95838        50.68126        -1.32096
C         50.20968        52.79000        -1.91908
C         48.92451        52.05519        -1.59331
C         50.13647        54.27889        -1.68061
C         48.94392        54.93599        -1.67820
C         50.18699        57.18680        -1.69864
C         48.87973        56.44446        -1.43314
C         50.20484        58.60373        -1.78906
C         48.93970        59.36327        -2.00832
C         50.21084        61.44791        -1.27060
C         48.88593        60.87226        -1.70733
C         50.19325        62.81526        -0.89557
C         48.95742        63.49933        -0.67396
C         50.17334        65.63192        -0.48898
C         48.92753        64.89439        -0.55272
C         50.19671        67.05672        -0.41879
C         48.94394        67.79556        -0.62922
C         50.21067        69.93797        -0.00149
C         48.93801        69.28599        -0.32357
C         50.18421        71.35099         0.27991
C         48.94378        72.03607         0.42401
C         50.17455        74.13635         0.75596
C         48.93806        73.44241         0.67753
C         51.27780        42.63467         1.73075
C         52.55019        44.60895         0.98921
C         51.31427        43.94288         1.21347
C         52.60070        45.90239         0.46183
C         51.37588        46.59239         0.08468
C         52.72841        48.50295        -0.81032
C         51.39198        47.89949        -0.41175
C         52.70002        50.01161        -0.80917
C         51.49610        50.63934        -1.46363
C         52.55453        52.86216        -0.94135
C         51.45407        52.14575        -1.32458
C         52.48480        54.37095        -0.78695
C         51.46370        54.98902        -1.74433
C         52.62662        57.17131        -1.46807
C         51.39421        56.48545        -1.56940
C         52.63569        58.57988        -1.55549
C         51.42475        59.31115        -1.66430
C         52.62721        61.43816        -1.05322
C         51.42208        60.75643        -1.40970
C         52.61130        62.77917        -0.64745
C         51.40434        63.51603        -0.66153
C         52.63998        65.62952        -0.22869
C         51.40003        64.92907        -0.43491
C         52.64414        67.04944        -0.11863
C         51.40179        67.76225        -0.22418
C         52.65684        69.87672         0.12319
C         51.40229        69.19982        -0.04745
C         52.64722        71.34746         0.08273
C         51.39614        72.07146         0.33270
C         52.66824        74.16528         0.75013
C         51.40935        73.47413         0.59357
C         53.83205        46.60282         0.41439
C         55.04215        48.68782         0.15875
C         53.89034        47.92549        -0.03247
C         55.04925        50.08651        -0.07639
C         53.81194        50.75103        -0.49147
C         54.97004        52.93345        -0.33405
C         53.80485        52.20577        -0.57019
C         55.02199        54.37571        -0.52257
C         53.82556        55.07236        -0.91408
C         55.10127        57.16719        -1.08471
C         53.85797        56.43362        -1.19954
C         55.14017        58.53732        -1.26880
C         53.92558        59.27557        -1.57903
C         55.15081        61.41135        -0.78951
C         53.93389        60.80348        -1.26388
C         55.14095        62.65986        -0.06560
C         53.79702        63.43304        -0.06590
C         55.04552        65.57310         0.29833
C         53.84734        64.90549        -0.02519
C         55.05309        66.97752         0.36433
C         53.87084        67.73112         0.14633
C         55.09092        69.90734         0.51817
C         53.86419        69.18436         0.23064
C         55.13378        71.27605         0.64320
C         53.95319        72.08732         0.33001
C         55.15272        74.18463         0.85845
C         53.89752        73.51972         0.71008
C         56.20975        50.82255         0.10456
C         57.40052        52.93926         0.16420
C         56.22375        52.24732        -0.02267
C         57.43815        54.42972         0.24122
C         56.22866        55.06972        -0.38443
C         57.56583        57.09806        -0.77896
C         56.32415        56.45820        -0.72227
C         57.64571        58.52872        -1.26494
C         56.38733        59.27821        -0.82547
C         57.64017        61.39785        -0.49585
C         56.45350        60.77868        -1.19721
C         57.60323        62.74794        -0.02270
C         56.36857        63.42504         0.11705
C         57.56810        65.52911         0.69928
C         56.26141        64.77623         0.77965
C         57.57941        66.92302         0.75819
C         56.26418        67.67324         0.95003
C         57.62583        69.79582         0.97567
C         56.36275        69.10293         0.40327
C         57.64066        71.30196         0.80861
C         56.35145        71.99965         1.17861
C         57.61417        74.14703         0.85667
C         56.36615        73.48655         0.88737
C         58.73959        55.03029        -0.20726
C         60.04260        57.07335        -0.70690
C         58.80406        56.37278        -0.57707
C         60.09455        58.49825        -0.68914
C         58.88131        59.24490        -0.77553
C         60.05989        61.24915        -0.02623
C         58.85043        60.62603        -0.43531
C         60.03104        62.56157         0.69899
C         58.80473        63.39342         0.42562
C         60.00902        65.48910         1.01205
C         58.79731        64.79252         0.70126
C         60.01619        66.89765         1.04459
C         58.82103        67.61136         0.80428
C         60.12130        69.80333         0.89636
C         58.88317        69.08055         0.44956
C         60.10357        71.25728         0.65237
C         58.81565        71.99195         0.73646
C         60.07679        74.14449         0.95391
C         58.84819        73.45356         0.84537
C         61.31216        59.20630        -0.52652
C         62.51812        61.33935        -0.10672
C         61.31051        60.59083        -0.21782
C         62.51086        62.72959         0.19968
C         61.29052        63.35374         0.53437
C         62.60127        65.45048         1.18795
C         61.27132        64.71822         1.07494
C         62.60328        66.92914         1.43272
C         61.25510        67.65523         1.37438
C         62.52293        69.80601         1.42535
C         61.28742        69.12231         1.16526
C         62.51834        71.27534         1.50354
C         61.36523        72.01764         0.91734
C         62.56628        74.15784         1.04750
C         61.33333        73.49774         1.04337
C         63.70994        63.51909         0.09506
C         64.83897        65.71340         0.15633
C         63.75552        64.86394         0.47384
C         64.93505        67.08538         0.52565
C         63.83654        67.70796         1.21383
C         64.94684        69.87886         1.76074
C         63.75201        69.11989         1.53606
C         65.09175        71.26399         1.50989
C         63.83655        72.04378         1.53473
C         65.01577        74.00312         0.68476
C         63.81053        73.44691         1.06982
C         66.08635        67.79606         0.02204
C         67.46176        69.95331         0.23164
C         66.60244        68.94945         0.63707
C         67.66948        71.16054         1.15424
C         66.31712        71.89415         1.15680
C         67.39526        73.90820         0.20820
C         66.24871        73.25921         0.68270
C         68.80631        71.99276         0.63104
C         68.66377        73.26657         0.18069
O         61.02766        71.61749        -0.45147
O         54.25060        62.74882         1.13226
O         46.72015        67.63276        -1.60627
O         47.22568        62.96013         0.94810
O         45.41595        57.65864        -0.24078
O         54.04886        60.26246        -2.66019
O         36.23166        59.96457        -1.95141
O         41.41626        59.66388         0.72700
O         39.38842        50.07601        -2.61772
O         62.07297        64.72922         2.32947
O         48.98129        68.76004        -1.71957
O         48.03296        44.47441        -0.95464
O         38.33088        58.51258         0.61796
O         48.26756        59.16020        -3.30940
O         53.45258        71.87778        -1.03713
O         35.04076        61.11772         1.29765
O         33.23106        54.37862         1.25548
O         66.08100        69.10767         1.97111
O         63.02939        71.83327         2.74789
O         61.87074        67.28174         2.64411
O         41.21617        51.97936        -3.31666
H         40.45399        51.36684        -3.47744
O         59.97483        62.19808         2.14548
H         60.22937        62.99668         2.65825
O         26.59348        73.85625         2.21065
H         25.92710        73.23973         2.59766
O         48.17431        60.53952         0.55377
H         47.71084        61.00980         1.28444
O         32.83045        69.74161        -1.35282
H         33.23067        68.86972        -1.57949
O         42.00743        48.25193         0.71061
H         41.39251        47.87659         1.37586
O         44.07841        71.71860         2.78711
H         43.35827        72.25678         3.18126
O         52.96083        48.08191        -2.19460
H         52.44519        48.69637        -2.77328
O         34.83870        53.21132        -1.79646
H         34.78747        52.41051        -2.35892
O         44.23136        47.19783        -2.96063
H         45.12085        46.75660        -2.99147
O         56.01033        64.58804         2.22174
H         55.31867        63.88481         2.29107
O         34.53721        67.47135         2.16323
H         33.84883        67.86699         2.73690
O         43.58947        59.64376        -2.78958
H         43.29966        58.85176        -3.30454
O         46.84523        68.68924         1.91404
H         45.97961        68.62525         2.39977
O         42.59998        45.05161        -2.20701
H         42.87123        45.81473        -2.78072
O         27.78495        69.98366         2.76873
H         26.96714        70.50451         2.95439
O         57.33333        54.77265         1.69860
H         58.12658        54.39651         2.13720
O         56.23427        71.89791         2.65049
H         56.92451        72.47861         3.03752
O         34.04869        58.70377         1.75466
H         34.63499        59.34998         2.21070
O         32.90258        58.53967        -1.69379
H         32.08954        58.16744        -2.09566
O         50.36033        52.62888        -3.38757
H         51.08180        53.26125        -3.64247
O         27.79240        67.10739         2.93822
H         27.82234        68.07313         3.16448
O         47.43458        49.25661         0.81535
H         47.43164        48.52833         1.47080
O         44.14890        68.88688         2.48250
H         44.09373        69.80453         2.85918
O         27.83103        74.37906        -1.17917
H         27.95161        73.49996        -1.59349
O         68.04923        70.76560         2.48442
H         67.43266        70.05006         2.76738
O         55.99996        67.70254         2.37295
H         56.02169        66.76999         2.68919
O         36.16545        71.73370         2.34334
H         36.86616        72.13827         2.89605
O         34.90002        67.41058        -1.47178
H         35.65438        67.15725        -2.04512
O         57.68128        69.59129         2.40374
H         56.93299        70.09119         2.80993
O         34.96695        62.76181        -1.98685
H         34.92379        63.69051        -2.29680
O         41.15554        42.79809         2.45707
H         41.04446        41.98645         2.99740
O         47.56894        41.50187        -0.20933
H         48.42900        41.10815        -0.46713
O         48.51352        44.64341         2.66361
H         49.00060        44.12511         3.33838
O         47.97191        56.72541        -3.61228
H         48.23871        57.55810        -4.07053
O         56.33716        59.27216         0.62485
H         56.43805        58.34635         0.93554
O         25.10065        71.44028         2.35878
H         24.21432        71.03964         2.49852
O         25.23696        65.66059         2.75795
H         26.04400        66.10416         3.11727
O         59.01042        69.14959        -0.99474
H         58.17155        68.79907        -1.38611
O         47.78323        49.28348        -2.81340
H         47.81510        50.01670        -3.46280
O         35.67190        71.50419        -1.27353
H         34.90768        71.14960        -1.77780
O         30.55252        62.56159         2.54032
H         29.73382        62.13674         2.87575
O         45.04393        54.11508        -3.58258
H         44.32791        53.47805        -3.79638
O         46.55138        46.02011        -2.31922
H         46.95794        45.12074        -2.36561
O         51.99576        54.64515         0.55755
H         52.65274        54.29431         1.19525
O         35.99328        53.77396         1.61820
H         36.30389        54.58912         2.06453
O         42.40147        57.39354        -3.10708
H         42.34478        56.55023        -3.60553
O         46.39805        42.91702         2.94907
H         45.60135        43.44535         3.16459
O         51.99361        54.77502        -3.09859
H         51.56768        55.42836        -3.69385
O         34.08631        51.88683         1.56928
H         33.91748        52.78469         1.94066
O         42.08244        48.11554        -2.93654
H         41.30980        48.69855        -3.08912
O         57.71828        58.47815        -2.71431
H         57.56713        59.40602        -3.03160
O         37.38883        57.15380        -2.68129
H         37.19879        56.27030        -3.06005
O         43.13000        57.84529         0.45606
H         42.81318        58.49895         1.12191
O         48.59701        56.64597        -0.03082
H         49.31054        56.22805         0.49559
O         51.64422        50.34937        -2.90436
H         51.07754        51.01434        -3.38282
O         44.90700        36.52345         4.60918
H         44.88771        35.64747         5.05037
O         56.46871        68.92671        -1.04686
H         56.18862        69.75945        -1.48368
O         48.53591        61.60243        -2.90462
H         48.22355        60.94199        -3.56950
O         56.65803        60.92818        -2.64158
H         55.77844        60.74684        -3.06263
H         23.18629        75.08350        -0.91901
H         25.44675        75.21431        -0.04758
H         27.99760        75.25411         0.68100
H         30.41057        75.24768         0.47693
H         32.88374        75.24707         0.67961
H         35.36850        75.23892         0.59482
H         37.85328        75.20685         0.75902
H         40.29391        75.16601         0.99415
H         42.74235        75.16419         1.00259
H         45.20024        75.17440         0.95717
H         47.67497        75.19164         1.00661
H         50.16748        75.21603         0.96777
H         52.63865        75.24219         0.97532
H         55.16760        75.28568         0.87384
H         57.62729        75.24723         0.81783
H         60.04949        75.24336         1.01196
H         62.59129        75.25271         0.93894
H         65.04542        75.04477         0.33129
H         67.31175        74.94731        -0.14146
H         22.17302        69.25133        -0.21108
H         21.08525        71.30576        -0.98836
H         21.13730        73.75858        -1.43075
H         24.52516        65.05364         0.90359
H         23.34219        67.14278         0.36826
H         26.92736        60.78987         0.62387
H         25.71794        62.94054         0.80305
H         29.34855        56.52223        -0.11145
H         28.13435        58.64798         0.25040
H         32.06288        52.19644        -1.06478
H         30.43756        54.46762        -0.63784
H         34.33673        47.88580        -0.44225
H         33.10942        49.94456        -0.21400
H         36.83171        43.69628        -0.03802
H         35.59588        45.78580        -0.30733
H         39.33775        39.49889         0.91940
H         38.07670        41.55504         0.22762
H         41.84477        35.47272         2.18815
H         40.57806        37.51478         1.68953
H         45.27251        32.31393         3.27708
H         43.12073        33.42188         2.73035
H         47.39077        33.59476         3.34878
H         48.58478        35.74360         3.06829
H         49.77261        37.88874         2.83104
H         50.99472        39.99975         2.34299
H         52.22175        42.12325         1.96889
H         53.48791        44.10413         1.26599
H         54.72891        46.13854         0.85304
H         55.94025        48.21666         0.58720
H         57.14265        50.30658         0.37620
H         58.31999        52.38027         0.39963
H         59.66804        54.46549        -0.02924
H         60.98196        56.50843        -0.61080
H         62.26840        58.66515        -0.57912
H         63.47593        60.84224        -0.31810
H         64.59948        63.06262        -0.36386
H         65.68025        65.27833        -0.40443
H         66.65034        67.32489        -0.79698
H         67.72350        70.04918        -0.83162
H         69.80158        71.52576         0.65913
H         69.53546        73.82829        -0.18496
