         429
 CSIRO Nanostructure Databank - Neutral Graphene Oxide Data Set
C          1.27330         3.18313        -1.13090
C          0.19643         3.97685        -0.81378
C          1.29358         6.15907        -0.13926
C          0.19712         5.35043        -0.38345
C          1.20811         7.64742        -0.17162
C          0.03174         8.35095         0.37190
C          1.16076        10.51316         0.10726
C          0.00384         9.71225         0.42374
C          1.09020        11.89068        -0.10656
C         -0.11918        12.62491        -0.06004
C          1.04615        14.75715         0.22330
C         -0.12351        14.02980         0.03819
C          1.04565        16.16525         0.67665
C         -0.17105        16.98850         0.63819
C          1.12362        19.08579         0.79759
C         -0.11891        18.34210         0.72361
C          1.06295        20.56722         0.97897
C         -0.06363        21.34176         0.42940
C          1.14467        23.47771         0.70429
C         -0.03259        22.69601         0.36844
C          1.12741        24.89334         0.73335
C         -0.05751        25.66381         0.53300
C          1.09646        27.77352         1.14023
C         -0.10158        27.01643         0.73287
C          1.11831        29.28570         1.16465
C         -0.02578        30.07809         0.64893
C          1.17362        32.17804         1.12695
C          0.02865        31.41939         0.56508
C          1.25578        33.65605         0.94536
C          0.03945        34.36971         0.74260
C          1.21882        36.46846         0.43698
C          0.02679        35.73731         0.48464
C          1.23442        37.81938        -0.00007
C          3.81409         3.37150        -1.40542
C          2.61894         3.55168        -0.76579
C          3.80212         6.26082        -0.29455
C          2.61410         5.61440         0.00144
C          3.80936         7.71682        -0.32242
C          2.49419         8.41995        -0.28756
C          3.69499        10.60791        -0.20571
C          2.49766         9.83379         0.27080
C          3.64023        11.97926        -0.45371
C          2.29970        12.67910        -0.57266
C          3.61372        14.82940        -0.07712
C          2.33831        14.05152         0.07746
C          3.53492        16.31808        -0.02741
C          2.36306        16.94631         0.65597
C          3.64076        19.10245         0.82738
C          2.32546        18.42459         0.69804
C          3.66948        20.59837         1.10928
C          2.36638        21.34027         1.17188
C          3.62167        23.48018         0.85725
C          2.37248        22.78584         0.90954
C          3.63183        24.88620         0.90071
C          2.35953        25.59350         1.26759
C          3.58920        27.77095         0.86767
C          2.39177        27.07777         1.02079
C          3.61202        29.24034         0.89970
C          2.44796        29.94567         1.08115
C          3.76365        32.12584         1.40216
C          2.45170        31.39827         1.35808
C          3.75173        33.66457         1.29844
C          2.47557        34.33185         0.99280
C          3.72909        36.42881         0.32249
C          2.49124        35.84999         0.96455
C          3.67700        37.77300        -0.17841
C          2.41967        38.47079        -0.24795
C          6.22737         3.43087        -1.12134
C          5.02280         4.10200        -1.02908
C          6.20428         6.24261        -0.64982
C          5.02903         5.52901        -0.60024
C          6.30133         7.66455        -0.12983
C          4.98327         8.41069        -0.26164
C          6.15440        10.56952        -0.76340
C          5.01871         9.90724         0.00220
C          6.04721        12.03893        -1.05740
C          4.80933        12.73880        -0.70025
C          6.08507        14.93917        -0.57581
C          4.76137        14.23694        -0.89039
C          6.09311        16.32559        -0.30488
C          4.82740        17.08912        -0.17692
C          6.07850        19.16956         0.32393
C          4.87012        18.47147         0.32247
C          6.09526        20.61243         0.49354
C          4.89220        21.33502         0.73394
C          6.08009        23.48108         0.57947
C          4.85923        22.74833         0.70760
C          6.07661        24.90131         0.60497
C          4.83483        25.62615         0.73881
C          6.04703        27.77805         0.25412
C          4.81650        27.04152         0.70947
C          6.06707        29.22510         0.65963
C          4.90333        29.94665         0.84935
C          6.16172        32.09697         0.65333
C          4.96731        31.38359         1.02352
C          6.17106        33.51874         0.45776
C          5.07722        34.40575         1.04583
C          6.10447        36.33022        -0.21631
C          4.92273        35.72278         0.31099
C          6.07193        37.69230        -0.64693
C          4.84762        38.39596        -0.61768
C          8.65886         3.47463        -0.67317
C          7.47842         4.11373        -0.96280
C          8.69959         6.32101        -0.98135
C          7.42369         5.59048        -1.25673
C          8.63996         7.76548        -1.03644
C          7.49310         8.43890        -0.69496
C          8.57726        10.58448        -1.57502
C          7.54265         9.96050        -0.57988
C          8.60613        12.11568        -1.45465
C          7.30337        12.84656        -1.23373
C          8.55656        14.88015        -0.50891
C          7.31178        14.23951        -0.71954
C          8.56784        16.30976        -0.25562
C          7.31590        17.03876        -0.17213
C          8.51716        19.20367        -0.03584
C          7.30837        18.45841         0.03898
C          8.52639        20.60201         0.07429
C          7.31569        21.32801         0.32018
C          8.52085        23.49586         0.46646
C          7.31144        22.76216         0.43928
C          8.54716        24.89230         0.59148
C          7.31414        25.62624         0.58751
C          8.56867        27.73742         0.48578
C          7.32767        27.03510         0.54441
C          8.58552        29.14679         0.40184
C          7.38177        29.92061         0.86198
C          8.53006        31.97327        -0.05318
C          7.34289        31.34923         0.39670
C          8.49851        33.38568        -0.31993
C          7.32125        34.14754        -0.06193
C          8.43736        36.21906        -0.91278
C          7.31308        35.58335        -0.36024
C          8.44211        37.61052        -1.23678
C          7.26529        38.32435        -1.10234
C         11.04603         3.58584        -0.04846
C          9.88988         4.20351        -0.49627
C         11.13602         6.34407        -0.64636
C          9.89063         5.63714        -0.74503
C         11.18488         7.73385        -1.12648
C          9.89312         8.47852        -1.38073
C         11.11433        10.64393        -1.26202
C          9.92998         9.95110        -1.34201
C         11.10992        12.10139        -1.10282
C          9.85668        12.80407        -1.05016
C         11.05062        14.78257        -0.21329
C          9.79364        14.14473        -0.63631
C         11.04565        16.31723        -0.01311
C          9.77451        17.01294        -0.20753
C         11.10266        19.20325        -0.21283
C          9.77786        18.48055        -0.33037
C         11.09642        20.62117         0.18075
C          9.81131        21.33574        -0.00708
C         10.99708        23.42981         0.92724
C          9.80594        22.80103         0.24967
C         11.03595        24.90930         0.67232
C          9.81228        25.60043         0.59465
C         11.04316        27.72899         0.42789
C          9.81025        27.01950         0.49750
C         11.03104        29.11266         0.15813
C          9.80081        29.83284         0.12411
C         11.00349        31.97051        -0.41153
C          9.74542        31.22941        -0.18978
C         10.85319        33.30643        -1.03619
C          9.65930        34.00426        -0.88071
C         10.92077        36.13282        -1.57841
C          9.61124        35.41448        -1.29500
C         10.97873        37.61295        -1.28980
C          9.68876        38.30864        -1.77890
C         13.41610         3.68455         0.63144
C         12.26597         4.31224         0.15489
C         13.54185         6.44753        -0.11430
C         12.29767         5.71730        -0.20114
C         13.59451         7.84556        -0.56316
C         12.40568         8.52353        -0.92935
C         13.61772        10.62810        -1.12561
C         12.39012         9.92492        -1.12899
C         13.63204        12.12979        -1.32525
C         12.32598        12.79399        -0.94675
C         13.54543        14.87354        -0.32980
C         12.34008        14.15081        -0.53257
C         13.54304        16.28818        -0.07527
C         12.33239        17.02682        -0.08861
C         13.55735        19.14540         0.11879
C         12.35560        18.44071        -0.04369
C         13.55326        20.57980         0.37901
C         12.27201        21.28186         0.47824
C         13.48135        23.42088         0.79062
C         12.29945        22.72157         0.68424
C         13.51125        24.87023         0.78298
C         12.27867        25.59603         0.67056
C         13.52955        27.70684         0.68762
C         12.29590        27.01539         0.57121
C         13.46339        29.21836         0.81536
C         12.36109        29.75790        -0.13475
C         13.65961        31.91889        -0.32083
C         12.31590        31.27772        -0.14353
C         13.88492        32.98548        -1.12998
C         11.95989        33.98515        -1.64349
C         13.50601        35.93875        -2.01021
C         12.15676        35.34152        -1.61307
C         13.44595        37.46396        -1.91625
C         12.28288        38.18905        -1.77864
C         15.82338         3.76692         1.21121
C         14.64581         4.39603         0.77053
C         15.93288         6.50756         0.53341
C         14.65715         5.79713         0.41188
C         16.02915         7.84793        -0.19185
C         14.81835         8.53719        -0.69193
C         16.09006        10.69986        -0.99169
C         14.83979         9.92376        -1.03374
C         16.05226        12.09014        -0.62499
C         14.83682        12.79664        -0.68936
C         16.03136        14.86465        -0.12094
C         14.81374        14.18021        -0.38955
C         16.02523        16.29506         0.09143
C         14.78177        16.99507         0.08004
C         16.01791        19.11603         0.32841
C         14.79204        18.41750         0.18361
C         16.02595        20.60826         0.12864
C         14.73504        21.26090         0.54017
C         16.01640        23.43870         0.78276
C         14.75493        22.66714         1.07551
C         16.00608        24.83576         0.80363
C         14.74032        25.56981         0.79456
C         16.02135        27.73125         0.94339
C         14.73536        26.99841         0.78681
C         16.03937        29.24589         0.83515
C         14.77726        29.91729         0.60357
C         16.07807        32.14782         0.51749
C         14.78243        31.37300         0.47949
C         15.99646        33.54126        -0.07017
C         14.90077        33.98792        -0.88008
C         15.82869        36.23082        -1.02214
C         14.73636        35.35412        -1.25340
C         15.87657        37.58344        -1.54926
C         14.68628        38.17153        -2.01110
C         18.31073         3.77819         1.58201
C         17.10070         4.41707         1.19743
C         18.42881         6.40312         0.58160
C         17.17909         5.76048         0.74622
C         18.50997         7.61037        -0.20960
C         17.34797         8.07458        -0.75077
C         18.56072        10.63937        -0.59127
C         17.34628        10.14716        -1.18472
C         18.50615        12.00800        -0.17581
C         17.27712        12.74031        -0.28246
C         18.48573        14.81437         0.24721
C         17.26522        14.14719        -0.05729
C         18.54910        16.30799         0.09012
C         17.22888        17.00218         0.27735
C         18.47701        19.13032         0.67724
C         17.23215        18.41448         0.42567
C         18.47027        20.56102         0.78252
C         17.26163        21.29756         0.63972
C         18.49116        23.41442         0.86470
C         17.25023        22.70144         0.77013
C         18.48857        24.84059         0.78875
C         17.25320        25.55975         0.75799
C         18.48238        27.67604         0.50222
C         17.28149        26.98072         0.71338
C         18.43933        29.11468         0.01053
C         17.30340        29.97345         0.53345
C         18.66946        32.00726         0.25657
C         17.36741        31.35034         0.49344
C         18.89677        33.38033         0.48209
C         16.92710        34.48813         0.31253
C         18.09053        36.61356        -0.11607
C         16.93974        35.79540        -0.24238
C         18.24529        37.79949        -0.86322
C         17.10060        38.30361        -1.51536
C         19.53393         4.44005         1.49594
C         20.88250         6.43460         0.72615
C         19.62443         5.74548         0.96733
C         20.97893         7.60145         0.04531
C         19.80813         8.29503        -0.61786
C         20.80196        10.47571         0.28087
C         19.71059         9.82830        -0.31547
C         20.81193        11.84732         0.55024
C         19.67680        12.64621         0.32887
C         20.80690        14.79700         0.98566
C         19.66271        14.08819         0.52397
C         20.79281        16.18285         1.16764
C         19.69126        16.96945         0.81363
C         20.85332        19.12975         1.26793
C         19.67347        18.40591         0.92341
C         20.86700        20.50539         1.30159
C         19.69170        21.26148         1.04570
C         20.92557        23.44226         1.04433
C         19.71170        22.69905         0.99520
C         20.93119        24.81142         0.89750
C         19.72406        25.54735         0.74088
C         20.92392        27.65982         0.20460
C         19.71772        26.96445         0.48229
C         20.94206        29.03486        -0.01857
C         19.77482        29.80468        -0.01565
C         21.01149        31.91125        -0.49024
C         19.81748        31.23453        -0.11401
C         21.10115        33.29085        -0.49878
C         20.04959        34.07738         0.03263
C         20.93179        36.32628        -0.73890
C         20.08503        35.53704        -0.00306
C         20.74311        37.74523        -0.94002
C         19.55478        38.42194        -0.98524
O          5.82934        10.98972        -2.10370
O         15.24670        32.07242         1.72376
O         16.06905        28.52848         2.18849
O         15.96951         7.77634         1.27759
O         17.40812         8.92218        -1.87358
O         12.98433        33.19451        -2.17878
O          3.83344        32.97726         2.59590
O          7.90593        12.76212        -2.57504
O          2.68696         4.28821         0.43876
O         10.99553        15.37665         1.12083
O          1.67146         8.22660        -1.46960
O          3.85823        19.65175         2.19210
O         17.93593        34.11290         1.19612
O         10.63029         7.87848        -2.49281
O         19.09857        36.21030         0.76417
O          9.94388        22.33136        -1.11978
O          1.89210        16.33573         1.87918
O          0.89678        28.53366         2.40677
O         10.02807        35.72295        -2.68340
O          3.84966        16.94185        -1.29884
O         10.47638        18.97479        -1.53862
O          3.31298        14.17045         1.17574
O          1.51003        20.98799         2.30638
O          1.55905        31.73459         2.46719
O         11.68187        31.96256         0.97864
O          5.95791        27.80065        -1.23675
H          5.97632        26.86735        -1.54058
O          8.21891        10.21394        -2.91170
H          7.67227        10.94719        -3.28208
O         18.06974        28.95903        -1.43219
H         18.79442        28.45155        -1.85820
O          4.45999        14.49103        -2.28690
H          5.16037        14.07486        -2.83211
O          6.55537         7.54508         1.31582
H          6.26985         8.39715         1.72591
O         13.04295        29.52761         2.17037
H         13.82602        29.42866         2.75480
O          7.22665         5.70742        -2.71876
H          8.10701         5.63306        -3.14531
O          7.56428        29.99808         2.33653
H          8.38799        30.50586         2.50319
O          2.07872        12.92752        -1.98877
H          2.13394        12.07101        -2.46185
O         12.77740        29.35419        -1.46943
H         12.00447        29.39828        -2.06983
O         18.86911        16.50705        -1.35613
H         19.73842        16.08005        -1.51575
O         10.71828        23.25180         2.36208
H         11.46624        23.63969         2.86379
O          9.64832        38.35134        -3.20452
H          9.65950        37.41776        -3.52195
O         16.09673        20.79663        -1.34292
H         15.36202        20.28027        -1.73934
O         14.76800        22.51248         2.55336
H         14.89001        23.40639         2.93925
O         20.02131         8.16454        -2.04469
H         19.19432         8.46659        -2.48663
O         13.71182        35.64150        -3.41465
H         13.59417        34.67051        -3.52042
O          5.35515        10.04616         1.43894
H          4.50499         9.84769         1.91779
O          8.01445        10.32663         0.73956
H          7.29386        10.13837         1.38514
O          2.25479        25.47618         2.74509
H          1.56999        26.11532         3.04136
O         13.77776        12.36558        -2.77022
H         14.58954        11.90037        -3.06420
O          2.56280        36.23563         2.38759
H          1.88297        35.71799         2.86940
O          2.68273         9.65568         1.74407
H          2.36175        10.47585         2.17854
O          5.61347        34.78536         2.34576
H          5.28814        34.11167         2.98962
O         10.97713        37.78372         0.15937
H         11.83027        37.45829         0.51542
H          1.10216         2.25572        -1.69837
H         -0.79693         3.59142        -1.09339
H         -0.78395         5.84851        -0.44474
H         -0.84942         7.76420         0.66785
H         -0.93190        10.21492         0.70902
H         -1.08130        12.10085         0.01923
H         -1.09662        14.53552         0.11397
H         -1.14478        16.49614         0.50434
H         -1.06158        18.90664         0.72313
H         -0.94733        20.80651         0.05350
H         -0.91899        23.22238        -0.01225
H         -0.98634        25.15174         0.24268
H         -1.06133        27.54507         0.65358
H         -0.91641        29.54666         0.28297
H         -0.80442        31.96808         0.10284
H         -0.91393        33.82676         0.76588
H         -0.92459        36.23709         0.24936
H          0.27526        38.32568        -0.18671
H          3.88339         2.68072        -2.25941
H          2.41733        39.51269        -0.59907
H          6.22976         2.34046        -1.27146
H          4.81372        39.43947        -0.96417
H          8.66812         2.38422        -0.52032
H          7.23287        39.38992        -1.37368
H         11.03380         2.50745         0.17037
H          9.69319        39.36732        -1.41572
H         13.38700         2.61310         0.87958
H         12.36481        39.28895        -1.77683
H         15.77529         2.71028         1.51478
H         14.67424        39.24714        -2.24534
H         18.27578         2.74543         1.95800
H         17.15434        39.27778        -2.02338
H         20.45355         3.91967         1.80212
H         21.80226         5.95278         1.09433
H         21.98326         8.00001        -0.16449
H         21.70123         9.89784         0.53461
H         21.72857        12.29052         0.96300
H         21.71606        14.24485         1.25817
H         21.68125        16.65018         1.61525
H         21.78510        18.58655         1.47424
H         21.80833        21.01816         1.54015
H         21.88466        22.92102         1.16383
H         21.89530        25.33672         0.91453
H         21.87850        27.11919         0.19393
H         21.91891        29.52251        -0.14192
H         21.87307        31.32970        -0.84279
H         22.01683        33.77533        -0.86519
H         21.79953        35.86737        -1.23522
H         21.64801        38.30999        -1.21706
H         19.57456        39.47829        -1.29507
