         424
 CSIRO Nanostructure Databank - Neutral Graphene Oxide Data Set
C          1.22818         2.01884        -0.69055
C          1.21902         3.45093        -0.58410
C          2.39014         1.31215        -0.56983
C          2.33245         4.15815        -0.20909
C          1.17497         6.35737        -0.34891
C          1.17994         7.73350        -0.34144
C          2.36984         5.61461        -0.16720
C          2.38156         8.46217        -0.14840
C          1.17186        10.63825        -0.29450
C          1.14693        12.01076        -0.23359
C          2.38086         9.90327        -0.12207
C          2.33750        12.76153        -0.03864
C          1.09639        14.95056        -0.05669
C          1.09647        16.33326        -0.03526
C          2.30709        14.20390         0.00183
C          2.30851        17.06489         0.03801
C          2.33411        18.49470         0.04998
C          3.62894         1.98679        -0.27278
C          3.55266         3.40396         0.26219
C          4.82655         1.33688        -0.40272
C          4.83328         4.18055         0.07820
C          3.58436         6.31228         0.03049
C          3.59844         7.74458         0.04344
C          4.83874         5.56361         0.13920
C          4.80666         8.48398         0.29310
C          3.58871        10.61052         0.10468
C          3.57140        12.05514         0.10443
C          4.79870         9.87444         0.34598
C          4.79110        12.78089         0.19462
C          3.53435        14.91810         0.09245
C          3.53961        16.34744         0.10143
C          4.77280        14.20538         0.13793
C          4.76799        17.06303         0.19209
C          3.52003        19.18627         0.10408
C          4.77951        18.50438         0.16808
C          6.10034         2.01162        -0.28820
C          6.11077         3.40743         0.29353
C          7.24498         1.39587        -0.68370
C          7.34181         4.19297        -0.07021
C          6.08449         6.28869         0.26504
C          6.06594         7.73816         0.68920
C          7.30730         5.62476         0.11597
C          7.33208         8.48542         0.31668
C          6.04457        10.61141         0.80628
C          6.04715        12.07915         0.41362
C          7.33419         9.90131         0.40696
C          7.22655        12.76195         0.39376
C          5.99100        14.94869         0.17674
C          5.99155        16.34330         0.23543
C          7.26576        14.19324        -0.06831
C          7.25677        17.10413         0.56360
C          5.99160        19.21540         0.12855
C          7.26120        18.56748         0.16476
C          8.54278         2.12303        -0.87327
C          8.52205         3.53697        -0.34741
C          9.79056         1.38116        -0.47956
C          9.77492         4.24010        -0.29483
C          8.54957         6.35384         0.05841
C          8.54437         7.78734         0.14600
C          9.76531         5.65773        -0.10859
C          9.79429         8.49753         0.06610
C          8.53192        10.61620         0.32740
C          8.51493        12.06810         0.74925
C          9.78790         9.94451         0.13173
C          9.74644        12.84575         0.36023
C          8.50381        14.96528         0.31987
C          8.50600        16.33261         0.23131
C          9.74053        14.21343         0.35070
C          9.75078        17.07154        -0.07776
C          8.44597        19.26915         0.05051
C          9.74885        18.59598        -0.14623
C         10.98267         2.06985        -0.35570
C         10.99105         3.52547        -0.32557
C         12.24418         1.39027        -0.22230
C         12.23353         4.22398        -0.20249
C         11.01638         6.35956        -0.08197
C         11.00916         7.79544        -0.01107
C         12.22325         5.64152        -0.10619
C         12.27072         8.50100        -0.13926
C         11.00324        10.64716         0.05443
C         11.02471        12.14739        -0.03566
C         12.26018         9.96472        -0.09485
C         12.26559        12.77009         0.58685
C         10.99862        14.98707         0.49531
C         11.03004        16.39848         0.12335
C         12.30544        14.26806         0.64015
C         12.23251        17.07495         0.01704
C         11.05039        19.24604         0.05300
C         12.24285        18.53632         0.01106
C         13.44322         2.07379        -0.15211
C         13.46707         3.50466        -0.16637
C         14.72092         1.27660         0.00154
C         14.72492         4.21495        -0.22353
C         13.50909         6.37300         0.15351
C         13.45236         7.80762        -0.27225
C         14.74869         5.62124        -0.25533
C         14.71382         8.54400        -0.66278
C         13.47390        10.63974        -0.02877
C         13.54276        12.05009         0.38617
C         14.76169         9.87154         0.10611
C         14.78414        12.82378         0.15123
C         13.53302        14.97615         0.22982
C         13.47868        16.33575        -0.00730
C         14.75674        14.20729         0.04719
C         14.68204        17.07867        -0.52047
C         13.52625        19.18574         0.15793
C         14.72633        18.50802        -0.00726
C         15.99029         2.07959        -0.17273
C         15.95227         3.46879        -0.28206
C         17.22712         1.37069        -0.16609
C         17.25495         4.19803        -0.53164
C         15.98940         6.35490        -0.30151
C         15.99595         7.78286        -0.40231
C         17.22054         5.67319        -0.23230
C         17.19876         8.48541        -0.40747
C         15.98057        10.69325        -0.23788
C         15.98940        12.07006        -0.15405
C         17.19232         9.95362        -0.75816
C         17.22541        12.81353        -0.36764
C         15.98336        14.94846        -0.22282
C         15.96846        16.31951        -0.33502
C         17.22647        14.20272        -0.35353
C         17.23118        17.09055        -0.61743
C         15.98902        19.14335         0.15671
C         17.21395        18.50146        -0.06713
C         18.45036         2.03203         0.00443
C         18.38232         3.50669         0.19241
C         19.71229         1.40969        -0.00641
C         19.60580         4.27320         0.55203
C         18.43736         6.38836        -0.07540
C         18.43800         7.81044        -0.19709
C         19.67280         5.71328         0.20036
C         19.68270         8.51688        -0.17000
C         18.48241        10.66914        -0.47433
C         18.47228        12.08813        -0.48095
C         19.69077         9.94673        -0.33432
C         19.68770        12.80800        -0.58091
C         18.47435        14.94030        -0.35998
C         18.46576        16.31565        -0.26474
C         19.73145        14.21443        -0.46626
C         19.71341        17.00678         0.18904
C         18.44735        19.17125         0.05276
C         19.69477        18.50271        -0.02250
C         20.91557         2.10613         0.24934
C         20.87927         3.50343         0.86960
C         22.15045         1.46262         0.11400
C         22.13022         4.30635         0.59174
C         20.88703         6.40356         0.22631
C         20.90902         7.82420         0.00305
C         22.14167         5.67888         0.43226
C         22.15841         8.53680        -0.02279
C         20.94051        10.62760        -0.40420
C         20.92001        12.04008        -0.81075
C         22.16345         9.94924        -0.26670
C         22.22340        12.76787        -1.01871
C         20.95622        14.93544        -0.54416
C         20.97100        16.31593        -0.28862
C         22.22340        14.29817        -1.10698
C         22.18564        17.04087        -0.24332
C         20.91140        19.17440        -0.05219
C         22.16514        18.47540        -0.06933
C         23.39008         2.10970         0.36937
C         23.37178         3.53791         0.77241
C         24.61039         1.46488         0.17745
C         24.67543         4.30352         0.72035
C         23.39661         6.42500         0.36751
C         23.39089         7.84383         0.14845
C         24.62655         5.75336         0.47490
C         24.63246         8.57441         0.11722
C         23.42129        10.68105        -0.35349
C         23.44700        12.04488        -0.65426
C         24.65198         9.96945        -0.10145
C         24.73667        12.77643        -0.90742
C         23.48221        14.93318        -0.55128
C         23.44020        16.34508        -0.29245
C         24.68222        14.23955        -0.50562
C         24.64414        17.05543        -0.08439
C         23.37392        19.17120         0.03883
C         24.62418        18.49352         0.05126
C         25.86993         2.14824         0.20721
C         25.90494         3.57200         0.38898
C         27.07700         1.47162        -0.04450
C         27.10149         4.28765         0.31157
C         25.86735         6.44787         0.36847
C         25.87922         7.86577         0.26659
C         27.10037         5.72360         0.38739
C         27.11798         8.56337         0.32009
C         25.90965        10.69936        -0.09804
C         25.94545        12.04983        -0.38287
C         27.14961         9.98584         0.19691
C         27.25317        12.78207        -0.52499
C         25.90982        14.92847        -0.21567
C         25.88374        16.35372        -0.04421
C         27.14730        14.24392        -0.15010
C         27.09705        17.07605         0.10239
C         25.83445        19.19524         0.16306
C         27.08193        18.51790         0.16763
C         28.32361         2.14992        -0.07096
C         28.34798         3.59326         0.12677
C         29.53166         1.44863        -0.18997
C         29.54674         4.28915         0.21614
C         28.33059         6.42073         0.44588
C         28.34516         7.84411         0.47798
C         29.56963         5.69830         0.50181
C         29.58548         8.52912         0.62204
C         28.36917        10.67176         0.33397
C         28.41688        12.09751         0.14726
C         29.59813         9.96056         0.61159
C         29.56310        12.81065         0.41559
C         28.34410        14.94872         0.08872
C         28.33180        16.37921         0.16023
C         29.58608        14.24569         0.27151
C         29.55864        17.09434         0.22119
C         28.30074        19.21733         0.19910
C         29.54439        18.53399         0.18827
C         30.80321         2.09706        -0.10677
C         30.84872         3.63358        -0.17980
C         31.95918         1.35968         0.03037
C         31.95170         4.18819         0.69138
C         30.76512         6.38390         0.81702
C         30.79560         7.80239         0.84920
C         31.95160         5.58529         1.30814
C         32.04513         8.50811         1.02184
C         30.80736        10.64946         0.80438
C         30.77126        12.14149         1.01814
C         32.04736         9.95086         0.96738
C         32.05776        12.83864         0.64826
C         30.79499        14.95649         0.37407
C         30.79302        16.38697         0.27068
C         32.05564        14.24570         0.48394
C         32.01922        17.10032         0.21287
C         30.76688        19.22760         0.11859
C         32.00036        18.53308         0.09537
C         33.25069         2.11784         0.20498
C         32.89459         3.30558         1.05795
C         34.51772         1.40352         0.62509
C         34.73576         4.30413         1.37432
C         33.28589         6.34511         1.13898
C         33.26189         7.76308         1.11209
C         34.55318         5.69357         1.11436
C         34.55178         8.47336         1.25568
C         33.26494        10.69989         0.93862
C         33.26896        12.11769         0.67403
C         34.54776        10.04869         1.17002
C         34.50605        12.82869         0.51421
C         33.27942        14.95759         0.40944
C         33.26843        16.40118         0.27601
C         34.51598        14.24544         0.40675
C         34.46909        17.11330         0.20668
C         33.22183        19.21910        -0.07017
C         34.44834        18.52333        -0.04149
C         35.71549         2.07668         0.78136
C         35.79016         3.54044         0.89006
C         36.97202         1.37925         0.56066
C         36.97382         4.26002         0.54151
C         35.76960         6.40818         0.77319
C         35.79002         7.79773         0.89322
C         36.97067         5.64535         0.53256
C         37.11156         8.55450         0.93700
C         35.79099        10.71735         0.70987
C         35.74991        12.12088         0.45509
C         36.98083        10.00458         0.52021
C         36.95339        12.82677         0.16168
C         35.76811        14.95160         0.29946
C         35.77089        16.43696         0.55327
C         36.97608        14.27983         0.14116
C         37.00693        17.12413         0.02711
C         35.66209        19.18997        -0.32492
C         36.90221        18.50647        -0.35783
C         38.14545         2.04025         0.29349
C         38.29376         3.52498         0.54943
C         39.28235         1.34337        -0.26325
C         39.28407         4.20196        -0.36863
C         38.31343         6.34067         0.47881
C         38.20003         7.80987         0.19881
C         39.28584         5.60009        -0.40981
C         39.23903         8.47598        -0.45445
C         38.13056        10.67835         0.01868
C         38.12388        12.08454        -0.09716
C         39.27770         9.91634        -0.44252
C         39.31458        12.84558        -0.62247
C         38.26666        14.99721         0.13325
C         38.24821        16.47190         0.08679
C         39.43067        14.22471         0.01375
C         39.43735        17.29721        -0.09850
C         38.04400        19.19431        -0.80351
C         39.31791        18.62244        -0.63919
C         40.27526         2.01000        -0.92259
C         40.27311         3.45222        -1.04436
C         41.24007         4.14636        -1.80708
C         40.27867         6.29361        -1.14555
C         40.32284         7.74221        -1.07650
C         41.23484         5.53202        -1.86605
C         41.42952         8.46110        -1.56024
C         40.44530        10.58376        -0.86424
C         40.57248        12.01372        -0.61005
C         41.51156         9.84177        -1.42041
C         41.79437        12.56202        -0.32330
C         40.75055        14.64306         0.38124
C         40.73656        16.95159         0.34996
C         41.88775        13.88744         0.18838
C         41.85656        17.75531         0.15448
C         40.47518        19.41446        -0.90347
C         41.72893        18.98279        -0.52364
O         24.09184         3.86418         2.00452
O         33.75247         3.63246         2.11741
O          9.67506        17.75887        -1.37989
O         21.50871        12.19476        -2.18338
O         18.55207         3.98259         1.56359
O         11.63218        14.77820         1.83279
O         34.65216         9.33917         2.43327
O         12.88318        12.17264         1.75335
O         38.80285         3.67071         1.88766
O         40.92407        15.81000         1.13505
O         17.06367         9.98785        -2.24775
H         17.16554        10.92405        -2.52604
O         31.07359         4.00068        -1.56962
H         30.34929         3.60937        -2.10061
O          8.66177         2.27782        -2.34658
H          9.50431         2.75085        -2.51846
O         38.86148         6.28298         1.84054
H         38.92683         5.28240         2.06553
O          7.27842        17.17429         2.03906
H          7.19613        16.25980         2.38542
O         20.91287         3.27160         2.30497
H         19.97692         3.31118         2.61487
O         14.86515         9.49304         1.52138
H         14.65647        10.28871         2.05853
O         14.71914         0.14585        -0.88380
H         14.73536         0.47861        -1.80429
O         13.62605         6.46522         1.63704
H         14.21830         7.22714         1.83368
O         35.86160        16.56566         2.02805
H         36.69198        16.12443         2.30903
O         37.53256         8.58651         2.33811
H         37.97584         7.71658         2.52469
O         27.57375        12.76840        -1.96422
H         26.72980        12.98204        -2.43781
O          8.52980        12.02363         2.23595
H          9.42079        11.71999         2.51652
O          3.40782         3.26894         1.72070
H          4.28680         2.96471         2.05696
O         17.27468        17.27594        -2.09632
H         17.47352        16.40034        -2.49347
O         22.22199        14.64997        -2.52118
H         21.79313        13.89576        -2.99058
O         14.50848        17.17995        -1.97616
H         15.37387        17.49760        -2.33505
O         11.19917        12.46799        -1.46501
H         10.42006        12.12147        -1.95014
O          6.03490        10.56000         2.27551
H          6.84004        11.05481         2.57299
O         17.55287         4.08328        -1.96336
H         16.84396         4.55043        -2.45379
O         24.87633        12.80067        -2.39112
H         24.58651        11.92567        -2.72827
O          6.19416         3.21486         1.76298
H          6.33213         4.10253         2.16108
O         33.57397         2.69886        -1.11197
H         33.65283         1.95803        -1.74880
O         14.60261         8.80299        -2.08284
H         15.45878         9.20529        -2.38347
O         19.73056        16.84322         1.66210
H         20.55184        17.27005         1.98833
O         39.02562        13.12675        -2.04435
H         38.99638        12.26444        -2.51084
O         30.63788        12.32502         2.47991
H         31.39959        11.87113         2.90068
O         31.75428         5.45071         2.74632
H         32.47803         4.86745         3.07400
O          6.06418         7.71578         2.16246
H          6.01122         8.66250         2.45587
O          7.38548        14.09533        -1.54097
H          7.37578        15.00835        -1.90143
H          0.29207         1.50605        -0.95248
H          0.28974         3.96715        -0.86336
H          2.41194         0.22994        -0.76738
H          0.21873         5.83586        -0.48475
H          0.22642         8.25825        -0.47977
H          0.22598        10.11028        -0.46866
H          0.18619        12.52637        -0.36100
H          0.13194        14.42849        -0.11449
H          0.14331        16.88013        -0.07797
H          1.38001        19.03999         0.00424
H          4.83468         0.28423        -0.72940
H          3.51689        20.28609         0.09552
H          7.18954         0.36975        -1.08142
H          5.96055        20.30833        -0.00195
H          9.79089         0.28084        -0.49524
H          8.41060        20.36551        -0.05555
H         12.25330         0.29026        -0.21461
H         11.07138        20.33116         0.23652
H         14.73287         0.84907         1.04355
H         13.54199        20.26094         0.39739
H         17.20124         0.27251        -0.22596
H         16.00187        20.18814         0.50742
H         19.77095         0.33881        -0.25866
H         18.44330        20.26168         0.21313
H         22.16900         0.41823        -0.23670
H         20.92593        20.27479        -0.08398
H         24.60940         0.39498        -0.08230
H         23.36028        20.26672         0.13990
H         27.06246         0.38185        -0.19646
H         25.81927        20.29315         0.23335
H         29.50699         0.34849        -0.23011
H         28.29360        20.31751         0.20519
H         31.92856         0.25860         0.02419
H         30.76687        20.32596         0.05945
H         34.55571         0.31011         0.48474
H         33.21998        20.30751        -0.22773
H         36.92159         0.29169         0.38209
H         35.64039        20.25900        -0.58302
H         39.29719         0.24291        -0.21924
H         37.95077        20.22393        -1.17803
H         41.09903         1.45006        -1.39004
H         42.00546         3.57900        -2.35641
H         41.99739         6.03900        -2.47311
H         42.27243         7.92804        -2.01949
H         42.40984        10.36645        -1.77431
H         42.70355        11.94531        -0.35998
H         42.85265        14.26746         0.54620
H         42.82799        17.43030         0.54797
H         40.33983        20.40341        -1.36319
H         42.61475        19.60708        -0.70237
