         420
 CSIRO Nanostructure Databank - Neutral Graphene Oxide Data Set
C         28.00918        27.21541        -0.22272
C         27.98650        28.62660        -0.27953
C         26.77273        29.37171        -0.50896
C         27.90486        31.53189        -0.22465
C         26.74647        30.74510        -0.52034
C         27.92110        32.94834        -0.21810
C         26.70982        33.69459        -0.37755
C         27.90766        35.82891        -0.35202
C         26.70140        35.06305        -0.42937
C         27.89147        37.26061        -0.43011
C         26.67712        37.99190        -0.60102
C         27.86494        40.13078        -0.60321
C         26.66893        39.36069        -0.71221
C         27.84234        41.54593        -0.78646
C         26.79592        42.21939        -1.47041
C         28.00403        44.36962        -1.54117
C         26.88211        43.54812        -1.85607
C         28.16254        45.66168        -2.04109
C         30.40896        27.23419         0.20499
C         29.18871        26.54334         0.08156
C         30.41327        28.63432         0.06028
C         29.19795        29.33267        -0.10013
C         30.41627        31.58556         0.21829
C         29.13486        30.79713         0.09791
C         30.39811        33.03854         0.02133
C         29.15701        33.70002        -0.10243
C         30.37330        35.86135        -0.13884
C         29.14014        35.13318        -0.19472
C         30.35492        37.28827        -0.23722
C         29.11467        37.99011        -0.35470
C         30.33983        40.12769        -0.36936
C         29.10588        39.42545        -0.39657
C         30.32845        41.59548        -0.22181
C         29.01303        42.33252        -0.37485
C         30.34708        44.57968        -0.52440
C         29.04129        43.81162        -0.65529
C         30.45881        45.89477        -1.19163
C         29.34983        46.40904        -1.85151
C         32.95324        24.45317         0.60867
C         31.79050        25.08574         0.40806
C         32.95990        27.21945         0.13734
C         31.67288        26.56232         0.71965
C         32.97246        28.71527         0.21338
C         31.69612        29.37916        -0.05760
C         32.95407        31.60788         0.17563
C         31.69615        30.87541        -0.06515
C         32.89293        33.03423         0.19721
C         31.63903        33.73515         0.05708
C         32.84074        35.88988         0.07023
C         31.61434        35.16147         0.00308
C         32.80059        37.29311        -0.10915
C         31.59047        38.01107        -0.26527
C         32.80779        40.21743        -0.35533
C         31.58245        39.45199        -0.37226
C         32.84022        41.61440        -0.31575
C         31.57483        42.35832        -0.62300
C         32.78637        44.50599        -0.09110
C         31.59805        43.82231        -0.26282
C         32.71544        45.97532        -0.20033
C         31.69133        46.62075        -0.95405
C         33.04535        48.67932        -0.97255
C         31.89101        47.97743        -1.31695
C         35.50947        23.07839         1.36134
C         35.44521        24.45567         1.16372
C         34.12767        25.18664         1.20851
C         35.40835        27.32259         0.69318
C         34.21349        26.60182         0.68770
C         35.41034        28.73422         0.43783
C         34.17068        29.43571         0.28956
C         35.39653        31.62773         0.41758
C         34.16079        30.90161         0.26501
C         35.35813        33.06214         0.45791
C         34.11608        33.76014         0.31093
C         35.32202        35.89032         0.35943
C         34.09578        35.18748         0.24538
C         35.29485        37.36164         0.28034
C         34.07492        38.00210        -0.28281
C         35.34275        40.25043        -0.28300
C         34.08534        39.49528        -0.42135
C         35.31895        41.61645        -0.28906
C         34.06414        42.35661        -0.23581
C         35.34417        44.44797        -0.04794
C         34.06552        43.76726        -0.06594
C         35.51745        45.72880         0.47247
C         33.71639        46.80401         0.32759
C         35.30122        48.75340         0.22000
C         34.01485        48.10401        -0.11718
C         35.34631        50.16099         0.26759
C         37.95789        23.09093         1.54376
C         36.73430        22.40443         1.47280
C         37.86314        24.53093         1.52318
C         36.64972        25.21385         1.19608
C         37.88167        27.37050         1.01527
C         36.66290        26.63492         0.98521
C         37.92017        28.78111         0.78251
C         36.70700        29.46699         0.19961
C         37.83901        31.65942         0.74243
C         36.63228        30.94491         0.51111
C         37.81401        33.09892         0.76659
C         36.58251        33.79034         0.58981
C         37.79587        35.97089         0.55691
C         36.55467        35.22533         0.52173
C         37.82507        37.37611         0.40095
C         36.56770        38.13311         0.26810
C         37.85623        40.23913         0.05970
C         36.64187        39.47672        -0.43675
C         37.82107        41.74547         0.07408
C         36.60498        42.29258        -0.71491
C         37.87279        44.55436        -0.46804
C         36.55739        43.81004        -0.61109
C         37.86029        45.95562        -0.01613
C         36.63951        46.58838         0.26521
C         37.75169        48.78045         0.49504
C         36.53613        48.04414         0.38158
C         37.77714        50.19827         0.51308
C         36.53460        50.86410         0.42695
C         40.30749        20.23582         0.70864
C         39.19800        20.94111         1.14521
C         40.49150        22.97479         1.19496
C         39.22604        22.34600         1.38047
C         40.76888        24.30759         1.63137
C         38.94682        25.37496         1.87536
C         40.37232        27.38762         1.53972
C         39.06679        26.70286         1.47664
C         40.38365        28.84042         1.23892
C         39.10162        29.53102         1.00929
C         40.25829        31.72769         1.45095
C         39.06544        30.94866         0.94693
C         40.27814        33.17198         0.98739
C         39.04652        33.84696         0.84567
C         40.24928        36.01586         0.73330
C         39.02975        35.27476         0.70211
C         40.24660        37.44144         0.65434
C         39.02625        38.11590         0.46759
C         40.19030        40.35831         0.91797
C         38.98935        39.57788         0.41967
C         40.34296        41.70420         0.23329
C         39.15553        42.31980        -0.46357
C         40.31807        44.52629        -0.12351
C         39.14518        43.82635        -0.35541
C         40.31187        45.96661         0.03671
C         39.08521        46.63796         0.16825
C         40.34183        48.81612         0.52943
C         39.02443        48.03839         0.60243
C         40.28354        50.28185         0.39266
C         39.04862        50.94718         0.50230
C         40.24474        53.08588         0.42698
C         39.06470        52.37305         0.51777
C         42.65457        20.21862        -0.15385
C         41.51126        20.89821         0.36104
C         42.73853        23.04119         0.16134
C         41.58510        22.30573         0.56191
C         42.78367        24.49042         0.30450
C         41.73829        25.12783         1.08661
C         42.92535        27.35235         0.88716
C         41.72053        26.58367         1.35672
C         42.89347        28.85551         0.92366
C         41.57681        29.52100         1.14130
C         42.81747        31.74449         0.84292
C         41.58449        30.99978         1.23975
C         42.75059        33.21054         0.67092
C         41.49603        33.89260         0.87263
C         42.71984        36.04103         0.79713
C         41.48435        35.30997         0.78671
C         42.70559        37.43880         0.89806
C         41.48321        38.19609         0.80417
C         42.73027        40.37028         1.25767
C         41.48302        39.58087         0.90591
C         42.79134        41.75345         0.63579
C         41.55011        42.40423         0.27700
C         42.78611        44.53775         0.03268
C         41.57084        43.82035         0.01436
C         42.80278        45.96896        -0.09448
C         41.55065        46.69737         0.01236
C         42.71935        48.87335        -0.25305
C         41.52733        48.09388         0.07036
C         42.74997        50.32599         0.01297
C         41.51210        51.00083         0.22346
C         42.72011        53.13779         0.13133
C         41.48973        52.42687         0.26500
C         43.79871        20.91424        -0.46491
C         45.03837        23.07354        -0.72642
C         43.86497        22.34070        -0.35558
C         44.90211        24.54122        -1.03771
C         43.84493        25.21885        -0.20230
C         44.94513        27.50128        -0.72225
C         43.83139        26.69672        -0.12074
C         45.08941        28.94787        -0.35605
C         43.98307        29.61606         0.23171
C         45.11509        31.75235        -0.12252
C         43.98626        31.02350         0.28119
C         45.05828        33.24260        -0.31764
C         43.90067        33.91119         0.37173
C         45.19515        35.98237         0.53901
C         43.95493        35.32745         0.58019
C         45.27509        37.36670         0.99842
C         43.95180        38.15124         1.15385
C         45.28533        40.26821         1.12847
C         43.99864        39.59486         1.04771
C         45.29158        41.77676         0.83997
C         43.99579        42.43134         0.51046
C         45.24141        44.52449        -0.01999
C         44.02020        43.82985         0.15670
C         45.27110        45.93439        -0.15512
C         44.02972        46.64700        -0.14579
C         45.25624        48.87656        -0.00928
C         44.02712        48.10930        -0.32885
C         45.23749        50.34928        -0.13824
C         43.97975        51.04111        -0.06877
C         43.91382        52.47495        -0.01473
C         47.44081        23.19630        -1.14570
C         46.29274        22.46096        -0.89307
C         47.41316        24.62898        -1.23851
C         46.21034        25.29427        -1.06845
C         47.42862        27.50094        -0.97212
C         46.13475        26.77698        -1.37415
C         47.39699        28.97530        -1.41668
C         46.24336        29.67142        -0.71098
C         47.50728        31.83661        -0.75100
C         46.28972        31.07925        -0.53230
C         47.58158        33.20841        -0.44269
C         46.38521        33.92927        -0.11960
C         47.67338        35.99815         0.26774
C         46.41229        35.28986         0.19358
C         47.70522        37.37055         0.54063
C         46.51497        38.12474         0.77656
C         47.76140        40.23853         0.59755
C         46.53607        39.51972         0.88052
C         47.72361        41.65951         0.29453
C         46.54043        42.36148         0.30545
C         47.79337        44.51933        -0.36185
C         46.47904        43.75213        -0.20021
C         47.75648        45.98159        -0.22493
C         46.53292        46.64051        -0.22060
C         47.79694        48.84981        -0.44040
C         46.54517        48.11293        -0.01689
C         47.70651        50.31760        -0.10856
C         46.51299        50.99190        -0.06820
C         49.86797        24.70616        -1.78799
C         48.66478        25.37471        -1.47410
C         49.90746        27.49997        -1.46902
C         48.69054        26.77995        -1.38199
C         49.92300        28.95844        -1.32442
C         48.73374        29.65622        -1.20461
C         50.05484        31.84844        -1.11902
C         48.70979        31.12293        -1.21438
C         50.07917        33.22091        -0.59825
C         48.85702        33.90965        -0.36425
C         50.15749        35.95584         0.10387
C         48.89646        35.27191         0.02262
C         50.21283        37.34596         0.37685
C         48.99273        38.07062         0.85823
C         50.22457        40.21595         0.35912
C         48.96337        39.53365         0.50087
C         50.24623        41.61000         0.19270
C         48.99009        42.29496        -0.26980
C         50.21454        44.48403         0.16374
C         49.03474        43.79208        -0.08439
C         50.21762        45.94036         0.20654
C         49.01424        46.68158        -0.00091
C         50.25171        48.75831         0.26588
C         49.04178        48.10106         0.00854
C         51.06275        25.39971        -1.88519
C         52.40013        27.49739        -1.62784
C         51.12366        26.79640        -1.68187
C         52.42836        28.89233        -1.36132
C         51.20580        29.64512        -1.25583
C         52.52010        31.70838        -0.83843
C         51.27511        31.03354        -1.04942
C         52.55628        33.10687        -0.57235
C         51.33061        33.84840        -0.41277
C         52.62737        35.92153        -0.02447
C         51.37499        35.24422        -0.11067
C         52.65876        37.32661         0.17910
C         51.43271        38.04001         0.34747
C         52.68083        40.17811         0.42724
C         51.44912        39.48169         0.42588
C         52.68646        41.60408         0.45225
C         51.46243        42.32959         0.31082
C         52.67890        44.46594         0.52072
C         51.45762        43.76172         0.32626
C         52.68720        45.89182         0.59088
C         51.44278        46.63047         0.43727
C         51.42258        48.04204         0.48803
C         54.84215        27.44938        -1.65815
C         53.62626        26.80358        -1.78204
C         54.89694        28.83376        -1.36839
C         53.68286        29.56624        -1.22714
C         54.99426        31.62496        -0.80153
C         53.73926        30.96709        -0.94446
C         55.02980        33.04057        -0.53991
C         53.81201        33.77532        -0.42175
C         55.09556        35.86694        -0.05369
C         53.85297        35.18736        -0.16832
C         55.12643        37.29936         0.15923
C         53.90712        38.02733         0.24753
C         55.15405        40.15013         0.50002
C         53.92164        39.45015         0.40475
C         55.15619        41.59333         0.63323
C         53.92464        42.30904         0.57234
C         55.13439        44.43933         0.81200
C         53.90975        43.73615         0.63698
C         55.11322        45.85684         0.89433
C         53.92481        46.55474         0.78884
C         56.14315        29.50987        -1.21653
C         56.18846        30.85460        -0.94023
C         56.25730        33.74570        -0.39780
C         56.29015        35.10357        -0.16908
C         56.34247        38.02365         0.27301
C         56.35573        39.39407         0.44391
C         56.36014        42.33128         0.80223
C         56.35112        43.70648         0.90053
O         43.36030        48.53777        -1.55142
O         49.33829        31.72966        -2.39744
O         35.75772        38.08129         1.48937
O         43.69557        27.30652        -1.47631
O         41.24324        27.01232         2.64745
O         43.53644        28.06176         2.00164
O         39.80222        48.32210         1.80887
O         42.57003        31.40456         2.27185
O         45.38285        41.29707         2.22450
O         37.14375        44.44322        -1.79228
O         34.19066        38.58720        -1.61625
O         29.32737        44.59130         0.54355
O         34.52772        46.23984         1.32068
O         29.57990        42.02472         0.94102
O         44.70171        37.60723         2.31965
O         31.70779        30.15898        -1.34677
O         29.72016        31.15791         1.42850
O         47.06439        43.97104        -1.53638
O         45.92976        48.47163         1.25587
O         39.95588        24.80344         2.65654
O         47.79421        48.75415        -1.90670
H         48.61204        49.18055        -2.23829
O         31.62755        26.77558         2.14325
H         32.32467        26.20858         2.56374
O         36.91462        29.40637        -1.28100
H         36.20306        29.94318        -1.69249
O         44.75042        33.41876        -1.75781
H         45.48984        33.01754        -2.26452
O         33.84095        25.30647         2.66384
H         34.60897        25.75646         3.07769
O         45.93941        26.83240        -2.81161
H         45.04751        26.42858        -2.96637
O         49.09763        38.04424         2.34016
H         48.26589        38.42591         2.69663
O         48.94723        42.05114        -1.72133
H         48.22836        42.63381        -2.07480
O         39.27454        41.94933        -1.87815
H         40.14077        42.28306        -2.19397
O         31.48813        42.37329        -2.10372
H         32.37829        42.59028        -2.45605
O         36.86307        39.19724        -1.83976
H         36.87900        40.07499        -2.29823
O         42.64012        40.64121         2.72355
H         43.52923        40.98672         2.98736
O         40.06194        31.81047         2.89909
H         40.96184        31.88864         3.29486
O         37.66354        42.20651         1.43213
H         38.34317        41.74597         1.98863
O         32.90728        26.89457        -1.30004
H         33.63214        27.38449        -1.74368
O         36.72284        41.93974        -2.11219
H         37.25720        42.65231        -2.53999
O         47.41036        27.49406         0.48340
H         48.28431        27.79919         0.80532
O         44.39520        24.59380        -2.45414
H         44.98556        24.01251        -2.98144
O         47.17915        29.12600        -2.83896
H         46.56379        28.41147        -3.14102
O         39.88910        40.69113         2.32774
H         40.75874        40.84083         2.77870
H         27.07442        26.65307        -0.35992
H         25.84642        28.81054        -0.70033
H         25.79488        31.24744        -0.74294
H         25.75216        33.16093        -0.44012
H         25.73614        35.57452        -0.53674
H         25.71919        37.45885        -0.65670
H         25.70793        39.87659        -0.84363
H         25.91134        41.64719        -1.78384
H         26.06821        43.98470        -2.45340
H         27.36103        46.09533        -2.65693
H         29.15922        25.45237         0.20926
H         29.40131        47.41423        -2.29432
H         33.05625        23.38613         0.36203
H         30.93796        24.53914        -0.02195
H         33.18907        49.69796        -1.36007
H         31.12708        48.48664        -1.92076
H         34.58376        22.48711         1.39243
H         34.40835        50.72605         0.17175
H         36.70157        21.30881         1.52197
H         36.48831        51.96070         0.45103
H         40.23968        19.14592         0.57909
H         38.27639        20.37210         1.32391
H         40.22345        54.18459         0.46697
H         38.12511        52.93044         0.62740
H         42.61350        19.12874        -0.29375
H         42.70195        54.23717         0.15424
H         44.66442        20.36557        -0.86127
H         44.83940        53.06001        -0.10152
H         48.39469        22.66037        -1.22569
H         46.38851        21.37432        -0.75590
H         48.63532        50.90453        -0.05358
H         46.54784        52.08581         0.04499
H         49.88102        23.61898        -1.93887
H         50.29168        49.85616         0.28709
H         51.97611        24.83063        -2.10110
H         52.34481        48.60441         0.68141
H         55.77949        26.88718        -1.77682
H         53.62713        25.72767        -1.99977
H         56.05835        46.39960         1.03908
H         53.95818        47.65018         0.85461
H         57.07518        28.93649        -1.32489
H         57.16820        31.33837        -0.83273
H         57.21097        33.20754        -0.47733
H         57.26741        35.59573        -0.07705
H         57.30399        37.49544         0.22253
H         57.32690        39.90140         0.51926
H         57.32138        41.80389         0.86621
H         57.29404        44.25473         1.04000
