         404
 CSIRO Nanostructure Databank - Neutral Graphene Oxide Data Set
C          1.72708         2.08485         2.76989
C          1.69262         3.52213         2.75066
C          2.72301         1.37044         2.16760
C          2.64394         4.24059         2.07604
C          1.40418         6.43144         2.07678
C          1.37374         7.80106         1.95347
C          2.62476         5.70522         1.93288
C          2.53791         8.55224         1.61235
C          1.50130        10.74262         2.24425
C          1.54294        12.12289         2.27583
C          2.53041         9.98061         1.63371
C          2.67151        12.86452         1.80832
C          1.58035        15.08206         2.21729
C          1.59515        16.47964         2.20924
C          2.71740        14.30902         1.88300
C          2.78535        17.19188         2.00403
C          2.84610        18.61221         1.95750
C          3.81905         2.02913         1.48943
C          3.70798         3.50353         1.35100
C          4.94896         1.33257         1.13285
C          4.95532         4.27075         1.00206
C          3.79182         6.40797         1.61352
C          3.76789         7.82737         1.38201
C          5.10058         5.64402         1.65682
C          4.95826         8.52436         1.06787
C          3.62515        10.72860         1.02000
C          3.77040        12.16899         1.25559
C          4.94670         9.91722         0.67584
C          4.97966        12.84162         0.88773
C          3.94567        14.96962         1.56925
C          4.02472        16.41845         1.83994
C          5.06036        14.27356         1.06782
C          5.27426        17.17822         1.40385
C          3.97771        19.29826         1.55285
C          5.17327        18.62876         1.15380
C          6.17653         1.95512         0.61022
C          6.19765         3.52523         0.63960
C          7.47460         1.31444         0.71402
C          7.51737         4.15749         0.81019
C          6.27587         6.38816         1.10805
C          6.25600         7.84085         1.12629
C          7.54385         5.71027         0.99749
C          7.51758         8.57646         0.73375
C          6.19479        10.69114         0.49519
C          6.11852        12.10754         0.44082
C          7.42307         9.99925         0.34405
C          7.29786        12.85002        -0.03833
C          6.26768        14.99966         0.68388
C          6.33573        16.41494         0.74145
C          7.38556        14.30171         0.17254
C          7.43085        17.11843         0.18240
C          6.24984        19.28107         0.56127
C          7.42184        18.58108         0.14433
C          8.65095         2.01246         0.35468
C          8.67130         3.44526         0.25288
C          9.90729         1.35573         0.21902
C          9.82270         4.14113        -0.17110
C          8.68839         6.40312         0.37410
C          8.67254         7.78217         0.24457
C          9.72256         5.62192        -0.33185
C          9.86649         8.50337        -0.13808
C          8.63441        10.65328         0.00270
C          8.59728        12.09640        -0.29439
C          9.85440         9.95466        -0.09859
C          9.86491        12.84980        -0.25924
C          8.57304        14.99023        -0.18300
C          8.56269        16.40461        -0.25167
C          9.83355        14.27599        -0.32811
C          9.71632        17.12119        -0.91227
C          8.57185        19.27193        -0.25357
C          9.77546        18.60306        -0.60784
C         11.05807         2.03834        -0.15279
C         11.00894         3.42920        -0.47499
C         12.33052         1.21598        -0.19354
C         12.19536         4.08300        -1.10589
C         10.96840         6.40115        -0.81213
C         11.04153         7.81561        -0.43303
C         12.20815         5.63039        -1.21274
C         12.36389         8.50607        -0.21184
C         11.08433        10.67758        -0.31957
C         11.05767        12.11588        -0.27640
C         12.30751         9.99707        -0.48941
C         12.33559        12.81753        -0.15748
C         11.03364        15.02974        -0.41555
C         11.03184        16.42531        -0.67716
C         12.31887        14.36210        -0.19948
C         12.23032        17.15484        -0.75257
C         10.97189        19.28594        -0.78159
C         12.22936        18.60508        -0.91268
C         13.57559         1.98839        -0.55065
C         13.46200         3.28494        -1.10600
C         14.81355         1.33120        -0.54006
C         14.62771         3.77186        -1.72421
C         13.45558         6.46109        -1.26349
C         13.50664         7.78181        -0.86363
C         14.66121         5.93072        -1.82367
C         14.74094         8.52105        -1.22377
C         13.50340        10.73527        -0.77800
C         13.53797        12.11383        -0.61039
C         14.71116        10.00883        -1.27431
C         14.71469        12.91861        -0.98939
C         13.55421        15.09031        -0.51523
C         13.48629        16.47812        -0.66692
C         14.78096        14.37045        -0.69884
C         14.72474        17.26459        -0.64459
C         13.42286        19.30955        -1.10263
C         14.71084        18.68535        -1.04645
C         16.01581         1.95826        -0.96884
C         15.91093         3.27255        -1.50378
C         17.27626         1.27250        -0.99143
C         17.10466         4.09411        -1.87294
C         15.96513         6.39760        -1.48479
C         16.04082         7.79513        -1.14871
C         17.13683         5.57927        -1.58765
C         17.25419         8.42234        -0.84461
C         16.05325        10.69375        -1.29644
C         16.01227        12.19648        -1.28322
C         17.32419         9.94197        -0.95742
C         17.26214        12.94146        -1.12648
C         15.98607        15.04463        -0.90046
C         16.03784        16.50391        -0.72390
C         17.23058        14.35142        -1.10902
C         17.23514        17.24385        -1.13887
C         15.91884        19.33819        -1.27277
C         17.19518        18.65653        -1.28805
C         18.44294         1.88958        -1.44480
C         18.40686         3.32809        -1.83668
C         19.69608         1.22358        -1.49067
C         19.66242         4.07138        -1.62988
C         18.37093         6.19422        -1.25570
C         18.41572         7.56170        -0.79195
C         19.61971         5.45585        -1.34911
C         19.64322         8.01119        -0.22396
C         18.48824        10.82531        -0.59717
C         18.47683        12.23604        -0.91485
C         19.65695        10.33454        -0.03718
C         19.68246        12.98996        -0.88810
C         18.45511        15.09617        -1.14255
C         18.44869        16.52816        -1.24392
C         19.68552        14.40244        -1.09325
C         19.67757        17.23604        -1.35579
C         18.42049        19.34076        -1.51016
C         19.66593        18.67197        -1.50607
C         20.91560         1.90704        -1.71564
C         20.88421         3.36851        -1.69486
C         22.16165         1.23808        -1.75804
C         22.10151         4.08777        -1.65562
C         20.85818         6.10291        -1.07939
C         20.86566         7.36791        -0.41116
C         22.08516         5.44650        -1.32740
C         22.13442         8.01429        -0.12309
C         20.90682        11.01668        -0.15412
C         20.92295        12.32755        -0.67457
C         22.15293        10.34007        -0.01398
C         22.16665        12.97737        -0.90494
C         20.92666        15.11990        -1.13228
C         20.89858        16.52394        -1.24817
C         22.17908        14.38861        -1.12409
C         22.15249        17.28431        -1.19637
C         20.90823        19.36737        -1.66533
C         22.15468        18.72025        -1.56931
C         23.40970         1.91805        -1.86741
C         23.36902         3.39282        -1.98034
C         24.65403         1.28659        -1.79782
C         24.66826         4.15022        -1.88795
C         23.34467         6.15497        -1.01189
C         23.31446         7.59081        -0.66573
C         24.64655         5.50476        -1.25823
C         24.51160         8.44127        -0.97597
C         23.33474        10.82298        -0.56160
C         23.37378        12.21853        -0.91665
C         24.50523         9.96804        -0.93199
C         24.61304        12.86655        -1.18096
C         23.41154        15.03019        -1.31547
C         23.44105        16.50289        -1.26968
C         24.63771        14.28563        -1.36246
C         24.62836        17.20704        -1.81467
C         23.39862        19.37669        -1.68738
C         24.65987        18.69435        -1.69674
C         25.90976         2.00525        -1.72506
C         25.91669         3.41057        -1.72266
C         27.15555         1.32993        -1.54955
C         27.19270         4.20649        -1.78940
C         25.88986         6.31046        -1.22057
C         25.82979         7.72369        -1.03600
C         27.10569         5.63873        -1.30729
C         27.02761         8.44619        -1.06361
C         25.79366        10.69491        -1.08191
C         25.83875        12.09137        -1.20614
C         27.00178         9.90455        -1.30437
C         27.10230        12.79252        -1.29843
C         25.88186        14.96337        -1.49942
C         25.89653        16.39273        -1.88500
C         27.11833        14.24666        -1.39761
C         27.18494        17.14479        -1.81762
C         25.87712        19.35369        -1.65529
C         27.17538        18.66014        -1.69295
C         28.36223         2.03546        -1.26452
C         28.38154         3.46929        -1.24427
C         29.55942         1.34624        -0.95976
C         29.53070         4.18314        -0.87498
C         28.31609         6.34682        -1.05969
C         28.28357         7.77110        -0.98920
C         29.53202         5.63241        -0.83621
C         29.51146         8.49020        -0.79125
C         28.34479        10.64909        -1.27445
C         28.31838        12.11028        -1.15883
C         29.54490         9.91548        -0.86020
C         29.58608        12.77799        -1.06734
C         28.33795        14.92860        -1.38557
C         28.32141        16.39252        -1.19865
C         29.66213        14.22528        -1.49287
C         29.55682        17.12950        -0.83079
C         28.39302        19.31221        -1.18472
C         29.57613        18.61598        -0.93523
C         30.73244         2.04326        -0.59521
C         30.71971         3.47326        -0.51501
C         31.93663         1.34860        -0.28136
C         31.87663         4.17622        -0.07190
C         30.70148         6.34129        -0.45877
C         30.69901         7.77718        -0.45921
C         31.87713         5.62767        -0.05071
C         31.88025         8.49965        -0.09151
C         30.72472        10.63854        -0.61378
C         30.75120        12.06881        -0.81962
C         31.91032         9.93947        -0.19564
C         32.08949        12.76273        -0.98522
C         30.83862        14.96948        -0.89239
C         30.83333        16.37819        -0.74795
C         32.02899        14.25358        -0.68877
C         32.02538        17.08318        -0.51205
C         30.78358        19.26355        -0.61127
C         32.00491        18.54873        -0.40675
C         33.06140         2.02903         0.16326
C         33.02349         3.44145         0.30631
C         34.28368         1.23324         0.57061
C         34.17548         4.13503         0.91006
C         33.01447         6.35515         0.35934
C         33.01947         7.77020         0.33437
C         34.18021         5.64908         0.94230
C         34.18769         8.48768         0.87315
C         33.08966        10.67469         0.06878
C         33.21340        12.05611        -0.25077
C         34.22416        10.00694         0.72040
C         34.40173        12.74086         0.01445
C         33.22577        14.95041        -0.42514
C         33.24963        16.36850        -0.37000
C         34.48106        14.18659        -0.29167
C         34.46693        17.08027        -0.04928
C         33.17408        19.23980        -0.16190
C         34.51683        18.57882        -0.21318
C         35.53988         2.05990         0.74957
C         35.46557         3.41998         0.98125
C         36.80067         1.38819         0.66380
C         36.65701         4.18668         1.37181
C         35.47859         6.36936         1.03859
C         35.47903         7.77819         1.00370
C         36.68067         5.66246         1.24912
C         36.68287         8.50389         1.17975
C         35.52934        10.68105         0.76965
C         35.57577        12.07222         0.51952
C         36.69653         9.95248         1.11497
C         36.77409        12.79239         0.84728
C         35.71341        14.95075         0.16338
C         35.60855        16.40644         0.35643
C         36.80928        14.21856         0.81434
C         36.70415        17.08537         1.01109
C         35.55013        19.23027         0.66510
C         36.61621        18.53970         1.16816
C         38.00180         2.05839         0.81095
C         38.00456         3.44951         1.28815
C         39.27530         1.45437         0.51641
C         39.22572         4.25284         1.15148
C         37.91174         6.36506         1.35159
C         37.90797         7.79177         1.34186
C         39.18068         5.65895         1.33772
C         39.14021         8.51479         1.51786
C         37.90975        10.65758         1.34563
C         37.91876        12.08445         1.30952
C         39.12611         9.94104         1.60329
C         39.08887        12.80865         1.71635
C         37.86733        14.93654         1.39007
C         37.78292        16.37371         1.51593
C         39.04699        14.23089         1.82660
C         38.78630        17.05547         2.41678
C         37.74096        19.23073         1.76510
C         38.83578        18.55598         2.23043
C         40.43522         2.17298         0.58286
C         40.44049         3.58886         0.87524
C         41.64251         4.33557         0.88743
C         40.40407         6.38307         1.38014
C         40.37598         7.81724         1.59650
C         41.62248         5.68964         1.17093
C         41.55579         8.55142         1.85867
C         40.32303        10.65418         1.88904
C         40.28643        12.09910         2.02853
C         41.52571         9.92427         2.03048
C         41.41110        12.83455         2.45412
C         40.19729        14.94576         2.27385
C         40.15038        16.39497         2.41562
C         41.36455        14.21701         2.57802
C         41.25923        17.15084         2.70679
C         40.02609        19.25648         2.64383
C         41.18755        18.57476         2.87439
O         24.06698         5.40764         0.10302
O         15.16131        12.66769        -2.37874
O          6.06229         2.80395        -0.59398
O         33.84296         4.87379         2.14498
O         15.51444        16.98963         0.56483
O          5.07372        16.79154         2.80464
O         27.49364        17.92200        -2.98427
O         16.93221        10.23968        -2.35896
O         17.75324         3.65579        -3.11505
O          7.82462         4.75807         2.10363
O         11.94509         4.78428        -2.36147
O         33.86976         9.36157         2.00329
O         22.97084        17.03266         0.01292
O         37.32043         3.66742         2.56538
O         24.23951         9.21531        -2.20891
O          7.71108        12.45488        -1.40157
O         25.08779        16.67513        -3.08604
O         24.00384         3.97508        -3.18474
O         22.11648         9.14430         0.69107
O         19.61938         9.11263         0.63407
O         14.54072         4.83099        -2.64496
O         35.52403        14.55093        -1.25036
O          3.94837        10.27441        -0.32317
O          7.21370         8.39100         2.17448
O         14.49002         9.25020        -2.50502
O         28.57327        16.73677         0.22639
O         12.44548        13.61576         1.06882
O         27.73768        10.21463        -2.53923
O          9.86171         6.09878        -1.70747
O          3.92201         4.10364         0.01589
O         29.99424        14.17181        -2.94286
H         29.25225        13.71704        -3.39842
O         38.26772        16.84398         3.78207
H         38.89109        17.28565         4.39725
O          9.46587        17.02788        -2.36013
H          8.59574        17.44449        -2.53576
O          5.36510         5.34167         3.07049
H          5.99156         6.01360         3.41494
O         35.00037        18.80825        -1.59958
H         35.77296        18.21880        -1.73752
O         34.50347         0.16086        -0.35535
H         34.63459         0.54494        -1.24604
O         32.39872        12.65917        -2.41081
H         31.70603        13.18202        -2.88630
O         27.43651         4.34150        -3.24808
H         27.44627         3.43722        -3.62914
O         12.49204         0.52651         1.05680
H         12.57304         1.19300         1.76908
O         12.63681         8.39376         1.24546
H         11.93354         8.89320         1.71471
H          0.92469         1.55475         3.30212
H          0.88203         4.03238         3.28976
H          2.72857         0.27216         2.22298
H          0.47514         5.88677         2.29549
H          0.41680         8.32467         2.08488
H          0.64002        10.23012         2.69462
H          0.70292        12.65810         2.73768
H          0.62744        14.57810         2.42664
H          0.65934        17.03067         2.38231
H          1.93131        19.17799         2.18862
H          4.99461         0.25635         1.36220
H          3.94182        20.39456         1.47101
H          7.54243         0.27389         1.06183
H          6.21433        20.37353         0.43108
H          9.96570         0.27178         0.39372
H          8.58110        20.37089        -0.18252
H         12.20515         0.41268        -0.97041
H         10.97866        20.38532        -0.71266
H         14.85338         0.29485        -0.17545
H         13.37380        20.39620        -1.27349
H         17.31278         0.22550        -0.65625
H         15.90811        20.41534        -1.50057
H         19.72089         0.13841        -1.30823
H         18.40335        20.43345        -1.64176
H         22.16903         0.13988        -1.68087
H         20.88248        20.45181        -1.85297
H         24.68926         0.18923        -1.72019
H         23.40562        20.46979        -1.81823
H         27.17364         0.23025        -1.54707
H         25.88904        20.44363        -1.50202
H         29.57355         0.24665        -0.98875
H         28.38454        20.40767        -1.07308
H         31.96528         0.25226        -0.36167
H         30.81502        20.36363        -0.59921
H         34.06420         0.74478         1.56100
H         33.14689        20.33820        -0.09191
H         36.79746         0.32700         0.37403
H         35.52479        20.32745         0.75559
H         39.29785         0.38960         0.24157
H         37.74676        20.33166         1.73628
H         41.39787         1.68531         0.37113
H         42.59627         3.82823         0.68379
H         42.57314         6.23926         1.18673
H         42.51751         8.03024         1.95494
H         42.46613        10.44639         2.25098
H         42.34460        12.31805         2.71392
H         42.26258        14.74044         2.93284
H         42.24927        16.68141         2.79421
H         40.00239        20.35524         2.69255
H         42.10411        19.11784         3.14330
