         204
 CSIRO Nanostructure Databank - Neutral Graphene Oxide Data Set
C        -11.13726         0.68994        -0.32321
C         -9.92210         1.45879        -0.20577
C         -8.68225         0.73591        -0.09413
C         -7.46748         1.45792         0.05487
C         -6.25043         0.74055         0.14409
C         -5.00412         1.47016         0.55523
C         -3.70896         0.73625         0.30245
C         -2.52924         1.44017         0.23315
C         -1.26516         0.72767         0.46368
C          0.02699         1.48225         0.41366
C          1.30283         0.72523         0.29904
C          2.48695         1.43722         0.30597
C          3.77926         0.72999         0.26950
C          4.99488         1.46848         0.73184
C          6.30551         0.73815         0.70352
C          7.50847         1.46828         0.26438
C          8.67181         0.73528        -0.02939
C          9.87292         1.45647        -0.36740
C         11.06842         0.69738        -0.66308
C         -9.91733         2.85528        -0.19840
C         -8.70378         3.60719        -0.09026
C         -7.46957         2.90036         0.05497
C         -6.24447         3.62537         0.10461
C         -4.99257         2.92569         0.16403
C         -3.79763         3.61129         0.05476
C         -2.53469         2.86430        -0.27860
C         -1.27304         3.63225         0.02482
C          0.01438         2.88158        -0.19199
C          1.25497         3.61312         0.16615
C          2.54131         2.90569        -0.08970
C          3.74752         3.67697         0.37648
C          5.00386         2.95299         0.64626
C          6.28247         3.64546         0.38962
C          7.47417         2.90021         0.17349
C          8.68183         3.60887        -0.15932
C          9.86582         2.85121        -0.40706
C         -8.69062         5.02444        -0.14884
C         -7.48515         5.75679        -0.11860
C         -6.24273         5.04291        -0.01300
C         -5.00898         5.75695        -0.01374
C         -3.77521         5.04164         0.01845
C         -2.54459         5.73925         0.07488
C         -1.30322         4.99066         0.17961
C         -0.07636         5.75299         0.51870
C          1.25039         5.01033         0.54011
C          2.49578         5.78976         0.41460
C          3.74820         5.04830         0.42783
C          5.01337         5.77973         0.38592
C          6.25084         5.04754         0.24536
C          7.46632         5.75559        -0.04763
C          8.65627         5.02037        -0.24007
C         -7.44140         7.18404        -0.21079
C         -6.23525         7.88718        -0.20273
C         -4.98697         7.17674        -0.09902
C         -3.74629         7.87308        -0.10138
C         -2.51735         7.15922         0.02142
C         -1.26803         7.87856         0.03516
C         -0.03896         7.19917         0.25219
C          1.19623         7.88094         0.25441
C          2.45308         7.16661         0.38631
C          3.73081         7.94772         0.60914
C          4.99296         7.16738         0.28340
C          6.20774         7.87415        -0.01011
C          7.40442         7.17717        -0.17478
C         -6.17732         9.32662        -0.31403
C         -4.98715         9.99623        -0.33287
C         -3.72167         9.30654        -0.22927
C         -2.50114         9.98476        -0.26246
C         -1.25798         9.29665        -0.13413
C         -0.00497         9.97112        -0.17651
C          1.20717         9.29301        -0.00877
C          2.48392         9.96143        -0.18424
C          3.68581         9.32854        -0.00103
C          4.94912         9.98012        -0.26126
C          6.13553         9.30880        -0.22768
C        -11.12802        -0.68074        -0.31803
C         -9.91092        -1.43349        -0.18517
C         -8.67152        -0.68972        -0.06741
C         -7.44782        -1.38294         0.02356
C         -6.24067        -0.65756         0.08138
C         -4.94668        -1.36471        -0.08949
C         -3.69129        -0.69605         0.23722
C         -2.47309        -1.42214         0.20453
C         -1.23760        -0.73794         0.36670
C          0.00303        -1.42316         0.30342
C          1.24964        -0.71879         0.29409
C          2.47675        -1.47113         0.30240
C          3.77166        -0.75850         0.29312
C          5.02162        -1.50195         0.53625
C          6.29549        -0.76572         0.62508
C          7.51100        -1.46427         0.18505
C          8.67674        -0.71937        -0.05704
C          9.87863        -1.43413        -0.40235
C         11.07297        -0.66597        -0.67698
C         -9.89837        -2.83535        -0.21933
C         -8.70606        -3.59059        -0.06410
C         -7.44886        -2.85972         0.33564
C         -6.19346        -3.60753        -0.03158
C         -4.94023        -2.87903        -0.22119
C         -3.66478        -3.58566        -0.05660
C         -2.47021        -2.86287         0.05775
C         -1.20531        -3.55227         0.03986
C         -0.01529        -2.86108         0.14593
C          1.27026        -3.58888        -0.17374
C          2.48757        -2.84806         0.29771
C          3.73572        -3.57928         0.57204
C          5.02880        -2.86778         0.45560
C          6.26135        -3.60689         0.28270
C          7.47470        -2.88568         0.07562
C          8.68438        -3.59204        -0.24754
C          9.86993        -2.82905        -0.47394
C         -8.66314        -4.98630        -0.10240
C         -7.44085        -5.72150         0.00467
C         -6.18095        -4.99676         0.01133
C         -4.93328        -5.72330        -0.03087
C         -3.68294        -5.02656        -0.05024
C         -2.46999        -5.73980        -0.09323
C         -1.19155        -5.00253        -0.39261
C          0.04738        -5.75979         0.01548
C          1.25137        -5.06667         0.14961
C          2.45967        -5.78550         0.31941
C          3.73535        -5.07384         0.57512
C          5.01649        -5.76909         0.30324
C          6.23288        -5.02398         0.15848
C          7.45087        -5.72846        -0.14345
C          8.64830        -5.00087        -0.33801
C         -7.40695        -7.12988        -0.01118
C         -6.19395        -7.84731        -0.01672
C         -4.93900        -7.14184        -0.02979
C         -3.70946        -7.86120        -0.03681
C         -2.46596        -7.15844        -0.05975
C         -1.23118        -7.88179        -0.03946
C          0.01862        -7.18059         0.06253
C          1.24166        -7.90314         0.17611
C          2.45667        -7.19066         0.31488
C          3.74741        -7.90544         0.44014
C          5.00580        -7.15699         0.19340
C          6.21600        -7.86226        -0.11586
C          7.40232        -7.14873        -0.27860
C         -6.16306        -9.28152        -0.02451
C         -4.97994        -9.97479        -0.04431
C         -3.70977        -9.29675        -0.05194
C         -2.49567        -9.99334        -0.08680
C         -1.24150        -9.31253        -0.06742
C         -0.01398       -10.01514        -0.09167
C          1.23793        -9.35063         0.02423
C          2.44959       -10.04728        -0.09101
C          3.73786        -9.41308         0.18873
C          5.00606       -10.01297        -0.27425
C          6.15410        -9.29778        -0.35529
O         -1.10718        -4.93792        -1.87933
H         -1.92206        -4.48923        -2.19507
O          3.68486        -4.34178         1.85691
O          3.98070         0.00749        -0.99634
O          2.76150         2.81872        -1.55896
H          2.05262         2.23580        -1.91968
O         -0.59289         1.31680         1.70688
O          3.78312         8.18176         2.06163
H          3.70034         7.31022         2.50459
O         -5.09481         1.49949         2.03131
H         -4.30066         1.96615         2.37014
O         -7.44687        -2.89178         1.82368
H         -7.61961        -3.82008         2.09261
O          0.50000         5.34560         1.80145
O         -2.60350         2.70610        -1.74417
H         -1.71397         2.38670        -2.03704
O          0.07636         2.59709        -1.67128
H          0.20717         3.46001        -2.12300
O          1.36624        -3.55192        -1.64764
H          0.56344        -4.02340        -1.99134
O         -4.92433        -2.00596        -1.42942
O          6.49007        -0.06342         1.91931
O          3.82119        -8.83876         1.55744
O          4.85462         2.23647         1.96180
H         11.99844        -1.21055        -0.91673
H         11.99075         1.25203        -0.89187
H         10.79491         3.38662        -0.65564
H          9.58605         5.55847        -0.47956
H          8.32226         7.73042        -0.42562
H          7.07292         9.84445        -0.43994
H          4.93532        11.05106        -0.51628
H          2.47097        11.00426        -0.53966
H          0.00675        11.05679        -0.35710
H         -2.49382        11.07924        -0.37831
H         -4.97586        11.09253        -0.42600
H         -7.12286         9.88367        -0.39279
H         -8.38812         7.73908        -0.29751
H         -9.64528         5.56360        -0.24595
H        -10.87003         3.39857        -0.29359
H        -12.09108         1.23011        -0.41847
H        -12.07525        -1.23267        -0.41317
H        -10.84580        -3.37233        -0.38470
H         -9.59608        -5.54802        -0.26670
H         -8.35581        -7.68764        -0.02825
H         -7.11842        -9.82702        -0.01705
H         -4.98735       -11.07471        -0.05436
H         -2.50377       -11.09347        -0.11112
H         -0.02751       -11.11247        -0.17133
H          2.43690       -11.10491        -0.39591
H          5.00004       -11.07673        -0.55724
H          7.08062        -9.79542        -0.67980
H          8.32807        -7.68968        -0.52692
H          9.57161        -5.54793        -0.58172
H         10.80091        -3.35932        -0.72634
