         410
 CSIRO Nanostructure Databank - Neutral Graphene Oxide Data Set
C         28.16141        27.48784         0.92935
C         28.07172        28.86724         0.69418
C         26.84234        29.54915         0.50182
C         27.98613        31.67132        -0.00881
C         26.80719        30.90363         0.21895
C         27.91389        33.09146        -0.28089
C         26.75109        33.83661        -0.32737
C         27.93092        35.98435        -0.62631
C         26.76915        35.24229        -0.59472
C         27.96114        37.42909        -0.76282
C         26.80043        38.14588        -1.12735
C         27.94509        40.25838        -0.78563
C         26.80864        39.53079        -1.18184
C         27.87051        41.73899        -0.69312
C         26.95715        42.50862        -1.56253
C         28.22801        44.58267        -1.18975
C         27.11783        43.83840        -1.76321
C         28.37696        45.98333        -1.43550
C         30.59018        27.41842         0.51700
C         29.37739        26.79229         0.83528
C         30.65500        28.88136         0.55599
C         29.30316        29.65785         0.63208
C         30.47066        31.64004        -0.27996
C         29.25576        31.02382         0.09673
C         30.44392        33.05688        -0.69920
C         29.16860        33.81781        -0.61749
C         30.47532        36.01765        -0.67833
C         29.21726        35.28778        -0.24735
C         30.44748        37.44116        -0.48288
C         29.16312        38.14337        -0.48545
C         30.30437        40.32366         0.02072
C         29.12842        39.57283        -0.40725
C         30.32441        41.70007         0.09597
C         29.09557        42.47493        -0.18680
C         30.31599        44.63852         0.22466
C         29.21601        43.90874        -0.48379
C         30.50970        46.06181        -0.23865
C         29.50152        46.67927        -0.98510
C         32.94533        24.59155        -0.26613
C         31.79636        25.29126         0.08418
C         32.99204        27.40776        -0.18351
C         31.78485        26.70044         0.13758
C         32.99750        28.83544        -0.30527
C         31.80371        29.57395        -0.04243
C         32.87440        31.63032        -0.99411
C         31.70292        30.94643        -0.32939
C         32.91120        33.12136        -0.74628
C         31.71054        33.81519        -0.68254
C         32.91821        35.83576        -1.14587
C         31.66283        35.24973        -0.82763
C         32.90679        37.82633        -0.63355
C         31.60717        38.20988        -0.21541
C         32.77651        40.20641         0.88941
C         31.51263        39.54648         0.40913
C         32.75504        41.71252         0.82517
C         31.55806        42.43847         0.35315
C         32.90739        44.54507         0.36630
C         31.58621        43.81443         0.28900
C         32.78604        46.01670         0.64271
C         31.67595        46.75582         0.26368
C         32.84970        48.86585         0.73955
C         31.74574        48.20731         0.30883
C         35.42544        23.06020        -0.58457
C         35.36557        24.49917        -1.01552
C         34.15076        25.25698        -0.52344
C         35.43104        27.37556        -0.67115
C         34.18849        26.67197        -0.46539
C         35.45191        28.79117        -0.71333
C         34.21087        29.53073        -0.63159
C         35.39266        31.67598        -0.97163
C         34.19974        30.93836        -0.77857
C         35.37949        33.09261        -0.94070
C         34.16644        33.80673        -0.78939
C         35.35301        36.04385        -0.71709
C         34.16087        35.24155        -0.87825
C         35.32210        37.43312        -0.33095
C         34.12439        38.19624        -0.06440
C         35.42649        40.11901         0.76993
C         34.12627        39.34572         0.96313
C         35.60251        41.40264         1.27493
C         33.71647        42.46188         1.42941
C         35.28711        44.51111         1.11610
C         33.86989        43.94493         1.40662
C         35.27095        45.88830         1.08208
C         33.98471        46.64138         1.22178
C         35.33865        48.84688         1.32984
C         34.01694        48.15514         1.29231
C         35.40375        50.21789         1.63234
C         37.87560        23.05647        -0.54164
C         36.60395        22.39770        -0.44382
C         37.87201        24.49411        -0.66299
C         36.66189        25.22739        -0.75185
C         37.90960        27.36145        -0.80807
C         36.66928        26.64635        -0.76501
C         37.92522        28.80460        -0.91278
C         36.68150        29.48418        -0.90374
C         37.96505        31.68098        -1.34112
C         36.64926        30.92531        -1.20852
C         37.92001        33.18707        -1.29332
C         36.61068        33.89961        -1.11520
C         37.80381        35.98635        -0.41850
C         36.59938        35.33878        -0.70179
C         37.80912        37.38995        -0.17164
C         36.57715        38.08190        -0.09048
C         37.80385        40.20034         0.24376
C         36.58295        39.47559         0.25689
C         37.77973        41.61541         0.37632
C         36.63540        42.28614         0.84733
C         37.70534        44.48176         0.60211
C         36.54517        43.76439         0.87970
C         37.73676        45.95257         0.47832
C         36.45110        46.69849         0.71217
C         37.77437        48.81246         1.00301
C         36.52160        48.14048         1.05147
C         37.81556        50.21049         1.27882
C         36.62048        50.88175         1.61566
C         40.32638        20.19795        -0.24154
C         39.14042        20.88460        -0.34798
C         40.34430        23.00219        -0.38430
C         39.10866        22.31647        -0.42056
C         40.36416        24.45186        -0.62619
C         39.10254        25.21586        -0.67089
C         40.41195        27.33732        -0.76823
C         39.11583        26.61414        -0.76262
C         40.44291        28.82993        -0.82413
C         39.15920        29.54935        -0.93035
C         40.43530        31.66337        -0.77757
C         39.21408        30.95889        -0.99324
C         40.46150        33.14122        -0.78318
C         39.19306        33.91797        -0.96949
C         40.33546        35.97326        -0.07715
C         39.05335        35.18142        -0.13598
C         40.30196        37.36968         0.08125
C         39.05205        38.09580         0.01983
C         40.29103        40.22849         0.24402
C         39.05129        39.49636         0.12431
C         40.29465        41.64174         0.19962
C         39.01165        42.34912         0.05041
C         40.26425        44.55208         0.37920
C         38.97990        43.83907         0.20767
C         40.25512        45.96820         0.50862
C         39.01946        46.68584         0.59182
C         40.24028        48.81765         0.62758
C         39.00674        48.08595         0.73520
C         40.22623        50.23080         0.73581
C         39.06749        50.93869         1.14896
C         40.33839        53.04862         1.20561
C         39.15350        52.33374         1.37876
C         42.79854        20.19928         0.07179
C         41.57111        20.88469        -0.12516
C         42.80537        22.99853         0.08823
C         41.57617        22.31009        -0.17062
C         42.75572        24.44943         0.33075
C         41.63116        25.19384        -0.28740
C         42.78856        27.42243         0.27376
C         41.54065        26.65850        -0.05656
C         42.82319        28.87059        -0.01565
C         41.65758        29.55616        -0.37263
C         42.84373        31.69628        -0.10316
C         41.64180        30.98355        -0.42020
C         42.82131        33.13415         0.01114
C         41.62166        33.83918        -0.18445
C         42.76435        35.96170         0.33496
C         41.56363        35.25613         0.00439
C         42.70926        37.36266         0.54029
C         41.51238        38.08303         0.36966
C         42.70880        40.27162         0.59633
C         41.51209        39.52691         0.43558
C         42.72073        41.67495         0.44382
C         41.49230        42.38089         0.28067
C         42.72401        44.53472         0.35510
C         41.48003        43.83391         0.31755
C         42.73216        45.96030         0.43328
C         41.49647        46.67892         0.50394
C         42.72979        48.79541         0.42703
C         41.48542        48.10576         0.48212
C         42.75704        50.24557         0.20179
C         41.42021        51.00405         0.37418
C         42.72641        53.11161         0.52492
C         41.49401        52.42826         0.70756
C         43.98257        20.88656         0.25205
C         45.26384        23.05980         0.48793
C         44.01302        22.31159         0.29631
C         45.28597        24.47161         0.57603
C         44.02609        25.22723         0.63098
C         45.26001        27.37753         0.46836
C         44.05816        26.68910         0.42940
C         45.26887        28.83105         0.40879
C         44.05918        29.55739         0.17819
C         45.27362        31.68873         0.41768
C         44.05660        30.98716         0.14736
C         45.26007        33.12111         0.48268
C         44.02830        33.84226         0.33620
C         45.21417        35.96352         0.79483
C         44.00078        35.25015         0.48798
C         45.19828        37.37344         0.96540
C         43.91424        38.06365         0.99813
C         45.25014        40.27252         0.89531
C         43.94306        39.59048         1.02244
C         45.19325        41.65841         0.51738
C         43.98344        42.37426         0.40303
C         45.16854        44.53996         0.12438
C         43.96866        43.81560         0.26694
C         45.21153        45.96357         0.25064
C         43.97306        46.67708         0.45789
C         45.20401        48.85777         0.60767
C         43.94808        48.09432         0.52585
C         45.21762        50.32181         0.44693
C         44.00919        51.01733         0.33271
C         43.91826        52.44341         0.31749
C         47.69997        23.07344         0.62315
C         46.51045        22.38352         0.50716
C         47.73469        24.48906         0.68767
C         46.50639        25.20334         0.62527
C         47.71202        27.35466         0.79869
C         46.50885        26.65035         0.63658
C         47.71133        28.80790         0.84033
C         46.48319        29.53101         0.61577
C         47.69164        31.66786         0.95424
C         46.48159        30.96415         0.65243
C         47.67545        33.09643         0.98805
C         46.45977        33.82358         0.74043
C         47.60799        35.95586         1.31247
C         46.44053        35.24619         0.90272
C         47.48950        37.30386         1.62086
C         46.37201        38.11330         1.26597
C         47.76701        40.30788         1.01459
C         46.44780        39.56098         1.10373
C         47.74047        41.72509         0.49995
C         46.43498        42.32188         0.11061
C         47.69746        44.54500        -0.16844
C         46.41539        43.82168        -0.14224
C         47.66298        45.96203        -0.25935
C         46.43176        46.65087         0.03689
C         47.60707        48.88788        -0.29556
C         46.50398        48.08874         0.30974
C         47.64593        50.31714         0.06319
C         46.50813        50.97128         0.42491
C         50.21018        24.53605         0.98713
C         48.97336        25.21323         0.84594
C         50.17823        27.33061         1.14902
C         48.95830        26.63432         0.92592
C         50.13228        28.77602         1.44125
C         48.88868        29.50920         1.12976
C         50.09377        31.64785         1.53793
C         48.90944        30.94048         1.18729
C         49.94400        33.01938         1.76094
C         48.85256        33.79212         1.35320
C         50.23900        36.02794         0.86001
C         48.93624        35.27628         1.13272
C         50.36803        37.51523         0.80294
C         49.36810        38.40119         1.30268
C         50.06358        40.19239        -0.23225
C         49.08649        39.63325         0.77931
C         50.14402        41.70373        -0.20969
C         48.96728        42.40371        -0.03081
C         50.11921        44.53246        -0.55286
C         48.91678        43.83441        -0.24231
C         50.08131        45.95199        -0.75277
C         48.86026        46.66100        -0.57464
C         50.09875        48.79694        -1.05965
C         48.82582        48.11431        -0.81445
C         51.38761        25.22541         1.18136
C         52.66654        27.37714         1.29225
C         51.40369        26.64180         1.26482
C         52.67407        28.78755         1.28090
C         51.44447        29.52665         1.62456
C         52.63746        31.70270         0.93493
C         51.50249        31.05527         1.76904
C         52.67359        33.07039         0.64047
C         51.77390        34.04561         1.17610
C         52.57162        35.94261        -0.10312
C         51.54318        35.31210         0.67038
C         52.58325        37.31667        -0.26662
C         51.44047        38.11239         0.10472
C         52.58777        40.18352        -0.63139
C         51.40850        39.50256        -0.19241
C         52.57538        41.64007        -0.69652
C         51.38552        42.37407        -0.52438
C         52.49057        44.51557        -1.14574
C         51.35387        43.81818        -0.69166
C         52.44583        45.90551        -1.46942
C         51.26201        46.64737        -1.17096
C         51.23889        48.08285        -1.25603
C         55.07102        27.36852         0.90287
C         53.90541        26.68642         1.15995
C         55.04747        28.76930         0.67075
C         53.83934        29.49947         0.87119
C         54.93891        31.50508        -0.03872
C         53.79074        30.90835         0.56915
C         54.88285        32.85140        -0.57191
C         53.63840        33.58913        -0.35818
C         54.85679        35.69534        -1.22953
C         53.62878        35.09559        -0.69429
C         55.00129        37.17742        -1.16711
C         53.81506        38.00439        -0.66324
C         55.05979        40.08300        -1.22391
C         53.76901        39.45611        -0.87857
C         55.11549        41.60619        -1.23531
C         53.85776        42.34895        -0.85354
C         54.86619        44.43187        -2.00524
C         53.79299        43.83797        -1.19046
C         54.71451        45.76432        -2.42137
C         53.58087        46.50241        -2.09613
C         56.21347        29.43881         0.21002
C         56.14552        30.75955        -0.16075
C         55.88887        33.46374        -1.31054
C         55.87630        34.85203        -1.62624
C         55.95480        37.91060        -2.03082
C         56.00057        39.25773        -2.02780
C         56.12996        42.32786        -2.01221
C         56.00007        43.64510        -2.36356
O         47.83232        41.46022         1.94342
O         54.16650        43.35762         0.15736
O         43.08835        24.80881         1.70046
O         36.91318        46.42548        -0.65978
O         31.81350        39.65216         1.86391
O         37.23682        33.74904        -2.45201
O         53.02686        34.08807        -1.59036
O         49.35544        35.55221        -0.27256
O         33.75655        47.34865         2.49091
O         37.28643        31.17442        -2.52154
O         47.74379        48.58363        -1.71993
O         34.67692        41.84476         2.22989
O         32.94403        37.06156        -1.81628
O         27.94707        42.19090         0.70769
O         29.66732        33.40539        -1.92291
O         41.95505        50.66107        -0.94615
O         30.17742        29.49073         1.79230
O         40.12064        33.86645        -2.06800
O         50.71717        29.00764         2.79057
O         41.74495        27.08945         1.30828
O         55.67983        40.83454        -0.11851
O         48.54233        37.90040         2.31565
O         41.36846        24.83569        -1.66557
O         46.13252        48.43008         1.67277
O         54.97280        37.64501         0.21731
O         51.02846        33.70708         2.30891
O         43.74287        38.82338         2.25187
O         40.75654        27.98085        -2.02677
O         46.36056        42.83361        -1.25054
O         38.89301        43.20431        -1.13707
O         34.17019        38.76463         2.27887
H         33.24226        38.74951         2.61661
O         33.56423        44.36579        -0.92496
H         33.02304        44.80796        -1.61194
O         29.86027        44.75975         1.62777
H         29.44367        43.90661         1.87981
O         38.84624        34.64200         1.22455
H         38.76357        35.40280         1.83882
O         49.50119        39.86969        -1.56594
H         50.12929        40.20063        -2.24250
O         33.46938        44.40682         2.71307
H         33.93753        43.86674         3.38384
O         35.21871        24.47101        -2.48796
H         36.03153        24.06145        -2.85405
O         32.62533        31.48106        -2.43822
H         33.37148        31.90490        -2.91426
O         29.25796        35.28083         1.22234
H         29.20079        36.21120         1.52818
O         51.86486        31.30840         3.14442
H         51.35805        30.66633         3.69158
H         27.23545        26.91327         1.07824
H         25.90161        28.98762         0.59791
H         25.82797        31.39174         0.11977
H         25.77166        33.36166        -0.17485
H         25.79649        35.73685        -0.73195
H         25.87861        37.60666        -1.38193
H         25.89247        40.06163        -1.47351
H         26.15361        41.97562        -2.09111
H         26.41695        44.38234        -2.41370
H         27.60855        46.50811        -2.01998
H         29.33788        25.69734         0.91830
H         29.60341        47.73942        -1.25958
H         32.88604        23.49776        -0.33575
H         30.88215        24.72368         0.30119
H         32.89872        49.96110         0.64734
H         30.89042        48.78473        -0.06943
H         34.49147        22.48627        -0.51335
H         34.48586        50.76921         1.87758
H         36.57606        21.32312        -0.21509
H         36.63438        51.95388         1.84934
H         40.32296        19.09854        -0.21589
H         38.20425        20.31411        -0.40981
H         40.36311        54.12188         1.44336
H         38.27090        52.88393         1.72943
H         42.79681        19.09981         0.09240
H         42.73759        54.20657         0.62903
H         44.90420        20.31042         0.40775
H         44.84248        53.03379         0.25303
H         48.63398        22.49777         0.65393
H         46.54585        21.28876         0.43614
H         48.58810        50.87399        -0.03826
H         46.55951        52.05363         0.61019
H         50.24696        23.43994         0.94664
H         50.10158        49.89017        -1.16747
H         52.31710        24.65169         1.28565
H         52.17025        48.62056        -1.47967
H         56.02090        26.82532         0.79778
H         53.94154        25.59342         1.25056
H         55.52232        46.23822        -2.99805
H         53.53594        47.55440        -2.40682
H         57.15063        28.87465         0.10249
H         57.04203        31.24978        -0.56259
H         56.79673        32.90369        -1.57390
H         56.78231        35.27533        -2.08432
H         56.63628        37.33731        -2.67677
H         56.75461        39.77343        -2.64044
H         57.06183        41.79719        -2.25233
H         56.80370        44.13065        -2.93709
