         228
 CSIRO Nanostructure Databank - Neutral Graphene Oxide Data Set
C        -11.34972         0.68511        -0.20825
C        -10.26734         1.68409        -0.10315
C         -8.22100         1.04123         0.89468
C         -7.29643         1.54450         0.00948
C         -6.03850         0.83726        -0.17741
C         -4.94503         1.46932        -0.77086
C         -3.73108         0.70611        -1.11878
C         -2.47198         1.46738        -1.26395
C         -1.21093         0.72056        -1.48191
C          0.07108         1.45438        -1.36809
C          1.27444         0.71865        -1.30673
C          2.53146         1.47029        -1.42573
C          3.87717         0.74237        -1.26203
C          5.10582         1.47533        -0.89361
C          6.35484         0.75555        -0.80324
C          7.56133         1.51317        -0.65545
C          8.98831         0.92091        -0.64463
C          9.86277         1.35541         0.54785
C         10.91346         0.47101         0.97671
C        -10.02149         2.76033        -0.88819
C         -8.78932         3.55767        -0.67769
C         -7.50327         2.78464        -0.77645
C         -6.27416         3.51343        -1.24962
C         -4.95103         2.87470        -1.05273
C         -3.74743         3.56189        -1.23830
C         -2.48599         2.84117        -1.28449
C         -1.24492         3.57885        -1.76842
C          0.05993         2.87809        -1.39633
C          1.27531         3.59964        -1.28624
C          2.50022         2.91862        -1.23791
C          3.77777         3.61605        -1.00469
C          5.03722         2.87341        -0.74563
C          6.20722         3.59630        -0.41205
C          7.42238         2.89759        -0.57451
C          8.93484         3.64595         0.81409
C          9.78913         2.57045         1.21140
C         -8.73405         4.90030        -0.56665
C         -7.38527         5.57525        -0.40370
C         -6.40204         5.02569        -1.46882
C         -5.03764         5.73518        -1.38714
C         -3.75487         5.00964        -1.26611
C         -2.57497         5.73097        -1.11295
C         -1.27025         5.08594        -1.43774
C          0.00517         5.86087        -1.24587
C          1.37475         5.13391        -1.30156
C          2.28327         5.49409        -0.08882
C          3.70119         5.03041        -0.41011
C          4.81508         5.53923         0.38424
C          6.22832         5.06050         0.05717
C          7.16146         5.34414         1.25501
C          8.31753         4.58293         1.62307
C         -7.46270         7.08453        -0.40212
C         -6.34033         7.82375        -0.54647
C         -5.04684         7.17811        -0.90705
C         -3.82129         7.72763        -0.35396
C         -2.58687         7.10230        -0.61901
C         -1.38090         7.75699        -0.23066
C         -0.01683         7.30726        -0.71683
C          1.07764         7.66267         0.26930
C          2.24112         6.91815         0.38832
C          3.34680         7.39207         1.15453
C          4.59540         6.67070         1.18573
C          5.66770         7.17350         2.00090
C          6.85328         6.41019         2.09987
C         -6.26072         9.27166        -0.34157
C         -5.11707         9.81668         0.11247
C         -3.95856         8.93622         0.53138
C         -2.66602         9.65627         0.70611
C         -1.44532         9.04167         0.42511
C         -0.23759         9.65126         0.89112
C          0.97546         8.93324         0.93500
C          2.06818         9.40396         1.70322
C          3.24514         8.65150         1.82465
C          4.34207         9.11657         2.62830
C          5.49800         8.38366         2.73479
C        -11.20987        -0.64946         0.01326
C         -9.93607        -1.38511         0.10191
C         -8.00867        -0.23135         1.60755
C         -7.05119        -1.12675         0.92505
C         -5.95843        -0.55412         0.22908
C         -4.86539        -1.38076        -0.13047
C         -3.71965        -0.79708        -0.86852
C         -2.41017        -1.48737        -0.75479
C         -1.19421        -0.78328        -1.21455
C          0.09846        -1.44254        -0.97411
C          1.30145        -0.71747        -1.14895
C          2.54128        -1.43699        -1.05383
C          3.81229        -0.69205        -0.89972
C          5.14877        -1.40975        -0.84768
C          6.38611        -0.64806        -1.00228
C          7.66072        -1.37676        -1.11670
C          8.95855        -0.61789        -0.81195
C         10.05183        -1.44813        -0.26309
C         11.06266        -0.81293         0.53632
C         -9.73160        -2.47439         0.91360
C         -8.47205        -3.20786         1.12740
C         -7.17218        -2.52625         1.01585
C         -5.97855        -3.29037         0.89125
C         -4.81678        -2.72351         0.31928
C         -3.64759        -3.55942        -0.23444
C         -2.35358        -2.77977        -0.30167
C         -1.08755        -3.48692        -0.18866
C          0.11211        -2.80831        -0.59217
C          1.34590        -3.52093        -0.58259
C          2.55637        -2.82372        -0.86913
C          3.81630        -3.58290        -1.13517
C          5.11983        -2.85246        -1.23100
C          6.42585        -3.59640        -1.25402
C          7.66031        -2.85194        -0.99204
C          8.84320        -3.55466        -0.73797
C         10.02662        -2.82494        -0.36536
C         -8.50659        -4.58272         1.27633
C         -7.30920        -5.37917         1.47832
C         -6.10982        -4.50473         1.79443
C         -4.60395        -5.71575         0.45478
C         -3.50926        -4.90280         0.43141
C         -2.21383        -5.31898         1.11223
C         -1.02021        -4.78788         0.33516
C          0.21005        -5.51025         0.32361
C          1.36249        -4.88838        -0.19288
C          2.67937        -5.55136        -0.07377
C          3.80014        -5.10857        -1.00125
C          5.13860        -5.75668        -0.63895
C          6.40860        -5.10673        -1.00855
C          7.67809        -5.73925        -0.59313
C          8.83834        -4.98651        -0.57552
C         -7.26784        -6.73702         1.27007
C         -6.04380        -7.55697         1.52147
C         -4.70247        -6.90041         1.35163
C         -3.41735        -7.65366         1.51870
C         -2.16219        -6.86247         1.29924
C         -0.96490        -7.62839         0.90529
C          0.24178        -6.94260         0.64855
C          1.44560        -7.67918         0.56915
C          2.71584        -6.95978         0.44061
C          3.98976        -7.73304         0.35822
C          5.19110        -7.04500        -0.15729
C          6.43390        -7.80602        -0.16714
C          7.64039        -7.14740        -0.32029
C         -5.99454        -9.02876         1.29790
C         -4.84171        -9.71390         1.14954
C         -3.47237        -9.18259         1.53451
C         -2.26532        -9.76487         0.84608
C         -1.03956        -9.06568         0.77872
C          0.16398        -9.77044         0.49667
C          1.42367        -9.11937         0.47157
C          2.61163        -9.86217         0.27710
C          3.93589        -9.24604         0.34498
C          5.17579        -9.93674        -0.06640
C          6.34764        -9.25937        -0.16780
O         -6.99565         5.28768        -2.73957
H         -6.40287         4.94777        -3.44064
O          4.01669         4.82981        -1.80625
O         -6.81369         5.16917         0.87613
H         -7.36482         5.54919         1.59223
O         -2.10712        -4.70291         2.41164
H         -2.63847        -5.25242         3.03430
O          9.67003         1.42783        -1.81265
H          9.33049         0.91740        -2.58235
O         -7.07942         2.69981        -2.17858
O          1.97649         5.54774        -2.48291
O         -4.94356         6.83240        -2.33932
O         -2.63814        -7.18354         2.66978
O         -8.60044        -0.53856         2.64200
O         -3.29616        -9.62906         2.91414
H         -2.80123        -8.90823         3.37439
O         -4.00546        -0.27511        -2.20147
O          1.80527         4.69057         1.03385
H          2.22666         5.02819         1.85277
O         -9.50476         1.53589         1.07752
O          4.34264        -3.13244        -2.43969
O          2.97238        -5.79264         1.33041
O         -0.64072         5.83554        -2.55088
O          8.59366        -0.93946        -2.18745
O         -5.47894        -4.50146         2.83437
O          3.37146         1.03398        -2.58752
O         -1.28453        -0.23642        -2.58105
O          6.48049        -4.54621        -2.36416
O         -4.02753        -3.80180        -1.64133
H         -4.08165        -2.93407        -2.10051
O         -5.57914        -5.61212        -0.49835
H         -5.28577        -4.93026        -1.16022
O          4.19682        -8.47100         1.59921
O         -5.35031        -6.93875         2.66289
O          8.59270         3.66261        -0.53813
O         -8.96424        -0.96125        -0.76408
H         -9.29265        -0.20824        -1.29572
O          6.69343         5.88147        -1.04718
H          6.04311         5.77373        -1.77768
O          3.44352        -5.63763        -2.30316
H          3.95342        -5.11310        -2.96446
O          4.42395        -1.03901         0.39327
O         -1.32376         3.46850        -3.21251
H         -0.76217         4.19071        -3.58184
O          0.25163         8.16833        -1.86422
H         -0.02856         7.66907        -2.66653
O         -4.33817         8.42374         1.87921
H         -3.54234         7.99363         2.25912
H         11.90350        -1.42371         0.89569
H         11.64524         0.87506         1.69266
H         10.39273         2.69530         2.12562
H          8.69407         4.71784         2.64976
H          7.58094         6.68546         2.87940
H          6.32776         8.74328         3.36032
H          4.23574        10.07052         3.16463
H          1.98406        10.36952         2.22388
H         -0.29934        10.63219         1.38526
H         -2.67293        10.61238         1.25085
H         -5.04017        10.89922         0.29165
H         -7.14975         9.88972        -0.53836
H         -8.41596         7.56670        -0.13344
H         -9.65017         5.51011        -0.56421
H        -10.65617         2.97779        -1.76059
H        -12.36584         1.07327        -0.39109
H        -12.12956        -1.25454         0.07668
H        -10.60024        -2.82946         1.48749
H         -9.47371        -5.10662         1.21504
H         -8.18850        -7.26111         0.96374
H         -6.94989        -9.53902         1.09518
H         -4.89337       -10.78846         0.91382
H         -2.23389       -10.85953         0.72569
H          0.12464       -10.86253         0.37368
H          2.53811       -10.94195         0.08122
H          5.15261       -11.02915        -0.19418
H          7.27658        -9.81246        -0.37371
H          8.58655        -7.70640        -0.26686
H          9.78875        -5.47573        -0.31444
H         10.88249        -3.39835         0.02266
