         291
 CSIRO Nanostructure Databank - Neutral Graphene Oxide Data Set
C          1.17025         2.22086        -1.18818
C          1.13852         3.60881        -1.02865
C          2.34000         1.50606        -0.94617
C          2.28362         4.31012        -0.59480
C          1.13818         6.51021        -0.29930
C          1.14381         7.94961        -0.17882
C          2.28489         5.77238        -0.45590
C          2.27442         8.68644        -0.34146
C          1.07003        10.94435        -0.03515
C          1.06553        12.23543         0.31888
C          2.26589        10.20261        -0.59049
C          2.30195        13.06982         0.54723
C          1.38227        14.92639        -0.95675
C          1.48096        16.20495        -1.49264
C          2.51344        14.25251        -0.40232
C          2.72153        16.87306        -1.57536
C          2.85430        18.23988        -1.95819
C          3.50928         2.18292        -0.52557
C          3.46738         3.58921        -0.34275
C          4.74503         1.47564        -0.33065
C          4.65851         4.27950         0.26118
C          3.57441         6.46093        -0.38199
C          3.56517         7.96488        -0.71205
C          4.70066         5.76134        -0.04267
C          4.75350         8.63602         0.02127
C          3.59962        10.91499        -0.22206
C          3.52506        12.12460         0.71689
C          4.88562        10.14301        -0.17184
C          4.84249        12.89705         0.77252
C          3.77032        14.82616        -0.53648
C          3.92454        16.12129        -1.21468
C          4.95048        14.25138         0.15389
C          5.22882        16.94299        -0.96436
C          3.99714        18.97352        -1.71085
C          5.13808        18.41223        -1.03132
C          5.95376         2.14250        -0.12289
C          5.97322         3.55268         0.01277
C          7.23084         1.31427        -0.04334
C          7.20968         4.26374         0.15651
C          5.96877         6.44567         0.42231
C          6.05378         7.83378        -0.25011
C          7.24628         5.63924         0.25611
C          7.34993         8.59409         0.06089
C          6.11342        10.71603         0.45360
C          6.07871        12.07499         1.12071
C          7.29288        10.01776         0.47942
C          7.38018        12.80637         0.90933
C          6.32357        14.82765        -0.15392
C          6.29812        16.33878        -0.14187
C          7.39683        14.25049         0.73440
C          7.23126        17.09957         0.47869
C          6.08446        19.17910        -0.39443
C          7.17243        18.61214         0.48266
C          8.46549         2.13377        -0.43886
C          8.49286         3.46159         0.35931
C          9.78354         1.38136        -0.32608
C          9.74363         4.25620         0.03097
C          8.49252         6.34210         0.75840
C          8.57238         7.80865         0.40313
C          9.80564         5.67185         0.44769
C          9.80579         8.50524         0.84440
C          8.54969        10.65352         0.87753
C          8.55071        12.10233         0.99136
C          9.74447         9.93669         0.93016
C          9.83572        12.89090         0.89793
C          8.48088        14.99780         1.08679
C          8.44967        16.50741         1.14860
C          9.74663        14.31669         1.45170
C          9.71835        16.99326         0.37837
C          8.51319        19.19434         0.08412
C          9.70517        18.49035         0.10391
C         10.99887         2.01622        -0.24267
C         11.01036         3.50942        -0.18508
C         12.26649         1.32392        -0.36166
C         12.31362         4.26366         0.02805
C         10.98127         6.33136         0.72526
C         10.97928         7.76357         0.97186
C         12.22380         5.48877         1.06019
C         12.27515         8.48526         1.11575
C         11.02283        10.63997         1.20917
C         11.04226        12.11510         1.35212
C         12.24293         9.92734         0.64996
C         12.35428        12.85036         1.31311
C         11.03567        15.10362         1.50510
C         11.03185        16.59317         1.12142
C         12.35858        14.34471         1.46292
C         12.23677        16.97869         0.16856
C         10.94107        19.13911        -0.15120
C         12.20334        18.47860        -0.11617
C         13.49547         1.94380        -0.15803
C         13.46548         3.33021         0.50616
C         14.75968         1.30857        -0.39276
C         14.79781         4.04304         0.15734
C         13.59321         6.24675         0.97321
C         13.58759         7.75551         0.96750
C         14.84135         5.52568         0.55205
C         14.76263         8.52196         0.49396
C         13.55459        10.65251         0.78667
C         13.52809        12.16198         0.62149
C         14.73223         9.93955         0.53436
C         14.86091        12.79895         1.09566
C         13.67568        15.13160         1.33808
C         13.60354        16.53204         0.70742
C         14.81583        14.28961         0.81746
C         14.79880        17.13615         0.03732
C         13.35837        19.15283        -0.45747
C         14.70762        18.49852        -0.67364
C         16.00799         1.87563        -0.01254
C         15.83794         3.12262         0.81705
C         17.28958         1.37408        -0.29315
C         17.56445         4.32165        -0.57852
C         15.97807         6.33007        -0.11130
C         16.08205         7.78700         0.41081
C         17.33262         5.61865         0.17315
C         17.27128         8.48165        -0.35516
C         15.94723        10.70141         0.10365
C         16.03015        12.21871         0.27833
C         17.21479         9.99826        -0.23702
C         17.38304        12.78728         0.79177
C         15.95583        14.89207         0.32686
C         15.87531        16.17110        -0.48034
C         17.23318        14.27439         0.52013
C         17.27546        16.71104        -0.85237
C         15.84560        19.33228        -0.06156
C         17.13702        19.20463        -0.32582
C         18.53369         2.07921        -0.06033
C         18.58628         3.47662         0.08237
C         19.80308         1.38483        -0.17838
C         19.79945         4.21072         0.48761
C         18.64898         6.39325        -0.19597
C         18.55105         7.84698         0.10395
C         19.83350         5.75885         0.55669
C         19.82242         8.61917         0.30673
C         18.49173        10.74835        -0.21110
C         18.59704        12.09384         0.09579
C         19.70726         9.92977        -0.48320
C         19.85561        12.75510        -0.18570
C         18.31900        15.15595         0.65143
C         18.39711        16.41477         0.05851
C         20.15860        14.05458         0.22663
C         19.71118        17.11601        -0.01417
C         18.39453        19.39759        -0.70206
C         19.64876        18.63895        -0.38630
C         20.99526         2.04712        -0.18060
C         21.11056         3.45010         0.24569
C         22.28904         4.26462        -0.12339
C         21.10483         6.44058         0.04869
C         21.08102         7.82136        -0.06241
C         22.26839         5.62023        -0.22599
C         22.25684         8.63121        -0.35803
C         20.92641        10.62048        -0.98738
C         20.73927        12.13500        -1.27333
C         22.21399         9.94572        -0.70444
C         22.01453        12.91860        -1.47427
C         21.09239        14.92102        -0.40052
C         20.98513        16.36805        -0.30859
C         22.10892        14.24270        -1.17912
C         22.10536        17.13326        -0.63998
C         20.85495        19.19306        -0.99796
C         22.03926        18.50553        -0.98943
O         11.00171        11.26371         2.53227
O         12.12981        16.26708        -1.03708
O         16.23905         3.21050         1.95464
O         20.55536         3.65308         1.59806
O         10.30456        14.76154         2.72869
O         14.52766        17.40681         1.45181
O          2.09312        13.70500         1.84298
O         17.46521        17.10838        -2.00368
O          4.51004        10.91168        -1.36168
O          8.33868         8.24291        -0.98394
O         19.44231        14.61910         1.30441
O         13.08345         8.26571         2.28465
O         12.55579        13.44992         2.61476
O         11.97574         5.05574         2.34325
O         10.26301         4.07132        -1.35235
O          5.00068        16.24781        -2.21083
O         19.84764        18.17397         0.98053
O         16.26999        10.42460        -1.31352
O         14.59657         5.77348         1.95382
O         20.07477         9.79533        -1.88935
O         18.94046         6.22125        -1.60217
H         18.32309         6.81147        -2.10340
O         17.20970         8.20328        -1.77480
H         16.44575         8.70573        -2.14140
O          3.64431         8.11311        -2.14949
H          4.56044         7.85791        -2.42373
O          8.40452         6.30895         2.21557
H          8.63125         5.39630         2.50568
O         13.36236         3.03213         1.88412
H         13.02050         3.83253         2.39302
O         16.51384         7.77862         1.79653
H         15.79191         7.34349         2.32094
O          6.89265        19.06135         1.84290
H          7.44985        18.50773         2.44375
O          7.39160         0.82327         1.30026
H          6.58233         0.33182         1.55059
O          6.08799         7.53365        -1.66827
H          7.03329         7.61375        -1.95539
O          4.38948         8.63655         1.42228
H          4.72838         7.82244         1.87312
O         15.67597         6.37260        -1.50859
H         15.93978         5.49700        -1.89610
O         15.03480        12.49367         2.47519
H         14.31565        12.95312         2.97689
O         17.39682         5.30974         1.56041
H         17.41703         6.15281         2.07027
O         12.63135         4.89379        -1.22585
H         11.78765         4.92185        -1.74648
O         19.94874         8.98983         1.70879
H         19.89982         8.14603         2.21986
O         17.58129        12.53284         2.18618
H         18.33578        13.08509         2.48587
O         14.95258         3.87697        -1.26004
H         14.14076         4.22420        -1.70500
O         11.13384        17.37632         2.31637
H         11.79714        16.96210         2.90888
O         20.02262        12.25181        -2.52964
H         19.70734        11.34092        -2.75751
O          9.61938        16.28811        -0.86799
H         10.55327        16.25095        -1.26638
O         13.29413        12.39122        -0.79504
H         14.16454        12.62907        -1.21889
O         15.32851        15.73786        -1.75648
H         15.89022        16.16921        -2.44888
O          4.48473         4.19096         1.74312
H          4.37004         3.24158         1.96513
O         14.88465        18.37658        -2.08831
H         14.20449        17.74889        -2.41624
O          8.47855        16.92643         2.52334
H          9.20295        16.42402         2.97246
O          2.09781        10.32741        -2.02492
H          2.77544         9.73563        -2.43925
O         10.09940        13.09628        -0.52621
H          9.41449        13.70107        -0.88762
O         19.74670         6.13566         1.95726
H         20.10676         5.37629         2.47339
O          8.25216         2.42677        -1.83776
H          8.99637         3.00693        -2.13171
O         17.22788         4.12043        -1.74084
O          6.00334        11.79660         2.54725
H          5.09502        11.43958         2.71301
O         12.01555         9.87444        -0.79411
H         12.19678        10.77813        -1.15463
O          4.72782        14.10236         1.60764
H          2.93077        14.19414         2.05063
O          8.59595         3.19663         1.77884
H          8.12840         2.34693         1.97161
O         14.04214        15.35217         2.73702
H         14.68056        16.10526         2.74934
O          6.68088        14.37037        -1.48496
H          7.34013        14.99201        -1.86030
O          5.85176         6.56818         1.87124
H          5.53031         5.69381         2.20412
O          3.34576        11.50636         2.02129
H          2.77828        12.12831         2.54213
O         15.88450        12.78834        -1.05124
H         16.28830        12.14877        -1.68966
H          0.26670         1.69215        -1.52235
H          0.21265         4.15650        -1.25249
H          2.36741         0.41681        -1.09171
H          0.16286         6.00408        -0.25351
H          0.17449         8.43649         0.00340
H          0.09997        10.42849        -0.10656
H          0.11397        12.70256         0.61865
H          0.39685        14.44498        -0.89206
H          0.57126        16.72431        -1.82756
H          1.97225        18.74984        -2.37320
H          4.74766         0.38217        -0.46004
H          3.99907        20.05258        -1.92382
H          7.13845         0.43317        -0.73759
H          6.01101        20.27677        -0.44682
H          9.75965         0.28740        -0.45500
H          8.53703        20.26942        -0.16056
H         12.23458         0.25320        -0.62052
H         10.92407        20.21761        -0.38358
H         14.75871         0.37202        -0.97695
H         13.27977        20.21488        -0.74669
H         17.37247         0.35261        -0.70364
H         15.55902        19.93208         0.82281
H         19.78005         0.31437        -0.43302
H         18.55669        20.21356        -1.43427
H         21.91485         1.51949        -0.47609
H         23.20638         3.72170        -0.39892
H         23.18730         6.12655        -0.55825
H         23.24483         8.15602        -0.25580
H         23.15008        10.50580        -0.84800
H         22.80115        12.45033        -2.08502
H         22.98651        14.80718        -1.52788
H         23.08241        16.63761        -0.73033
H         20.79627        20.18082        -1.47906
H         22.95002        18.98577        -1.37444
