         276
 CSIRO Nanostructure Databank - Neutral Graphene Oxide Data Set
C        -11.22731         0.70145        -0.10382
C        -10.05062         1.57286        -0.54580
C         -8.82848         0.80233        -0.04269
C         -7.70351         1.41011         0.73803
C         -6.39359         0.58034         1.00936
C         -5.13204         1.44014         1.21755
C         -3.77828         0.76688         1.12353
C         -2.58353         1.46764         1.72730
C         -1.26295         0.69830         1.77140
C          0.04946         1.40677         1.54998
C          1.32291         0.61283         1.36372
C          2.61643         1.31226         1.05006
C          3.84947         0.82096         1.82333
C          5.19385         1.48345         1.45960
C          6.51670         0.76167         1.40544
C          7.72617         1.49122         0.84767
C          8.96683         0.77443         0.43929
C          9.83523         1.42619        -0.65175
C         11.16566         0.71922        -0.79789
C        -10.04813         3.00364        -0.08726
C         -8.92676         3.65217         0.37402
C         -7.75772         2.91783         1.01806
C         -6.44347         3.59748         0.60007
C         -5.19041         2.93660         1.20941
C         -3.90264         3.78410         1.34213
C         -2.59194         2.95645         1.47887
C         -1.31891         3.53372         0.90193
C         -0.01962         2.79312         0.95397
C          1.26524         3.54278         0.65709
C          2.56426         2.78866         0.66968
C          3.86102         3.57755         0.58921
C          5.13907         2.95091         1.04018
C          6.37727         3.66041         0.60606
C          7.50681         2.79412         0.07797
C          8.79768         3.58963        -0.05119
C          9.91435         2.92856        -0.41674
C         -8.86412         5.08072         0.30887
C         -7.66795         5.83692         0.38069
C         -6.42903         5.13818         0.91778
C         -5.15193         5.76386         0.34967
C         -3.88427         4.98388         0.40429
C         -2.57485         5.67243         0.17369
C         -1.28916         4.96793         0.41480
C         -0.03266         5.78961         0.56633
C          1.27545         5.05999         0.75410
C          2.58050         5.88138         0.51850
C          3.86655         5.05997         0.33499
C          5.16312         5.86459         0.15882
C          6.48068         5.10794         0.15017
C          7.47460         5.50562        -0.91670
C          8.60330         5.08224        -0.00329
C         -7.62496         7.18410         0.03623
C         -6.39819         7.99903         0.17283
C         -5.10454         7.26032         0.34928
C         -3.81077         7.94843         0.01278
C         -2.55285         7.15659        -0.03478
C         -1.31180         7.70835        -0.70375
C         -0.03924         7.28914         0.10303
C          1.12673         7.57510        -0.84123
C          2.40021         6.81715        -0.68833
C          3.63223         7.38988        -1.32829
C          4.99421         6.90905        -0.92035
C          6.07274         7.28698        -1.93816
C          7.40275         6.64919        -1.62882
C         -6.28978         9.40851        -0.30488
C         -5.12380         9.96717        -0.68048
C         -3.86145         9.15648        -0.90276
C         -2.54825         9.89491        -0.88539
C         -1.32852         9.20536        -0.93215
C         -0.06851         9.78860        -1.15704
C          1.09955         8.94526        -1.58401
C          2.42094         9.64470        -1.45218
C          3.62593         8.90330        -1.72474
C          4.96848         9.53244        -1.83533
C          6.09699         8.81139        -1.97320
C        -11.18594        -0.63192        -0.26871
C        -10.02766        -1.26485        -1.01099
C         -8.70976        -0.57178        -0.63874
C         -7.44526        -1.32412        -0.41713
C         -6.20711        -0.57412         0.02942
C         -4.87973        -1.27271        -0.05031
C         -3.65177        -0.62214         0.57172
C         -2.50504        -1.48707         1.03990
C         -1.30960        -0.80874         1.63523
C          0.00888        -1.53988         1.79438
C          1.30867        -0.78594         1.93855
C          2.63780        -1.51704         1.98335
C          3.93195        -0.73712         1.96182
C          5.23340        -1.50242         1.71032
C          6.54780        -0.74549         1.44297
C          7.76036        -1.46264         0.91329
C          9.03004        -0.72177         0.55522
C         10.19043        -1.44016        -0.04313
C         11.27702        -0.60939        -0.64888
C         -9.88854        -2.76418        -1.05869
C         -8.66875        -3.42219        -1.05303
C         -7.45785        -2.82834        -0.35844
C         -6.11862        -3.45231        -0.69314
C         -4.84245        -2.75927        -0.35333
C         -3.75734        -3.56214         0.35309
C         -2.39154        -2.86005         0.35159
C         -1.16880        -3.69057         0.84710
C          0.04717        -2.99931         1.42294
C          1.27262        -3.78023         1.85146
C          2.58598        -3.03288         1.89884
C          3.87456        -3.77595         1.57303
C          5.17044        -2.98532         1.42599
C          6.24518        -3.53349         0.49400
C          7.53700        -2.79754         0.25852
C          8.70694        -3.54185        -0.30877
C         10.09718        -2.91114        -0.42940
C         -8.52018        -4.74726        -1.53050
C         -7.36338        -5.51678        -1.23747
C         -6.33705        -4.89775        -0.29943
C         -5.02246        -5.70397        -0.29513
C         -3.89532        -5.05103         0.52415
C         -2.65826        -5.86902         0.92609
C         -1.33124        -5.17381         1.15509
C         -0.04317        -5.98128         1.28369
C          1.25597        -5.26832         1.52519
C          2.45572        -5.78388         0.75791
C          3.80571        -5.18992         1.06229
C          5.04090        -5.83331         0.45708
C          6.25821        -5.00823         0.18787
C          7.20982        -5.47231        -0.90721
C          8.54717        -4.78627        -0.80841
C         -7.19931        -6.78633        -1.74208
C         -6.33042        -7.81354        -1.07476
C         -5.18528        -7.22583        -0.21128
C         -3.89958        -7.98059        -0.02532
C         -2.73158        -7.43192         0.84085
C         -1.35997        -8.11507         0.52687
C         -0.04805        -7.42421         0.79989
C          1.31060        -8.07489         0.39460
C          2.35020        -7.03575        -0.04418
C          3.57293        -7.61610        -0.71003
C          4.91555        -7.19011        -0.20026
C          6.12643        -7.80964        -0.89265
C          7.29274        -6.97301        -1.07344
C         -5.89388        -8.93734        -1.98385
C         -4.68430        -9.50309        -1.92961
C         -3.52246        -8.87497        -1.20957
C         -2.38425        -9.81597        -0.95400
C         -1.31196        -9.37560        -0.27505
C         -0.01211       -10.15719        -0.25008
C          1.16416        -9.24978        -0.56766
C          2.16987        -9.63555        -1.38278
C          3.44986        -8.88597        -1.48509
C          4.70102        -9.58191        -1.89113
C          5.91482        -9.02132        -1.73064
O         -8.82133         0.76776         1.43297
O          4.01342        -4.91747         2.46782
O         -1.86585         5.00384        -0.94301
O          2.01557        -5.76141        -0.66246
O          7.55401        -1.31242         2.33855
O          3.91766         4.12853        -0.77757
O          1.39444         6.40395        -1.67173
O         -3.29239         0.52518        -0.25275
O          3.33909        -1.13638         3.21353
O         -0.86628         2.71902        -0.23578
O         -4.64394         5.07303        -0.84321
O          7.02695         2.44578        -1.21539
O         -7.78397        -0.77304        -1.74128
O         -5.02539        -8.12928         0.90301
O         -2.33848        -1.45177         2.47464
O          3.44072         7.77185        -2.68721
O         -5.35138        -0.40241        -1.11793
O          0.61311        -5.98133         2.59824
O          5.53410        -2.49707         2.73305
O          0.52933         5.57197         1.89403
O          0.53778        -1.15170         3.09927
O         -2.23488        -5.43109         2.25303
O          7.65030         5.48396         1.09248
O         -0.05358        -3.31159        -0.02329
O         -6.94158        -4.70749         1.02661
O         -0.46204         1.20920         2.88321
O         -2.63540         2.38769         2.82976
O          1.88336        -8.65582         1.52695
O          5.22882         7.25950         0.49060
O          5.68134        -8.16192         0.51849
O         -4.28191        -4.12811         1.57799
O         -6.38821         5.31287         2.32855
O          1.96290         0.49983         0.04260
O          1.90102        -3.51501         3.10820
O          6.04793         1.34000         2.64796
O          6.40567        -2.71098        -0.70247
O         -0.65554        -8.28865         1.79702
O         -5.36834         2.19752         2.45361
O         -5.21566        -3.08154        -1.74917
O         -2.87313         7.97310         1.13488
O         -7.52518        -3.30819         1.04441
O          8.89463         1.48598         1.70937
O          5.95072         3.70946         1.99260
O         -5.75544         7.83899         1.50705
O         10.12792        -1.21467         1.40105
O          1.81975         3.00934        -0.56463
O          3.39644        -7.56144        -2.16117
O          6.18831        -5.82345         1.36824
O          5.64697         6.77489        -3.22320
H          6.42751         6.73427        -3.81254
O         -0.06378       -11.26764        -1.13443
H         -0.20525       -10.93653        -2.04476
O        -10.26151        -0.94245        -2.42940
H         -9.41327        -1.13600        -2.89415
O          2.80703         6.69707         1.66817
H          1.93757         6.91851         2.07766
O         -1.10525         7.05118        -2.08945
H         -1.58098         6.15439        -2.10190
O         -6.46649         3.30073        -0.80693
H         -5.75377         3.80514        -1.26992
O         -8.74443         4.24971         2.79492
H         -7.31304         5.16439         2.69119
O         10.55693        -3.07600        -1.77810
H         10.09848        -2.42473        -2.34840
O         -6.58045        -0.10227         2.26309
H         -6.45560         0.54119         2.99532
O          0.06811         8.12193         1.25043
H         -0.81670         8.22334         1.66770
O         -2.19992        -2.58620        -1.04812
H         -1.23072        -2.55272        -1.23048
O          9.17923         1.18308        -1.92351
H          8.30623         1.68943        -1.91336
O         -4.54200        -5.63161        -1.68095
H         -4.59023        -4.69055        -2.00230
O         -7.27687        -8.44101        -0.15367
H         -6.74555        -8.75821         0.61659
O         -4.03046         8.54305        -2.23549
H         -4.02566         9.26543        -2.89902
O          0.91672         8.62823        -3.03831
H          1.70194         8.06942        -3.28438
O        -10.03090         1.67936        -1.98059
H        -10.25719         0.79152        -2.36658
O         -3.06531        -7.85664         2.16471
H         -2.26916        -7.71890         2.72851
O         -1.56262         7.85731        -3.17125
H         -0.69236         8.35198        -3.39557
O         -2.94751        -7.89618        -2.15120
H         -3.62490        -7.19827        -2.32653
O         -3.98418         4.47136         2.60763
H         -4.12260         3.79424         3.30856
O         -8.00006         2.99873         2.49151
H         -8.66471         2.28297         2.68203
O          3.53800         1.35047         3.12794
H          4.31572         1.18539         3.71030
O          6.58870        -5.06096        -2.17076
H          7.28958        -4.97082        -2.85036
H         12.23154        -1.11679        -0.85683
H         12.01731         1.29995        -1.18518
H         10.86112         3.45927        -0.60898
H          9.53916         5.68442         0.00162
H          8.30650         7.07686        -2.09159
H          7.06259         9.32705        -2.09109
H          5.00736        10.63241        -1.83482
H          2.47607        10.68474        -1.10429
H         -0.02847        10.85851        -1.40460
H         -2.54438        10.97470        -1.08904
H         -5.10288        11.02929        -0.97067
H         -7.19892        10.02795        -0.25425
H         -8.54032         7.67545        -0.32745
H         -9.78121         5.60189        -0.00879
H        -10.86303         3.62681        -0.48855
H        -12.09397         1.17583         0.38077
H        -12.02715        -1.26545         0.04910
H        -10.75486        -3.30311        -1.47436
H         -9.34262        -5.21334        -2.09204
H         -7.95958        -7.17215        -2.44007
H         -6.68958        -9.39942        -2.58861
H         -4.46184       -10.38333        -2.55310
H         -2.34255       -10.76822        -1.50404
H          0.15710       -10.55108         0.78573
H          2.08438       -10.58360        -1.93813
H          4.60175       -10.52810        -2.44425
H          6.81105        -9.51319        -2.13816
H          8.00562        -7.30585        -1.84897
H          9.41619        -5.29232        -1.25819
H         10.80265        -3.49290         0.21866
