         621
 CSIRO Nanostructure Databank - Neutral Graphene Oxide Data Set
C          5.97953        31.81006        -1.46275
C          6.00238        33.16625        -1.58347
C          8.25401        27.40981        -0.99280
C          8.03727        28.71536        -1.44206
C          6.99889        29.62890        -1.18457
C          8.42693        31.73354        -1.08636
C          7.18434        31.03302        -1.29027
C          8.40045        33.17027        -0.94674
C          7.21250        33.89987        -1.33498
C          8.36168        36.03222        -1.00864
C          7.21749        35.28873        -1.39458
C          8.36129        37.43699        -1.09723
C         10.64810        23.16407        -0.38987
C         10.72380        24.64886        -0.65313
C          9.55544        25.37602        -0.78082
C         10.80525        27.49089        -0.92458
C          9.54000        26.78930        -0.97862
C         10.92387        28.92327        -0.86503
C          9.89814        29.76268        -1.32454
C         10.80983        31.71697        -0.22487
C          9.69664        31.08685        -0.88987
C         10.61467        33.13494         0.29268
C          9.51086        33.87378        -0.45157
C         10.57847        36.01701         0.06802
C          9.49765        35.30180        -0.46979
C         10.54166        37.49262         0.05343
C          9.45014        38.21563        -0.64626
C         10.67812        40.38025        -0.48955
C          9.49176        39.61669        -0.73495
C         10.74893        41.76808        -0.49865
C         13.18580        18.91872        -0.01173
C         13.14317        20.26699        -0.40196
C         11.95515        21.04664        -0.40912
C         13.16376        23.17970        -0.74040
C         11.96151        22.43548        -0.56799
C         13.20707        24.58874        -0.66520
C         11.97797        25.32655        -0.65765
C         13.24092        27.42757        -0.44949
C         11.99707        26.74565        -0.70494
C         13.23149        28.80241        -0.08469
C         12.06208        29.56486        -0.26324
C         13.11308        31.62556         0.72956
C         11.95909        30.97581         0.05082
C         13.12133        33.13903         0.86642
C         11.89398        33.94379         0.48762
C         12.81291        36.22635         1.04526
C         11.75180        35.34008         0.56672
C         13.06241        37.50150         0.60324
C         11.84287        38.24881         0.23036
C         13.25029        40.32009        -0.20970
C         11.93872        39.60361        -0.36015
C         13.21893        41.78369        -0.18179
C         11.98774        42.49288        -0.31723
C         13.24191        44.62630        -0.10401
C         12.02231        43.90307        -0.24751
C         13.27474        46.04692        -0.02864
C         15.71302        14.72204         0.96847
C         15.66326        16.07549         0.62370
C         14.44685        16.81120         0.43305
C         15.66999        18.91383        -0.08709
C         14.39461        18.17055         0.09310
C         15.67844        20.32696        -0.55474
C         14.36908        20.95020        -0.86138
C         15.70707        23.17724        -0.98236
C         14.40792        22.45483        -1.02196
C         15.68613        24.58897        -0.90946
C         14.46864        25.29701        -0.73204
C         15.71433        27.45077        -0.45514
C         14.46916        26.71184        -0.52476
C         15.74618        28.75176         0.02026
C         14.45246        29.31540         0.63962
C         15.73809        31.55854         0.72124
C         14.43117        30.83982         0.81962
C         15.69207        33.00465         0.35155
C         14.47710        33.77044         0.73580
C         15.70904        35.96554         0.63739
C         14.64218        35.07125         1.09691
C         15.70896        37.45760         0.86997
C         14.36602        38.22588         0.77655
C         15.66970        40.30135         0.18231
C         14.44433        39.62285         0.30704
C         15.66064        41.71102        -0.06037
C         14.44948        42.46649        -0.05431
C         15.71704        44.60861        -0.00696
C         14.47626        43.90048        -0.05007
C         15.71495        46.02206         0.00157
C         14.49321        46.76002         0.02872
C         15.73766        48.91269         0.25067
C         14.54315        48.19287         0.18847
C         15.80612        50.28682         0.60669
C         18.17602        10.50696         1.77351
C         18.23375        11.80679         1.18390
C         17.02832        12.61059         1.28467
C         18.12908        14.61031         0.38557
C         16.93058        13.95412         0.94896
C         18.24992        16.08708         0.45095
C         16.94328        16.82521         0.51528
C         18.16872        18.76227        -0.70754
C         16.91445        18.11434        -0.23410
C         18.15439        20.19946        -1.16938
C         16.89284        20.99107        -1.13985
C         18.18778        23.17186        -1.05735
C         16.92919        22.47903        -1.08233
C         18.22763        24.56447        -1.05017
C         16.93634        25.31953        -1.34837
C         18.27591        27.44682        -0.59113
C         16.95493        26.79823        -0.94912
C         18.25389        28.79201         0.00872
C         17.01343        29.45975         0.15164
C         18.24531        31.54200         0.57009
C         17.02051        30.84698         0.45365
C         18.21516        33.02001         0.91908
C         17.00008        33.72920         0.32956
C         18.22221        35.99669         0.63097
C         16.98529        35.23510         0.31257
C         18.19226        37.45970         0.39209
C         16.96071        38.16395         0.46314
C         18.14784        40.21151        -0.11560
C         16.93334        39.56028         0.21551
C         18.18321        41.65736        -0.44862
C         16.89826        42.44038        -0.36674
C         18.21202        44.53890        -0.05833
C         16.96107        43.89216        -0.11528
C         18.27157        46.02192         0.24620
C         16.99435        46.73176        -0.16275
C         18.30462        48.90216         0.24203
C         17.01367        48.23761        -0.07031
C         18.30442        50.25767         0.64916
C         17.02594        50.96390         0.78275
C         18.24435        53.06631         1.23881
C         17.04627        52.35600         1.03375
C         18.26058        54.46200         1.25564
C         20.91209         6.38965         2.57203
C         20.80830         7.69771         2.08720
C         19.55365         8.40092         2.31508
C         20.90947        10.42965         0.84272
C         19.14052         9.49033         1.54708
C         20.75315        11.83537         0.82188
C         19.45242        12.41635         0.71277
C         20.64919        14.61433         0.22955
C         19.42553        13.81827         0.26322
C         20.64845        15.98121        -0.12953
C         19.46036        16.72680        -0.08797
C         20.64430        18.72586        -1.01976
C         19.50042        18.23795        -0.15685
C         20.67464        20.13914        -1.47569
C         19.46063        20.91844        -1.03816
C         20.75506        23.10248        -1.20051
C         19.46510        22.40290        -0.95268
C         20.74943        24.52669        -0.88241
C         19.47919        25.25946        -0.80537
C         20.64202        27.20529         0.28007
C         19.48922        26.61652        -0.50250
C         20.71856        28.72029         0.24147
C         19.50378        29.45413         0.27732
C         20.72558        31.62961         0.94113
C         19.47565        30.86514         0.52699
C         20.75862        33.02267         0.34352
C         19.46820        33.75179         0.43864
C         20.79532        35.95522         0.52837
C         19.50049        35.22817         0.69554
C         20.73093        37.43600         0.23603
C         19.40857        38.12537         0.13840
C         20.60425        40.24683        -0.44532
C         19.36146        39.50524        -0.14061
C         20.61860        41.67047        -0.10245
C         19.44193        42.39241        -0.19273
C         20.71861        44.52368        -0.05348
C         19.41906        43.81759        -0.08569
C         20.77035        45.99714         0.10337
C         19.51710        46.73997        -0.31731
C         20.73527        48.86305         0.37351
C         19.51966        48.19721         0.12857
C         20.75568        50.24142         0.71992
C         19.52582        50.92180         0.88649
C         20.77337        53.09580         1.31112
C         19.51380        52.28911         1.52773
C         20.73981        54.45493         1.35936
C         19.48233        55.19615         1.29133
C         20.75022        57.27000         0.80884
C         19.51602        56.56080         1.03122
C         20.70881        58.52703         0.13444
C         23.48806         3.59763         2.77344
C         22.27246         4.24273         2.88589
C         23.35630         6.27036         1.74028
C         22.04811         5.53565         2.25625
C         23.30582         7.73236         1.72291
C         22.02743         8.38409         1.65597
C         23.20666        10.61313         1.62270
C         22.03007         9.78090         1.36509
C         23.19901        12.01724         1.18108
C         21.96605        12.61156         0.90680
C         23.18179        14.86698         0.56684
C         21.89073        14.06270         0.73374
C         23.16925        16.14311        -0.20203
C         21.89378        16.63281        -0.52632
C         23.49005        18.90571        -1.59589
C         21.65330        17.84406        -1.28505
C         23.29809        20.25763        -1.47659
C         21.97859        20.93225        -1.71043
C         23.15048        23.23427        -1.82893
C         21.91453        22.41921        -1.48797
C         23.19667        24.57960        -1.11565
C         21.95647        25.18035        -0.66972
C         23.27486        27.27597         0.01499
C         21.97890        26.51003        -0.00566
C         23.28808        28.74368         0.12425
C         22.01624        29.38114         0.52316
C         23.29663        31.62142         0.50041
C         22.04125        30.87338         0.77914
C         23.28548        33.06371         0.32403
C         22.03076        33.79004         0.27744
C         23.17649        35.90635        -0.30211
C         21.99590        35.16814         0.15794
C         23.19142        37.40282        -0.32442
C         21.95253        38.09123        -0.25869
C         23.16714        40.29368        -0.29238
C         21.91519        39.52961        -0.52259
C         23.14699        41.57933         0.16737
C         21.84757        42.26206         0.52685
C         23.14825        44.41185         0.80741
C         21.95304        43.73527         0.21776
C         23.15565        45.89808         0.84423
C         21.93798        46.63063         0.38531
C         23.28431        48.77945         0.72859
C         22.00841        48.10876         0.30611
C         23.21205        50.22013         1.06118
C         22.02215        50.91356         0.97502
C         23.32649        53.03401         1.59113
C         22.08059        52.41687         0.96955
C         23.29516        54.51225         1.76000
C         21.99308        55.23975         1.53238
C         23.23041        57.40284         1.00182
C         21.97962        56.65150         1.11039
C         23.18100        58.69928         0.15111
C         21.86616        59.13957        -0.35638
C         23.00572        60.67748        -1.88553
C         21.82520        60.17810        -1.31596
C         24.64881         4.22646         2.26902
C         25.82609         6.33313         1.70416
C         24.64889         5.58940         1.91229
C         25.78925         7.74342         1.52487
C         24.52570         8.42787         1.64361
C         25.75342        10.63581         1.36479
C         24.55336         9.88729         1.73848
C         25.70491        12.03982         1.17677
C         24.43953        12.74377         1.07141
C         25.62728        14.84355         0.55511
C         24.42874        14.09791         0.65950
C         25.62925        16.24561         0.17697
C         24.45339        16.80948        -0.39335
C         25.80692        19.01605        -0.58750
C         24.62894        18.14061        -1.03519
C         25.62722        20.47546        -0.64969
C         24.45360        21.05113        -1.07772
C         25.70441        23.22293        -1.31866
C         24.49211        22.43317        -1.67369
C         25.62263        24.65754        -1.64896
C         24.37034        25.29597        -1.15599
C         25.76392        27.41778        -0.60133
C         24.51256        26.60002        -0.47648
C         25.74473        28.86245        -0.27221
C         24.49600        29.47140         0.09076
C         25.77083        31.58452         0.55322
C         24.48349        30.90167         0.34754
C         25.74115        33.13497         0.60479
C         24.48611        33.77611         0.21819
C         25.75422        36.00683        -0.16814
C         24.49734        35.15122        -0.31279
C         25.64540        37.34695        -0.97842
C         24.38063        38.08390        -0.57611
C         25.63855        40.18312        -0.01874
C         24.43220        39.59609        -0.71148
C         25.56983        41.47664         0.65831
C         24.37069        42.30554         0.50291
C         25.66040        44.35899         1.12908
C         24.42137        43.65460         0.80394
C         25.65381        45.82897         1.25450
C         24.46983        46.57132         0.99509
C         25.62794        48.63303         1.58161
C         24.47436        47.96989         1.11606
C         25.43116        50.00644         1.97486
C         24.41918        50.85148         1.54422
C         25.81865        52.97323         1.57331
C         24.51511        52.31251         1.68082
C         25.85680        54.45873         1.41794
C         24.59683        55.26152         1.61308
C         25.77455        57.26576         0.42464
C         24.55665        56.70861         1.17678
C         25.58742        58.41870        -0.46543
C         24.39244        59.09628        -0.60381
C         24.24788        60.13664        -1.57690
C         26.96901         8.49736         1.32068
C         28.15588        10.64970         0.91176
C         26.96921         9.91490         1.19450
C         28.18468        12.04805         0.90799
C         26.92839        12.76807         1.05356
C         27.89828        15.04449         1.30619
C         26.82569        14.19256         0.93816
C         27.98465        16.37684         0.98183
C         26.84445        17.03169         0.40289
C         28.03437        19.25364         0.55575
C         26.87855        18.42980         0.22528
C         28.05771        20.58582         0.14865
C         26.75745        21.32923        -0.10967
C         28.12922        23.36433        -0.94601
C         26.88078        22.63760        -0.86957
C         28.15264        24.68225        -1.46774
C         26.90048        25.42343        -1.73376
C         28.16788        27.66530        -1.40172
C         26.88047        26.90756        -1.45928
C         28.21949        28.94112        -0.65567
C         26.99459        29.56985        -0.25526
C         28.28570        31.59905         0.28151
C         27.04740        30.92012         0.21332
C         28.32558        33.08221         0.43277
C         27.03630        33.87398         0.43829
C         28.15151        35.53058        -0.95678
C         27.00053        35.14074        -0.33470
C         28.08801        37.68942        -1.05111
C         26.88264        38.20948        -0.71410
C         28.08026        40.23442         0.18402
C         26.84244        39.52822        -0.10687
C         28.11558        41.51422         0.67988
C         26.86645        42.18305         1.06550
C         28.11351        44.27539         1.69666
C         26.84785        43.65002         1.22876
C         28.09582        45.77001         1.88056
C         26.86040        46.52835         1.55792
C         28.18092        48.65746         1.70244
C         26.88572        47.94587         1.69822
C         28.24863        50.11274         1.49591
C         27.26784        50.97994         1.92703
C         28.17933        52.90877         0.73674
C         27.04999        52.31531         1.44840
C         28.09540        54.25113         0.31456
C         26.97620        55.06319         0.63933
C         26.89582        56.35861         0.15618
C         29.43486        12.70820         0.53472
C         30.65355        14.96762         0.49078
C         29.74142        13.98369         0.97438
C         30.52572        16.35471         0.72760
C         29.28920        17.04628         1.37049
C         30.56496        19.33418         0.98079
C         29.25543        18.58532         1.12555
C         30.57352        20.81775         0.68801
C         29.26591        21.45593         0.26899
C         30.56435        23.51386        -0.47532
C         29.31477        22.76707        -0.42260
C         30.68162        24.58232        -1.55813
C         29.41269        25.39755        -1.69624
C         30.71674        27.60938        -1.35356
C         29.44627        26.92509        -1.66732
C         30.72582        28.89032        -0.84418
C         29.46822        29.57820        -0.49275
C         30.80092        31.60055         0.11433
C         29.49394        30.91505        -0.02445
C         30.82204        33.11377         0.13376
C         29.53861        33.78516        -0.05581
C         30.68853        35.87667        -0.81144
C         29.46823        35.02310        -0.63698
C         30.66675        37.41899        -0.82968
C         29.37568        38.13088        -0.51489
C         30.60844        40.32682        -0.37102
C         29.37731        39.53041         0.01507
C         30.58725        41.73609         0.15789
C         29.46118        42.06688         1.11948
C         30.77360        44.23478         1.71975
C         29.42909        43.50876         1.64474
C         30.73970        45.75391         1.74245
C         29.43020        46.51390         1.89702
C         30.69099        48.70401         1.46958
C         29.37639        47.95912         1.60312
C         30.55846        50.00008         0.72108
C         29.38995        50.72642         0.82604
C         29.29373        52.10307         0.43628
C         31.64938        17.14091         0.41128
C         32.89043        19.18544         0.06757
C         31.74792        18.54202         0.55123
C         33.02466        20.59396        -0.03867
C         31.96025        21.48321         0.56858
C         33.11279        23.36527        -0.75523
C         31.91404        22.85657        -0.09597
C         33.11706        24.71546        -1.21324
C         31.93659        25.41162        -1.40179
C         33.24316        27.54185        -1.30774
C         31.97498        26.88018        -1.79141
C         33.23973        28.90920        -0.96658
C         32.00008        29.60006        -0.71127
C         33.27149        31.68950        -0.37989
C         32.04188        30.93832        -0.33029
C         33.29308        33.11487        -0.30596
C         32.04435        33.85152        -0.23108
C         33.19841        36.02297        -0.48992
C         31.96563        35.20213        -0.46910
C         33.02998        37.42906        -0.00883
C         31.87492        38.16299        -0.33252
C         33.00703        40.23089         0.42262
C         31.85190        39.54831        -0.01353
C         33.02157        41.71161         0.58414
C         31.75379        42.43396         0.14447
C         33.15042        44.40289         0.72395
C         31.99732        43.52190         1.14968
C         33.04737        45.77262         0.69325
C         31.87110        46.49811         1.11325
C         31.79667        47.84496         0.91929
C         34.18343        21.15516        -0.54334
C         35.55479        23.15491        -1.03892
C         34.31610        22.57126        -0.79621
C         35.69213        24.57483        -1.39673
C         34.40840        25.37360        -1.54475
C         35.69913        27.48258        -1.16767
C         34.45464        26.83414        -1.34699
C         35.71713        28.88715        -0.97746
C         34.48516        29.59029        -0.82805
C         35.73043        31.71349        -0.71513
C         34.49740        31.00105        -0.61682
C         35.71672        33.12726        -0.72455
C         34.50283        33.81287        -0.53426
C         35.82112        35.94261        -0.26377
C         34.50996        35.29605        -0.54732
C         35.97684        37.06599         0.48467
C         34.04963        38.11179         0.66427
C         35.54342        40.12382         0.58111
C         34.20699        39.50838         0.63209
C         35.54694        41.52036         0.36717
C         34.37055        42.32581         0.35509
C         34.36622        43.71924         0.37349
C         36.92649        25.33236        -1.16267
C         38.17164        27.45722        -1.02758
C         36.94472        26.72677        -1.14185
C         38.20588        28.85776        -0.96721
C         36.96400        29.59655        -0.92223
C         38.22172        31.72341        -0.88029
C         36.97339        31.00115        -0.85442
C         38.24271        33.12832        -0.92863
C         36.97324        33.85043        -1.03239
C         38.30723        36.05516        -0.56480
C         37.02482        35.37455        -0.86258
C         38.27392        37.40601        -0.14011
C         37.05315        38.01722         0.30479
C         36.79453        39.40468         0.45496
C         39.43457        29.58876        -0.92917
C         40.68558        31.74195        -0.90593
C         39.45829        30.98453        -0.89710
C         40.68920        33.11063        -0.89649
C         39.46560        33.87493        -0.89176
C         39.48487        35.28235        -0.73863
O         12.80181        39.69950        -1.52622
O         23.84451        10.40656         2.91721
O         18.53817        14.07741        -0.89617
O         19.93398        33.26938        -0.85238
O         19.56647        21.55918         0.27222
O         28.12024        36.57144        -1.88493
O         21.20015        39.92051        -1.77647
O         25.53121        55.08295         2.71580
O         28.65800        43.56723         2.87250
O         22.52570        55.00592         2.91114
O         14.29275        21.53998        -2.18278
O         26.14997        25.07050        -2.95337
O          9.04082        29.23733        -2.29211
O         23.23789        58.72800         1.60438
O         29.43713        38.41271         0.94489
O         15.07165        37.97679         2.05200
O         25.79944        18.30247        -1.89730
O         16.15282        35.74010        -0.75218
O         29.77425        21.54683         1.66730
O         22.86609        45.09770         2.06723
O         22.44584         5.60692         0.84487
O         10.86930        38.17111         1.32512
O         31.24501        23.85521         0.75987
O         34.97397        37.38200         1.39894
O         32.63606        42.37376         1.96492
O         22.16204        29.94503         1.91057
O         26.35585        50.51745         2.88659
O         29.44163        26.19866        -2.94183
O         28.92781        14.44168         2.02721
O         30.78268        36.67692        -2.05827
O         31.06095        44.97067         2.93145
O         22.45461        14.87380         1.84012
O         25.73211        32.34086         1.81028
O         35.06642        24.87516        -2.73520
O         25.52064        57.52518         1.86038
O         21.02035        36.90516         1.61318
O         17.02770        47.54866        -1.36777
O         15.83114        20.03043         0.87317
O         27.84976        33.76857         1.65139
O         16.42029        33.20661        -0.90490
O         36.89369        34.77211        -2.17546
O         22.56746        18.12884        -2.30190
O         13.70166        35.63525         1.94202
O         29.93633        19.17284         2.28620
O         19.86610         9.65716         0.33757
O         22.95908        48.57290        -0.71964
O         28.71273        46.19077         3.12809
O         21.65347        44.07921        -1.15208
O         12.81487        32.26248         2.02150
O         27.25621        27.76063        -2.56504
O         22.78615        26.55059         1.22381
O         25.56689        26.54357         0.57194
O         30.95002        32.34424         1.37289
O         33.92087        35.90594        -1.77234
O         18.79396        35.59275         1.91811
O         15.16281        31.23204         2.02838
O         17.48634        42.02324        -1.67521
O         17.78081        16.73780         1.71165
O         23.73958        35.32378        -1.53397
O         17.40849        20.42242        -2.39368
O         25.06609        22.24227        -2.97213
O         17.41643        17.89597        -1.60041
O         26.06030        41.45103         2.04610
O         17.68002        27.55435        -1.96572
O         21.15205        20.43856        -2.81112
O         30.56204        40.43185        -1.83068
H         30.88975        39.59384        -2.22225
O         19.48987        52.01391         2.97473
H         19.53904        52.87543         3.44186
O         14.38300        28.73750         1.97373
H         14.82414        29.37975         2.57848
O         20.58106        31.88571         2.37645
H         20.95390        31.09468         2.83712
O         23.00328        23.55521        -3.22928
H         23.79075        23.12733        -3.67711
O         16.82986        25.29814        -2.80944
H         17.35071        26.06904        -3.13782
O         19.45258        46.66824        -1.75338
H         20.27171        47.05576        -2.12456
O         32.02870        26.94593        -3.24887
H         31.13210        26.69192        -3.57919
O         29.41914        16.82788         2.78923
H         29.92648        17.59132         3.15464
O         26.32048        21.71689         1.24643
H         27.10176        22.06124         1.73159
O         32.40008        21.69652         1.93045
H         31.67292        22.18519         2.37926
O         30.81297        23.81812        -2.79063
H         30.64407        24.43180        -3.53923
O         22.26260        52.77138        -0.47348
H         22.77966        52.04955        -0.89328
O         31.09500        49.06273         2.84095
H         31.05021        48.24674         3.38516
O         18.38010        46.14661         1.69217
H         17.68406        45.59799         2.11028
O         20.29650        26.89181         1.66916
H         21.15252        26.85623         2.16181
O         18.09299        33.12880         2.34703
H         18.90913        32.73427         2.74288
O         29.82511        41.25912         2.27637
H         29.33375        41.62253         3.04817
O         10.11013        32.96347         1.66734
H         10.87143        32.61893         2.19730
O         24.59898        39.85390        -2.15528
H         23.70358        39.83709        -2.56056
O         25.79445        36.43843         1.21750
H         26.16998        35.72470         1.77695
O          9.62284        22.55129        -1.18186
H          9.89435        22.59569        -2.12159
O         21.68238        42.15328         1.97127
H         21.97953        41.26708         2.26530
O         25.55045        37.04830        -2.37847
H         25.37890        37.89629        -2.84449
O         19.65209        18.75148         1.18836
H         19.02466        18.25873         1.77041
H          5.03396        31.26388        -1.59329
H          5.08396        33.72493        -1.81376
H          7.40797        26.83826        -0.58216
H          6.00293        29.25867        -0.89696
H          6.30924        35.82363        -1.70906
H          7.48865        37.93907        -1.54141
H         10.32758        23.03275         0.68341
H          8.59553        24.83933        -0.75977
H          8.59248        40.14881        -1.08139
H          9.82482        42.35231        -0.62388
H         12.23890        18.41863         0.24394
H         10.99516        20.55465        -0.19217
H         11.07889        44.46529        -0.31812
H         12.32566        46.60343        -0.03589
H         14.77272        14.18950         1.17821
H         13.49737        16.27001         0.56677
H         13.59456        48.72571         0.35605
H         14.86787        50.84036         0.76583
H         17.33947        10.29934         2.45879
H         16.13153        12.10669         1.67697
H         16.09808        52.91480         0.99236
H         17.31857        55.01230         1.10647
H         20.07817         5.95997         3.14767
H         18.91257         8.04041         3.13426
H         18.57091        57.10087         0.87151
H         19.72718        58.92359        -0.16543
H         23.59047         2.58583         3.19180
H         21.46370         3.79742         3.48330
H         22.94021        61.47857        -2.63486
H         20.85077        60.56894        -1.64161
H         25.60492         3.68493         2.30343
H         26.79933         5.82048         1.72266
H         26.43126        58.69848        -1.11523
H         25.14673        60.49186        -2.10088
H         27.92758         7.96314         1.23987
H         29.08844        10.09467         0.73261
H         28.91711        54.68732        -0.27213
H         27.70822        56.73105        -0.48689
H         30.11512        12.17102        -0.14322
H         31.51932        14.63482        -0.10528
H         31.45907        50.45244         0.28001
H         30.15314        52.56088        -0.07576
H         32.54144        16.62045         0.02632
H         33.70846        18.56086        -0.32373
H         33.90041        46.36631         0.33058
H         32.65473        48.35936         0.45910
H         35.02175        20.49683        -0.81734
H         36.46595        22.54891        -0.92218
H         36.51390        42.03019         0.23032
H         35.29207        44.29650         0.23216
H         37.86142        24.77716        -0.99007
H         39.11880        26.89652        -1.02579
H         39.21084        37.98430        -0.12304
H         37.66395        40.06231         0.28050
H         40.38371        29.03186        -0.95112
H         41.63829        31.19213        -0.91740
H         41.64541        33.65446        -0.88847
H         40.46246        35.77408        -0.61565
