         334
 CSIRO Nanostructure Databank - Neutral Graphene Oxide Data Set
C         30.62258        56.94608         1.19786
C         30.62307        58.34091         1.40601
C         29.42091        59.08205         1.45555
C         30.60508        61.17776         1.81232
C         29.43941        60.49020         1.60788
C         33.03666        52.74507         0.38077
C         33.04145        54.13385         0.61835
C         31.83844        54.83341         0.85546
C         33.08832        56.94149         1.09720
C         31.83310        56.22833         1.06403
C         33.07767        58.34759         1.37855
C         31.88723        59.02208         1.55681
C         33.02408        61.15572         1.16431
C         31.92816        60.48559         1.95488
C         35.34686        48.59581        -0.85608
C         35.37101        49.99732        -0.59544
C         34.20767        50.66823        -0.20037
C         35.47387        52.77334        -0.02945
C         34.22258        52.05685         0.05409
C         35.48925        54.18120         0.23185
C         34.29251        54.85880         0.56051
C         35.53014        57.01069         0.68989
C         34.29454        56.26429         0.81571
C         35.57222        58.38340         0.98751
C         34.38283        59.08717         1.61189
C         35.45273        61.24450         0.84422
C         34.27122        60.54490         1.10250
C         37.73662        44.50684        -0.73572
C         37.73530        45.79836        -1.22568
C         36.42694        46.46202        -1.57704
C         37.70691        48.64204        -1.47700
C         36.48090        47.93669        -1.27717
C         37.78033        50.00932        -1.20790
C         36.61232        50.71277        -0.73037
C         37.99374        52.77471        -0.32223
C         36.65209        52.08467        -0.39944
C         37.89882        54.28373        -0.34470
C         36.71525        54.93182         0.04303
C         37.87747        57.11301        -0.07171
C         36.70654        56.35051         0.22368
C         37.86280        58.52710         0.14801
C         36.75369        59.12525         0.74480
C         38.00031        61.32453         0.81770
C         36.75847        60.57106         1.18411
C         40.12308        40.37946         0.46145
C         40.13934        41.70551        -0.06511
C         38.95500        42.45274        -0.13492
C         40.17936        44.42851        -0.96038
C         38.95437        43.79397        -0.58068
C         40.17088        45.77946        -1.42653
C         38.96007        46.46600        -1.53132
C         40.18146        48.63975        -2.10703
C         38.85092        47.87275        -2.11929
C         40.18185        50.08208        -1.74325
C         39.02982        50.73950        -1.40840
C         40.29967        52.93566        -1.26209
C         38.95398        52.25646        -1.40075
C         40.30544        54.35769        -0.99836
C         39.06373        55.04214        -0.64564
C         40.25294        57.24160        -0.98712
C         39.04576        56.44289        -0.53423
C         40.34099        58.60228        -0.28461
C         38.99874        59.36981        -0.39441
C         40.36467        61.40179         0.25690
C         39.09416        60.73502         0.25214
C         42.44859        36.32364         1.98052
C         42.47456        37.56361         1.35116
C         41.27080        38.31426         1.12566
C         42.56117        40.12253        -0.03110
C         41.28440        39.60365         0.58503
C         42.61948        41.61595        -0.23445
C         41.37886        42.32533        -0.47897
C         42.64957        44.27578        -1.34218
C         41.38304        43.65912        -0.91409
C         42.71444        45.73626        -1.51960
C         41.43697        46.34942        -2.05535
C         42.77580        48.56095        -1.78433
C         41.48370        47.87665        -2.08934
C         42.78883        50.05050        -1.82929
C         41.47377        50.80797        -1.82431
C         42.78203        52.90080        -1.33274
C         41.46766        52.23436        -1.42012
C         42.79829        54.38271        -1.11688
C         41.50635        55.07096        -0.96943
C         42.73536        57.14490        -0.50217
C         41.54183        56.48597        -0.78774
C         42.89578        58.63954        -0.76596
C         41.53860        59.44125        -0.80931
C         42.78627        61.42480         0.18214
C         41.56169        60.77658        -0.07750
C         44.85252        33.63119         3.15228
C         43.66798        34.27474         2.92159
C         44.94883        36.10969         1.87335
C         43.68255        35.75052         2.62035
C         44.98861        37.46212         1.20290
C         43.74049        38.20970         1.04175
C         45.04842        40.19360         0.47870
C         43.80611        39.52245         0.57312
C         45.05323        41.69982         0.37634
C         43.83164        42.25431        -0.30737
C         45.18770        44.33397        -0.92172
C         43.93563        43.55583        -0.97083
C         45.17427        45.67899        -1.26509
C         43.93067        46.39969        -1.51270
C         45.27101        48.61905        -1.81717
C         43.94863        47.86574        -1.64750
C         45.21027        50.04207        -1.30161
C         44.02702        50.71589        -1.32791
C         45.22396        52.86442        -0.69344
C         43.91745        52.09832        -0.72897
C         45.20109        54.27300        -0.43101
C         43.98425        55.02226        -0.51567
C         45.03692        57.00551         0.58492
C         43.91396        56.38109        -0.20287
C         45.06553        58.51891         0.48699
C         43.99330        59.26307         0.08189
C         45.16844        61.37400         0.67998
C         43.99663        60.71174         0.27433
C         46.12225        34.26590         2.98186
C         47.42914        36.17276         2.06506
C         46.22084        35.51831         2.35904
C         47.47644        37.47448         1.48337
C         46.27092        38.15648         1.10584
C         47.53004        40.23437         0.63256
C         46.27498        39.52339         0.74947
C         47.57203        41.56651         0.19061
C         46.35161        42.29316        -0.11732
C         47.71450        44.18447        -1.04526
C         46.39232        43.57507        -0.62859
C         47.65401        45.71308        -0.83054
C         46.48611        46.38015        -1.57481
C         47.65631        48.56751        -1.02597
C         46.48443        47.87523        -1.31865
C         47.66152        50.01987        -0.88506
C         46.45053        50.73294        -0.95300
C         47.72439        52.92428        -0.79737
C         46.42512        52.15348        -0.74286
C         47.65500        54.28002        -0.13643
C         46.42282        54.96415        -0.08603
C         47.56384        56.99114         0.66115
C         46.37971        56.33455         0.33970
C         47.54623        58.39489         1.13732
C         46.24955        59.18417         1.06255
C         47.56042        61.29231         1.22618
C         46.34439        60.65776         0.99133
C         48.69903        38.17030         1.36099
C         49.98314        40.20192         0.89417
C         48.75563        39.52207         0.94376
C         50.04811        41.59394         0.59409
C         48.82962        42.26959         0.14954
C         50.07707        44.36124        -0.13005
C         48.88672        43.58715        -0.29807
C         50.13668        45.69545        -0.49567
C         48.98397        46.38891        -1.18009
C         50.09935        48.54078        -0.61183
C         48.91596        47.86853        -0.86738
C         50.10879        49.97950        -0.40165
C         48.90111        50.71074        -0.56873
C         50.10167        52.77011         0.04988
C         48.92917        52.11604        -0.39090
C         50.09271        54.20274         0.31749
C         48.85894        54.92454         0.24627
C         50.03739        57.01792         0.83169
C         48.82709        56.31738         0.58991
C         50.02615        58.45017         1.03401
C         48.80949        59.14693         1.15084
C         50.01396        61.27192         1.33788
C         48.79468        60.57139         1.28693
C         51.23291        42.29761         0.71259
C         52.55721        44.38626         0.23866
C         51.24113        43.79169         0.65714
C         52.61844        45.70524        -0.15889
C         51.36585        46.43434        -0.38856
C         52.61063        48.60477        -0.63114
C         51.34718        47.80604        -0.53572
C         52.53635        49.81619         0.30518
C         51.29600        50.64247         0.00973
C         52.46321        52.67098         0.97706
C         51.28873        52.01692         0.27081
C         52.53031        54.17400         0.75224
C         51.29350        54.88374         0.64777
C         52.49747        57.02405         0.99580
C         51.28216        56.31869         0.81990
C         52.49844        58.46764         1.11263
C         51.25726        59.16609         1.12470
C         52.48299        61.29199         1.32764
C         51.24722        60.59027         1.26499
C         53.85152        46.42106        -0.28488
C         55.05919        48.55937        -0.35486
C         53.87774        47.81362        -0.41097
C         55.02889        49.98348        -0.15066
C         53.81197        50.60853         0.20698
C         55.08937        52.73915         0.70183
C         53.80193        51.96353         0.74893
C         55.02378        54.21542         0.72576
C         53.74500        54.88141         0.80691
C         54.96060        57.03143         0.93539
C         53.74223        56.32097         0.92878
C         55.00664        58.46784         1.40590
C         53.70289        59.19517         1.22169
C         54.98474        61.38800         1.45786
C         53.69265        60.60879         1.31212
C         56.22905        50.73660        -0.24970
C         57.44526        52.86350        -0.05404
C         56.29240        52.11059         0.08822
C         57.54316        54.22696         0.57306
C         56.19801        54.93040         0.57615
C         57.30932        57.13189         0.08149
C         56.16551        56.35520         0.63685
C         57.42969        58.53888         0.59580
C         56.19673        59.26282         0.91589
C         57.30376        61.38770         0.42502
C         56.19463        60.64407         0.93186
C         58.67168        55.05183         0.00420
C         59.69307        57.19779        -0.66504
C         58.61655        56.41233        -0.12183
C         59.65449        58.59481        -0.69374
C         58.62253        59.31974         0.08635
C         59.45079        61.46564        -0.81463
C         58.45099        60.77205        -0.08477
C         60.59826        59.38044        -1.39896
C         60.49888        60.77706        -1.43117
O         58.54894        58.83876         1.47783
O         46.70753        58.60943         2.34411
O         54.67950        52.09928         1.96579
O         40.92402        48.39306        -3.35001
O         44.88367        36.16111         0.44019
O         42.24879        50.62460        -3.06660
O         43.39137        43.51239        -2.34729
O         34.57130        59.17036         3.01806
O         56.60295        57.14032        -1.17056
O         43.09357        53.77882        -2.44706
O         38.68360        59.62490        -1.79731
H         38.71389        58.75615        -2.26796
O         41.30213        59.79524        -2.18876
H         40.33625        60.00736        -2.28442
O         47.40227        45.94614         0.57168
H         48.12131        45.52372         1.08871
O         47.90760        43.87548        -2.44441
H         47.21476        44.35946        -2.95347
O         44.93059        42.15212         1.78097
H         45.76050        41.90472         2.24267
O         42.56078        39.59102        -1.40570
H         41.81922        40.01673        -1.88667
O         44.71947        56.72819         1.99146
H         45.37454        57.24307         2.52610
O         43.81830        36.43865         3.92485
H         43.06945        36.15184         4.48903
O         43.47833        58.65253        -2.09761
H         42.78574        59.00839        -2.70747
O         52.42742        49.34293         1.67502
H         52.35716        50.13702         2.25129
O         38.38569        52.64478        -2.67804
H         38.95352        52.27886        -3.38862
O         36.16621        46.25979        -2.97678
H         36.89940        46.70503        -3.47069
O         51.02060        44.24536         2.05917
H         51.23209        45.20394         2.08624
O         45.46416        48.70957        -3.26622
H         45.70430        47.80043        -3.57305
O         32.31271        60.57825         3.35869
H         33.16144        60.03745         3.45770
O         43.49948        51.89666         0.66489
H         44.25417        51.50791         1.15558
O         41.37031        45.88540        -3.43597
H         42.11261        46.29578        -3.92825
O         47.93884        53.21284        -2.23380
H         47.11684        53.62638        -2.57580
O         40.07503        57.45611        -2.42361
H         40.15524        56.58209        -2.86280
O         49.22329        46.28082        -2.62110
H         50.13482        46.59999        -2.79403
O         55.20291        58.37721         2.86996
H         54.43906        57.88481         3.23932
O         52.69148        49.12150        -1.99208
H         51.88455        49.65352        -2.16187
O         36.74204        60.61468         2.64556
H         35.95059        60.06439         2.96844
O         46.63505        46.21115        -3.02497
H         47.57924        46.42673        -3.24518
O         38.47169        47.70277        -3.51637
H         39.31702        47.57515        -4.01273
O         40.57311        58.31220         1.10513
H         40.49598        59.14424         1.61835
O         57.88785        54.00009         1.98987
H         57.22042        53.38284         2.36036
O         52.15993        52.49972         2.40054
H         53.02079        52.60002         2.87294
O         38.59436        52.40048         0.95370
H         38.04281        52.77666         1.67135
O         54.86194        62.67548         0.84570
H         54.65749        62.54600        -0.10290
H         29.66468        56.41235         1.10580
H         28.45955        58.55901         1.35097
H         30.57818        62.26525         1.97693
H         28.48454        61.03559         1.57589
H         32.08668        52.19198         0.42263
H         30.88655        54.28163         0.85820
H         32.85593        62.13423         0.68399
H         34.40361        48.04396        -0.73024
H         33.26505        50.10999        -0.10254
H         35.42445        62.34748         0.82101
H         36.78483        44.00147        -0.51457
H         35.58739        45.98437        -1.01134
H         38.10313        62.33252         1.25075
H         39.16470        39.97220         0.81892
H         38.00371        41.98805         0.16369
H         40.40918        62.40352         0.71439
H         41.47417        35.88896         2.25430
H         40.31620        37.88910         1.47302
H         42.77197        62.48145         0.49251
H         44.84189        32.58148         3.48233
H         42.70775        33.76012         3.07507
H         45.17198        62.47216         0.74589
H         47.03549        33.72987         3.27723
H         48.37761        35.70613         2.37102
H         47.59855        62.39192         1.22335
H         49.63445        37.66330         1.64106
H         50.90608        39.67201         1.17239
H         50.00515        62.36808         1.42641
H         52.15274        41.77513         1.01570
H         53.48322        43.82830         0.44374
H         52.47998        62.38831         1.41412
H         54.79589        45.87704        -0.13028
H         56.03426        48.04925        -0.35675
H         55.15360        61.57561         2.55430
H         57.14173        50.23542        -0.60334
H         58.35056        52.39772        -0.47219
H         57.20145        62.48159         0.35670
H         59.61117        54.52063        -0.22010
H         60.55342        56.67735        -1.11608
H         59.38198        62.55858        -0.91698
H         61.40416        58.88102        -1.95651
H         61.24921        61.34817        -1.99618
