         404
 CSIRO Nanostructure Databank - Neutral Graphene Oxide Data Set
C          1.94323         1.93947         2.58597
C          1.77752         3.27290         2.30017
C          3.09048         1.23290         2.16370
C          2.71650         3.96307         1.34691
C          1.55220         6.17563         1.65581
C          1.51354         7.57808         1.59529
C          2.73471         5.47159         1.44925
C          2.67077         8.31864         1.34906
C          1.41892        10.37783         0.75088
C          1.42231        11.70379         0.34409
C          2.63208         9.76749         1.11570
C          2.60666        12.44825         0.39921
C          1.48207        15.50303         0.92235
C          1.54188        16.68174         1.65472
C          2.64613        14.74914         0.71429
C          2.79977        17.18007         2.04562
C          2.91350        18.50329         2.59153
C          4.19614         1.93112         1.59907
C          4.08921         3.33849         1.35563
C          5.42153         1.27686         1.35087
C          5.23067         4.08528         1.00929
C          3.93633         6.19477         1.20422
C          3.90801         7.62067         1.20451
C          5.17490         5.52720         0.94126
C          5.11853         8.35194         1.05254
C          3.82177        10.53838         1.15965
C          3.82848        11.93977         0.89412
C          5.09083         9.80142         1.32762
C          5.07299        12.75374         1.01121
C          3.90473        15.08224         1.25725
C          3.97952        16.40535         1.81122
C          5.09768        14.23346         1.18707
C          5.24545        17.02997         1.99188
C          4.13297        19.10133         2.74302
C          5.33180        18.40180         2.38135
C          6.55095         1.99642         0.90058
C          6.47192         3.42531         0.77003
C          7.76710         1.34202         0.60473
C          7.61934         4.17384         0.37218
C          6.34580         6.27217         0.65778
C          6.32470         7.70540         0.74256
C          7.56734         5.60114         0.31975
C          7.53039         8.46257         0.45840
C          6.35824        10.57643         1.11361
C          6.26958        12.05206         1.00846
C          7.54307         9.86473         0.59332
C          7.59370        12.68723         1.15237
C          6.32485        14.88509         1.40064
C          6.42284        16.29762         1.67820
C          7.61319        14.16282         1.37309
C          7.67438        16.97004         1.69376
C          6.57330        19.06096         2.31840
C          7.73338        18.37486         1.93254
C          8.89412         2.06480         0.15913
C          8.82697         3.49938         0.04214
C         10.09353         1.40030        -0.16793
C          9.95715         4.23671        -0.41676
C          8.72099         6.34683        -0.06892
C          8.69829         7.78119        -0.01942
C          9.90350         5.66671        -0.48787
C          9.85215         8.52093        -0.41488
C          8.71480        10.61170         0.26809
C          8.77870        12.00245         0.57049
C          9.86418         9.94265        -0.25535
C          9.95565        12.72853         0.33067
C          8.86667        14.90721         1.15035
C          8.89582        16.25032         1.40842
C         10.13763        14.09815         0.97515
C         10.21486        16.97198         1.55451
C          8.96051        19.10744         1.67415
C         10.13003        18.47376         1.36744
C         11.21301         2.11457        -0.64469
C         11.14575         3.54430        -0.78653
C         12.40940         1.43728        -0.96234
C         12.26123         4.26032        -1.32031
C         11.03723         6.39906        -0.98111
C         11.00607         7.84827        -0.94397
C         12.17381         5.69060        -1.44556
C         12.11601         8.62710        -1.37343
C         11.01700        10.70952        -0.61035
C         11.03974        12.10803        -0.33393
C         12.12090        10.03125        -1.23773
C         12.18022        12.93440        -0.80243
C         11.20088        14.94083         0.29504
C         11.23954        16.38591         0.61171
C         12.41268        14.28361        -0.24855
C         12.55327        17.09419         0.58522
C         11.34112        19.19244         1.00710
C         12.50476        18.57324         0.65627
C         13.52415         2.13088        -1.47005
C         13.42288         3.53713        -1.71212
C         14.74795         1.42115        -1.68243
C         14.57271         4.21958        -2.33821
C         13.27656         6.43239        -2.08081
C         13.27142         7.94185        -2.01571
C         14.58134         5.73268        -2.38831
C         14.59439         8.60323        -2.03176
C         13.24913        10.80201        -1.78185
C         13.33290        12.27664        -1.50477
C         14.56553        10.06295        -2.11095
C         14.64410        12.95981        -1.49226
C         13.57601        14.97765        -0.49339
C         13.73047        16.37244         0.01561
C         14.73182        14.34806        -1.11971
C         14.88747        17.17998        -0.42001
C         13.78716        19.35101         0.44694
C         14.92856        18.57532        -0.19148
C         15.93741         2.06589        -2.04008
C         15.88106         3.49401        -2.41651
C         17.18215         1.41556        -2.05877
C         17.16931         4.30476        -2.36100
C         15.86916         6.45500        -2.20439
C         15.81101         7.90322        -2.04236
C         17.09362         5.76991        -2.14001
C         17.03596         8.65330        -1.95438
C         15.81635        10.81548        -1.99663
C         15.79828        12.23782        -1.82734
C         17.01559        10.05907        -1.92488
C         17.03013        13.00381        -2.08968
C         15.94947        15.06940        -1.23299
C         16.02563        16.49447        -0.91864
C         17.12966        14.42902        -1.74196
C         17.23418        17.20088        -1.08393
C         16.09460        19.28275        -0.49059
C         17.28169        18.60931        -0.88891
C         18.41108         2.14005        -2.07408
C         18.40752         3.57662        -2.04113
C         19.64011         1.45699        -1.97388
C         19.58213         4.28913        -1.76664
C         18.33367         6.44114        -1.85226
C         18.33391         7.92651        -1.88886
C         19.54417         5.73814        -1.67240
C         19.57554         8.64075        -1.38641
C         18.25323        10.81303        -1.61270
C         18.33229        12.21985        -2.10200
C         19.49992        10.13669        -1.15478
C         19.58090        12.96813        -1.98790
C         18.37639        15.07634        -1.77437
C         18.52319        16.43780        -1.14894
C         19.60228        14.36921        -1.98700
C         19.72756        17.21552        -1.62670
C         18.51349        19.30344        -1.03700
C         19.72539        18.65684        -1.40861
C         20.85073         2.15351        -1.75465
C         20.81245         3.57927        -1.59536
C         22.08925         1.46385        -1.64909
C         22.00377         4.26945        -1.23388
C         20.76879         6.40859        -1.27987
C         20.72310         7.80558        -0.93318
C         21.96164         5.69927        -1.02074
C         21.83081         8.34832        -0.31015
C         20.74738        10.93395        -1.30713
C         20.77550        12.22912        -1.80206
C         21.93798        10.46712        -0.68612
C         22.06178        12.88706        -2.04653
C         20.88886        15.06635        -1.97117
C         20.88222        16.52927        -1.93473
C         22.07410        14.35517        -2.06281
C         22.14222        17.26160        -2.21543
C         20.92889        19.36706        -1.43105
C         22.17275        18.75607        -1.88360
C         23.26769         2.13731        -1.29161
C         23.19258         3.54052        -1.03322
C         24.54280         1.46162        -1.22788
C         24.35516         4.21690        -0.45277
C         23.17365         6.37764        -0.58374
C         23.16018         7.81152        -0.34851
C         24.34885         5.68013        -0.36665
C         24.31795         8.60211        -0.23839
C         23.21827        10.84822        -0.96995
C         23.35533        12.10802        -1.73280
C         24.36769        10.15316        -0.23962
C         24.56986        12.89875        -1.47261
C         23.40759        15.00920        -2.11837
C         23.45418        16.51318        -2.17409
C         24.60421        14.27127        -1.62470
C         24.66821        17.18320        -1.65727
C         23.47463        19.35975        -1.57307
C         24.65827        18.62899        -1.48462
C         25.71798         2.09378        -0.84913
C         25.65914         3.47049        -0.30898
C         26.99573         1.45826        -0.87372
C         26.90571         4.26056        -0.15795
C         25.56184         6.35854         0.09040
C         25.58672         7.91992         0.09335
C         26.84433         5.62704         0.00820
C         26.92121         8.58034        -0.06731
C         25.69409        10.64613        -0.81336
C         25.78501        12.09841        -1.28052
C         26.96230         9.98255        -0.43722
C         27.05376        12.81329        -1.13498
C         25.82044        14.99129        -1.35941
C         25.79991        16.42588        -1.33153
C         27.03309        14.24107        -1.11530
C         26.99304        17.13532        -0.81693
C         25.88934        19.30551        -1.20787
C         27.07599        18.60917        -0.94644
C         28.17572         2.12006        -0.53133
C         28.17104         3.55092        -0.19814
C         29.40107         1.39499        -0.41472
C         29.35406         4.21030         0.06938
C         28.04605         6.38871         0.40094
C         28.09478         7.85440         0.11255
C         29.34077         5.60639         0.55194
C         29.39331         8.45367        -0.18622
C         28.16313        10.64330        -0.68187
C         28.24293        12.06840        -0.96240
C         29.40522         9.84364        -0.72981
C         29.50028        12.77110        -0.96816
C         28.27421        14.91103        -0.93582
C         28.28063        16.36155        -0.66220
C         29.48066        14.19491        -0.95728
C         29.55203        17.10707        -0.66360
C         28.30773        19.25136        -0.73087
C         29.53834        18.53843        -0.58919
C         30.61605         2.03343        -0.16965
C         30.64952         3.53802        -0.32649
C         31.81799         1.32574         0.06163
C         31.87586         4.17830         0.25031
C         30.63391         6.40975         0.69912
C         30.57343         7.76108        -0.00840
C         31.88464         5.61152         0.37391
C         31.89051         8.39646        -0.23505
C         30.72238        10.58561        -0.91147
C         30.75118        12.06637        -0.83932
C         31.99434         9.84513        -0.64808
C         31.96708        12.72950        -0.64726
C         30.74710        14.95472        -1.00354
C         30.75821        16.40629        -0.71321
C         32.04395        14.18936        -0.83509
C         31.99534        17.08204        -0.52418
C         30.77276        19.21420        -0.47570
C         31.99361        18.50906        -0.39845
C         33.03600         1.97268         0.36804
C         33.04500         3.42967         0.46219
C         34.24890         1.25320         0.54872
C         34.24637         4.09336         0.86271
C         33.08076         6.27453         0.41022
C         33.10214         7.75117         0.37626
C         34.38160         5.52640         0.37250
C         34.39892         8.48245         0.23363
C         33.22064        10.61289        -0.31963
C         33.20138        12.04009        -0.34433
C         34.40674         9.92898        -0.07308
C         34.39108        12.75789        -0.05521
C         33.23550        14.92793        -0.38129
C         33.22046        16.34972        -0.33690
C         34.39284        14.21194        -0.02360
C         34.42171        17.05201        -0.03338
C         33.23502        19.19061        -0.21054
C         34.42821        18.49390        -0.03509
C         35.42305         1.89501         0.99019
C         35.34342         3.31213         1.26619
C         36.69949         1.27370         1.18195
C         36.46906         3.89960         1.90453
C         35.53962         6.38878         0.82122
C         35.68819         7.71324         0.18187
C         36.53120         6.02953         1.67571
C         37.00176         8.44093         0.27735
C         35.62827        10.62474         0.13963
C         35.61604        12.05335         0.17440
C         36.87547         9.93488         0.22231
C         36.81181        12.74759         0.53289
C         35.56191        14.92718         0.35755
C         35.60731        16.33280         0.28980
C         36.74174        14.18399         0.82360
C         36.86200        17.04214         0.51600
C         35.68378        19.17562         0.13398
C         36.86350        18.49549         0.36179
C         37.85005         1.99546         1.54659
C         37.76045         3.40440         1.86397
C         39.12727         1.37367         1.77950
C         38.90569         4.23515         2.23050
C         37.88514         6.52476         1.63713
C         38.13915         7.75381         1.00926
C         38.95190         5.68508         2.17986
C         39.39716         8.38061         1.34341
C         38.01358        10.72735         0.16708
C         38.04973        12.08647         0.57981
C         39.75077         9.67528         0.89303
C         39.31669        12.73871         0.93773
C         38.05410        14.91921         1.01448
C         38.04177        16.37358         0.78211
C         39.33141        14.16186         0.97266
C         39.30309        17.12144         1.14662
C         38.13334        19.18360         0.36585
C         39.31759        18.52893         0.59399
C         40.16809         2.09875         2.29088
C         40.10358         3.52583         2.50557
C         41.25877         4.22601         2.94157
C         40.16015         6.35501         2.52913
C         40.27741         7.78639         2.29488
C         41.27396         5.60527         2.99067
C         41.26525         8.61886         2.88646
C         40.56248        10.57025         1.59072
C         40.51720        12.02233         1.27778
C         41.34355         9.98544         2.62335
C         41.69719        12.76782         1.45704
C         40.55230        14.87809         1.04512
C         40.57401        16.33575         0.89054
C         41.73653        14.14514         1.26610
C         41.72495        17.01713         0.59937
C         40.59060        19.17462         0.40838
C         41.74470        18.44349         0.42072
O         27.42686        16.67329         0.51024
O         36.24769         5.06010         2.63970
O         17.64115        12.53422        -3.33980
O         23.67800        15.71318        -3.38451
O         19.35453         8.43016        -2.83066
O         21.70870         9.56551         0.36076
O         25.45332         7.13612         1.32409
O         39.18222        10.12723        -0.29839
O         13.53250        16.47613         1.50052
O         22.84899        12.20045        -3.08879
O         32.20611         8.77134        -1.62188
O          2.53132        13.70218        -0.20065
O         16.60204         3.81898        -3.63070
O         22.07197        18.22703        -3.28377
O         25.73103        10.95071        -2.23054
O         12.29828        12.97844        -2.27934
O         37.20957        14.53696         2.17071
O          7.81246        13.21505         2.52527
O         28.49300         5.88607         1.71864
O         31.57339        14.61609        -2.16832
O         24.76970         3.60157         0.84651
O         13.62123        10.51241        -3.15434
O          5.93465        10.15603         2.47530
O         30.02072        10.02809        -2.05866
O         33.72350         8.34077         1.56388
O         18.57082        10.66964        -0.15809
O         14.35173         4.93581        -3.59699
O         10.68917        15.95132        -0.66479
O         36.54214         7.80382        -0.99642
O         12.87162         7.24186        -3.24195
O         30.76688         3.78082        -1.78136
H         31.63128         3.41696        -2.07073
O         10.67551        16.73482         2.91358
H         11.65484        16.79633         2.92452
O         13.53563        20.55646        -0.28550
H         13.23007        20.31503        -1.18370
O         39.24481        17.26258         2.61182
H         38.37588        17.65877         2.83571
O         34.67500         5.30320        -1.07008
H         35.09348         6.11608        -1.43247
O         10.63906        13.80396         2.31070
H          9.86340        13.49581         2.83773
O         30.81043         6.74394         2.10403
H         29.91620         6.68384         2.52222
O         24.36134        10.56472         1.15125
H         23.53970        10.20868         1.55623
O          2.17023         3.68121        -0.00519
H          2.15854         2.70540        -0.10956
O         18.84568        16.15533         0.27722
H         18.03898        15.78028         0.69212
H          1.17985         1.40916         3.17436
H          0.86956         3.79231         2.63705
H          3.18602         0.15979         2.37927
H          0.61156         5.63383         1.82506
H          0.54793         8.08280         1.73447
H          0.48972         9.79605         0.70195
H          0.51291        12.17730        -0.04695
H          0.53724        15.15693         0.48385
H          0.63517        17.27481         1.83823
H          1.98993        19.05227         2.82619
H          5.50081         0.19224         1.51508
H          4.20946        20.13642         3.10532
H          7.83260         0.24869         0.70513
H          6.62505        20.13815         2.53518
H         10.15340         0.30692        -0.06695
H          8.90710        20.20756         1.65699
H         12.47387         0.35120        -0.80391
H         11.31181        20.29341         1.03176
H         14.77119         0.34630        -1.44987
H         14.14600        19.67839         1.46335
H         17.21810         0.32678        -1.90499
H         16.11813        20.37052        -0.33114
H         19.65189         0.35848        -2.02862
H         18.53225        20.38811        -0.85392
H         22.11232         0.37761        -1.82065
H         20.95175        20.40401        -1.06419
H         24.58364         0.41130        -1.55437
H         23.49929        20.43460        -1.33823
H         27.04583         0.39480        -1.15346
H         25.89705        20.40551        -1.21421
H         29.36819         0.29631        -0.47834
H         28.34130        20.35107        -0.75155
H         31.78685         0.22509         0.06152
H         30.78269        20.31303        -0.42392
H         34.26512         0.17532         0.32872
H         33.23818        20.29037        -0.17663
H         36.78338         0.18611         1.03912
H         35.69993        20.27252         0.04639
H         39.24447         0.29806         1.58292
H         38.14524        20.24676         0.07855
H         41.12538         1.59862         2.50224
H         42.16096         3.65580         3.20645
H         42.19139         6.12856         3.29363
H         41.93350         8.19366         3.64844
H         42.03750        10.60762         3.20626
H         42.62525        12.23941         1.71739
H         42.69632        14.66873         1.37091
H         42.67120        16.47479         0.45906
H         40.61120        20.25183         0.18598
H         42.71067        18.93333         0.23464
