         430
 CSIRO Nanostructure Databank - Neutral Graphene Oxide Data Set
C         27.96587        27.33781         0.14243
C         27.92117        28.75391         0.09167
C         26.68549        29.46365         0.05234
C         27.87367        31.59934        -0.01426
C         26.66709        30.83743         0.01629
C         27.85581        33.04019        -0.07616
C         26.65505        33.78115         0.06104
C         27.86169        35.86622        -0.27653
C         26.66945        35.16044         0.00830
C         27.82164        37.37303        -0.22027
C         26.68256        38.01204        -0.97528
C         27.86258        40.15402        -0.84402
C         26.69151        39.34816        -1.16622
C         27.83646        41.56657        -0.85819
C         26.60508        42.29330        -0.99228
C         27.78665        44.41207        -0.76664
C         26.57943        43.65757        -0.94381
C         27.75179        45.81432        -0.68935
C         30.40688        27.36289         0.20825
C         29.17445        26.66520         0.18473
C         30.38092        28.78475         0.17978
C         29.14077        29.48770         0.08687
C         30.35347        31.64863        -0.06575
C         29.11975        30.91603         0.00671
C         30.32622        33.04600        -0.27779
C         29.07558        33.75059        -0.28422
C         30.29318        35.88086        -0.95220
C         29.05810        35.16988        -0.43852
C         30.32548        37.36206        -0.65207
C         29.12779        38.05198        -0.55581
C         30.32820        40.20417        -0.61494
C         29.10375        39.47887        -0.64013
C         30.30963        41.62769        -0.61136
C         29.06029        42.30209        -0.69640
C         30.24988        44.45985        -0.47864
C         29.03354        43.72471        -0.65694
C         30.17139        45.87929        -0.44826
C         28.93634        46.53191        -0.53500
C         32.97819        24.59526         0.12302
C         31.76271        25.25383         0.07294
C         32.89231        27.36930         0.43418
C         31.68605        26.65691         0.23582
C         32.82818        28.82699         0.63465
C         31.58986        29.53944         0.29013
C         32.85125        31.63780         0.03444
C         31.59861        30.93129         0.12227
C         32.80840        33.00759        -0.49487
C         31.55822        33.78799        -0.45570
C         32.82787        35.90325        -0.75855
C         31.58245        35.16043        -0.65261
C         32.81185        37.36577        -0.78568
C         31.56528        38.07576        -0.69122
C         32.79601        40.23887        -0.55913
C         31.56778        39.49500        -0.59890
C         32.79484        41.65628        -0.44857
C         31.53366        42.37036        -0.46588
C         32.75580        44.47341         0.14412
C         31.50023        43.77041        -0.36074
C         32.74678        45.98812        -0.05650
C         31.41013        46.68749        -0.33158
C         32.60339        48.68898        -1.03062
C         31.44007        47.99339        -0.98895
C         35.53635        23.18918         0.27656
C         35.46424        24.59208         0.38353
C         34.19399        25.29271         0.31564
C         35.39139        27.45845         0.53753
C         34.14883        26.70825         0.45539
C         35.39516        28.86471         0.51545
C         34.13246        29.61205         0.64273
C         35.34022        31.73835         0.13970
C         34.09048        31.02422         0.22975
C         35.35583        33.12360        -0.14100
C         34.11356        33.76301        -0.61237
C         35.32008        35.90472        -0.87521
C         34.03825        35.22563        -0.68451
C         35.29266        37.41685        -0.97578
C         34.00793        38.10475        -0.79991
C         35.26451        40.25061        -0.69319
C         34.03021        39.52902        -0.65943
C         35.26697        41.67598        -0.57176
C         34.03626        42.37225        -0.41660
C         35.24657        44.50682        -0.32149
C         34.04789        43.80763        -0.29568
C         35.32731        46.00320        -0.54618
C         33.98659        46.71936        -0.38205
C         35.62477        48.99200         0.48934
C         33.84171        48.06165        -0.66313
C         35.67783        50.25935         1.11729
C         37.94932        23.21061         0.63844
C         36.74667        22.52046         0.38354
C         37.91547        24.63488         0.73703
C         36.67642        25.32418         0.57525
C         37.85615        27.48751         0.67882
C         36.64149        26.75800         0.58444
C         37.84774        28.91904         0.60754
C         36.61076        29.60731         0.47083
C         37.80308        31.76215         0.43309
C         36.58476        31.03985         0.36577
C         37.77382        33.27305         0.57610
C         36.54123        33.90229        -0.03290
C         37.77918        36.00439        -0.47766
C         36.56255        35.24124        -0.43868
C         37.77561        37.41168        -0.71430
C         36.54731        38.15439        -0.77939
C         37.76034        40.31338        -1.10219
C         36.51044        39.54521        -0.77892
C         37.75802        41.73020        -0.60071
C         36.51692        42.40380        -0.49108
C         37.74012        44.52097        -0.07614
C         36.50898        43.81573        -0.30616
C         37.71439        45.91064         0.35751
C         36.46928        46.58893         0.27757
C         38.03916        48.65465         1.70848
C         36.27697        47.83459         0.93298
C         37.98689        50.06087         1.95538
C         36.73563        50.72818         1.89834
C         40.52901        20.44125         0.79523
C         39.32117        21.14382         0.55298
C         40.32618        23.21961         1.50026
C         39.19256        22.49182         0.82254
C         40.38001        24.69956         1.21809
C         39.12602        25.38703         0.97540
C         40.28530        27.56844         1.23364
C         39.08117        26.78590         0.90851
C         40.31489        29.00418         0.89574
C         39.06553        29.67084         0.68600
C         40.28493        31.86359         0.84777
C         39.01780        31.08413         0.59114
C         40.25683        33.24551         0.24516
C         39.05412        33.94367         0.12493
C         40.23377        36.04905        -0.43325
C         39.01809        35.32467        -0.26088
C         40.24270        37.41295        -0.71816
C         39.01334        38.13834        -0.77345
C         40.24177        40.28916        -0.71457
C         39.02530        39.55549        -0.82203
C         40.23006        41.70757        -0.53298
C         38.97580        42.41854        -0.43350
C         40.22468        44.52230         0.01937
C         38.97297        43.82128        -0.13928
C         40.22154        45.90976         0.34617
C         38.97914        46.57398         0.65799
C         40.28734        48.73428         0.80134
C         39.06983        47.94364         1.08898
C         40.37021        50.18317         1.32374
C         39.23227        50.77395         2.04298
C         40.64505        52.62173         2.75292
C         39.39557        51.99122         2.70662
C         42.93412        20.38952         1.35183
C         41.68113        21.10422         1.19928
C         42.84325        23.24181         1.55891
C         41.66388        22.53076         1.38051
C         42.85686        24.68054         1.48454
C         41.58567        25.37578         1.35952
C         42.89599        27.63605         1.47099
C         41.58137        26.84907         1.49490
C         42.80017        28.94947         0.71154
C         41.54201        29.66941         0.71704
C         42.68992        31.74013         0.07717
C         41.53795        31.08914         0.49362
C         42.70237        33.15577        -0.12449
C         41.50302        33.87054        -0.05048
C         42.78437        36.05952        -0.35035
C         41.49720        35.34315        -0.15082
C         42.78044        37.46884        -0.75137
C         41.49585        38.13802        -1.14974
C         42.69360        40.30256        -0.78841
C         41.49087        39.60625        -0.80441
C         42.69800        41.70794        -0.55474
C         41.45906        42.40882        -0.40813
C         42.71226        44.51124        -0.06989
C         41.46068        43.82127        -0.15035
C         42.71816        45.92612         0.14329
C         41.49065        46.61645         0.38154
C         42.76533        48.74823         0.54170
C         41.54504        48.01966         0.58747
C         42.83348        50.13376         0.98620
C         41.69997        50.77715         1.50190
C         43.06534        52.67869         2.25328
C         41.78907        52.03559         2.17701
C         44.07652        21.03062         1.66468
C         45.32218        23.19837         1.29255
C         44.12641        22.51431         1.91221
C         45.40805        24.69247         1.51267
C         44.07111        25.39864         1.34907
C         45.24886        27.44461         0.60861
C         44.08579        26.79110         1.08183
C         45.20953        28.82497         0.21242
C         43.95550        29.54099         0.22165
C         45.21082        31.67680        -0.03826
C         43.89416        30.94119        -0.37648
C         45.23342        33.13136        -0.44065
C         43.92575        33.80963        -0.74698
C         45.21421        35.98449        -0.62672
C         44.01195        35.29338        -0.53179
C         45.21667        37.42257        -0.68555
C         43.97108        38.13537        -0.82941
C         45.21596        40.29677        -0.73103
C         43.96997        39.59711        -1.21085
C         45.17581        41.66433        -0.46075
C         43.94570        42.40175        -0.43269
C         45.20406        44.52613        -0.15337
C         43.94601        43.80647        -0.20841
C         45.19772        45.94844        -0.08743
C         43.95158        46.65700         0.06663
C         45.19647        48.85265        -0.12343
C         43.95810        48.06234         0.21082
C         45.26487        50.20951         0.53408
C         44.10809        50.81315         1.05246
C         44.16894        52.09901         1.69341
C         47.56529        23.17360         0.32804
C         46.34844        22.51633         0.71878
C         47.67959        24.54265         0.37637
C         46.51311        25.34101         0.71032
C         47.61152        27.30210        -0.36579
C         46.45962        26.67495         0.38969
C         47.64832        28.79945        -0.22283
C         46.43355        29.47944        -0.15378
C         47.71349        31.66093        -0.34250
C         46.41947        30.92171        -0.60092
C         47.69735        33.09022        -0.43518
C         46.43558        33.80705        -0.54982
C         47.66267        35.97498        -0.75163
C         46.46622        35.26429        -0.68834
C         47.68391        37.40777        -0.69876
C         46.44219        38.12998        -0.70657
C         47.68887        40.26811        -0.57054
C         46.43377        39.55910        -0.64747
C         47.68342        41.64463        -0.41006
C         46.42705        42.33428         0.04284
C         47.67345        44.51349        -0.09711
C         46.43022        43.82382        -0.15589
C         47.67530        45.93830         0.00397
C         46.44572        46.65955        -0.02459
C         47.71130        48.77305         0.08257
C         46.47803        48.07341         0.04371
C         47.68694        50.21369         0.19258
C         46.52332        50.88048         0.48076
C         50.17572        24.56542         0.23169
C         48.94441        25.23892         0.12457
C         50.14959        27.34799        -0.21745
C         48.93384        26.62798        -0.10293
C         50.12547        28.79243        -0.35693
C         48.90053        29.49876        -0.32137
C         50.20898        31.66756        -0.11753
C         48.90207        30.94187        -0.30384
C         50.14514        33.10908        -0.54494
C         48.92662        33.78713        -0.58710
C         50.19464        35.94243        -0.71341
C         48.92462        35.22109        -1.07679
C         50.15310        37.35998        -0.21626
C         48.91365        38.12656        -0.60874
C         50.18715        40.25671        -0.46874
C         48.94083        39.52770        -0.59744
C         50.19529        41.64951        -0.40614
C         48.93161        42.42001        -0.69217
C         50.13656        44.49781         0.06296
C         48.91488        43.82406        -0.16088
C         50.12591        45.89474         0.28257
C         48.91584        46.62778         0.14234
C         50.22753        48.71734         0.02482
C         48.93854        48.05900         0.11463
C         51.37264        25.26592         0.10689
C         52.69110        27.41703        -0.10841
C         51.38374        26.64697        -0.12188
C         52.55359        28.77138        -0.76404
C         51.36896        29.49236        -0.62773
C         52.53548        31.65186        -1.02863
C         51.38472        30.93510        -0.71225
C         52.56112        33.08699        -0.98634
C         51.37492        33.79687        -0.81191
C         52.65993        35.94552        -0.69132
C         51.37902        35.25591        -0.77841
C         52.65718        37.38473        -0.51455
C         51.44808        38.09805        -0.42704
C         52.67039        40.20804        -0.39582
C         51.44903        39.51851        -0.41449
C         52.72011        41.70460        -0.55151
C         51.41180        42.40420        -0.26468
C         52.71036        44.51769         0.01664
C         51.39288        43.76809        -0.02755
C         52.64084        45.89177         0.65982
C         51.33563        46.63605         0.79192
C         51.37880        48.04392         0.24952
C         55.00422        27.28283        -1.05213
C         53.89420        26.65351        -0.60544
C         55.03486        28.71285        -1.27064
C         53.74071        29.40361        -1.32821
C         55.05829        31.62109        -1.41796
C         53.74608        30.94850        -1.48423
C         55.08444        33.05076        -1.21345
C         53.80131        33.83024        -1.41912
C         55.11577        35.92247        -0.77466
C         53.84544        35.25239        -0.88592
C         55.13900        37.36459        -0.56638
C         53.90446        38.08041        -0.48709
C         55.14398        40.20112        -0.17748
C         53.90432        39.50126        -0.35752
C         55.10016        41.61363         0.21328
C         53.91385        42.30183         0.14812
C         55.07029        44.39492         0.94787
C         53.75573        43.66564         0.76762
C         55.03522        45.74161         1.17324
C         53.77316        46.44876         1.15929
C         56.19820        29.42820        -1.48461
C         56.21131        30.84725        -1.52212
C         56.25763        33.75293        -0.99110
C         56.28331        35.15860        -0.83323
C         56.33681        38.09299        -0.47547
C         56.33697        39.47440        -0.25533
C         56.29297        42.28832         0.71250
C         56.28297        43.61516         1.01561
O         53.52751        30.07561        -2.62088
O         34.94027        48.93334        -0.74099
O         36.92813        47.93628         2.18362
O         35.38895        36.57545        -2.18799
O         40.06141        49.87165        -0.09138
O         31.99827        46.66458         1.02041
O         40.74658        27.28373         2.63001
O         33.50969        33.11070        -1.79229
O         42.18502        35.90904         1.05245
O         33.42453        29.30512         1.89512
O         46.30716        30.88217        -2.06615
H         47.04707        30.33064        -2.40067
O         30.17291        35.82973        -2.42468
H         30.40508        34.92018        -2.71007
O         48.92855        35.13415        -2.54845
H         49.72239        34.61909        -2.80896
O         41.49399        38.09258        -2.63377
H         40.67313        38.54003        -2.93481
O         52.96252        41.96017        -1.99999
H         53.78077        41.47591        -2.24551
O         46.40697        42.15883         1.52257
H         46.38788        41.19326         1.69857
O         53.20358        43.43588         2.10132
H         53.89234        42.98876         2.63615
O         43.72206        30.83924        -1.81802
H         44.59465        30.57318        -2.20825
O         43.98012        39.64883        -2.67254
H         43.20458        39.11546        -2.97483
O         27.57937        37.67602         1.20035
H         27.54042        38.65265         1.28641
O         47.32830        27.08370        -1.80356
H         47.37719        26.11650        -1.96222
O         52.97627        27.70234         1.31141
H         52.20961        28.19986         1.66921
O         50.02008        37.22142         1.25834
H         50.84131        36.79390         1.58385
O         37.69882        33.51542         2.02157
H         38.49020        33.07657         2.41976
O         53.67537        33.98001        -2.88232
H         54.49842        34.40647        -3.20269
O         43.17865        28.03308         2.84794
H         42.30099        28.13795         3.28803
O         35.69207        46.14719        -1.95485
H         35.84295        47.10218        -2.12370
O         40.00232        23.14152         2.94997
H         40.52261        23.83952         3.40334
O         44.27455        22.67285         3.37527
H         43.48118        22.27289         3.79169
O         40.29843        32.08647         2.31165
H         41.13704        32.54824         2.52958
O         53.14411        44.71356        -1.35265
H         53.06380        43.84437        -1.82057
O         50.46760        31.68023         1.35029
H         49.74385        32.19830         1.76289
O         32.73948        44.24895         1.58995
H         32.22183        44.99454         1.97655
O         37.72218        40.44683        -2.59024
H         37.46120        39.57270        -2.95324
O         45.30073        31.63785         1.41075
H         46.11359        32.11518         1.67940
O         45.09337        49.11542        -1.58022
H         45.87594        49.65400        -1.82660
O         51.12134        46.78098         2.24500
H         50.27019        47.25327         2.36755
O         45.79703        24.88732         2.91269
H         45.26588        24.24816         3.44683
O         43.71811        33.61890        -2.19972
H         43.66486        32.63559        -2.33820
O         48.93419        42.60231        -2.17012
H         49.02061        41.71132        -2.57319
H         27.02289        26.77231         0.14449
H         25.74320        28.89698         0.05767
H         25.69775        31.35280        -0.01230
H         25.70548        33.26553         0.25608
H         25.74004        35.72150         0.17844
H         25.80642        37.41194        -1.26133
H         25.82635        39.83678        -1.63703
H         25.66318        41.74139        -1.11274
H         25.62701        44.20010        -1.03166
H         26.78981        46.34153        -0.75482
H         29.16463        25.56762         0.22165
H         28.89326        47.62789        -0.47253
H         32.98115        23.50432         0.00149
H         30.85134        24.66477        -0.09401
H         32.65068        49.69989        -1.45714
H         30.52834        48.39627        -1.45028
H         34.62774        22.59513         0.11464
H         34.92042        50.99348         0.80407
H         36.74715        21.42502         0.30854
H         36.70073        51.78449         2.20520
H         40.56794        19.35993         0.60056
H         38.48251        20.58100         0.11979
H         40.74682        53.58273         3.27685
H         38.53794        52.45203         3.21657
H         42.92550        19.29687         1.21910
H         43.14259        53.65104         2.76068
H         44.99442        20.45287         1.84584
H         45.13287        52.61971         1.76456
H         48.41130        22.55015         0.00795
H         46.29950        21.42429         0.60066
H         48.63057        50.77396         0.16889
H         46.57814        51.95748         0.69266
H         50.20048        23.48784         0.44282
H         50.26773        49.77244        -0.28191
H         52.31678        24.71686         0.22141
H         52.34955        48.55209         0.15450
H         55.91222        26.70514        -1.28462
H         53.91938        25.56278        -0.47291
H         55.95636        46.29261         1.41597
H         53.74230        47.45906         1.59411
H         57.16031        28.89579        -1.50916
H         57.19275        31.34100        -1.55900
H         57.21464        33.21613        -0.92268
H         57.26294        35.63806        -0.70445
H         57.30444        37.57837        -0.54765
H         57.30339        39.98522        -0.14722
H         57.23137        41.72341         0.79211
H         57.21437        44.12083         1.31270
