         720
 CSIRO Nanostructure Databank - Neutral Graphene Oxide Data Set
C         22.91600        27.90730        -1.31008
C         22.93846        29.26440        -1.27338
C         23.12015        32.19671        -0.31844
C         23.14709        33.52649        -0.17338
C         22.78112        36.41122         0.18606
C         22.84758        37.43115         1.06206
C         22.95097        40.33126         1.88218
C         22.98592        41.61631         1.45069
C         23.04740        44.37848         0.33033
C         23.06706        45.70294         0.06271
C         25.21399        24.91134        -1.21216
C         24.07834        25.67937        -1.30313
C         25.35754        27.74512        -1.08341
C         24.12724        27.11951        -1.19593
C         25.44774        29.18788        -0.84882
C         24.15653        29.99249        -0.88397
C         25.56478        32.12885        -0.68891
C         24.19996        31.50542        -1.11741
C         25.56933        33.64748        -1.00364
C         24.23381        34.38604        -0.73054
C         25.18160        36.76498        -0.27118
C         24.00240        35.90308        -0.48649
C         25.36142        37.57610         0.80537
C         24.12810        38.05258         1.48193
C         25.48498        40.26940         2.08831
C         24.16918        39.50250         1.95842
C         25.46153        41.64958         1.45079
C         24.22426        42.31628         1.14158
C         25.51879        44.31547         0.44501
C         24.25432        43.64011         0.67255
C         25.55002        45.66390         0.08587
C         24.32131        46.52367         0.22708
C         25.55000        48.31048        -1.03072
C         24.37865        47.73607        -0.66562
C         27.70953        23.29431        -1.06053
C         27.68392        24.71405        -0.98104
C         26.51898        25.48856        -1.10195
C         27.83205        27.66940        -0.81904
C         26.62032        26.97829        -1.37017
C         27.91764        29.07900        -0.88103
C         26.74729        29.87056        -0.97775
C         28.11101        32.00900        -1.05759
C         26.75562        31.35163        -1.34147
C         28.15288        33.43648        -0.67074
C         26.96324        34.27177        -0.97038
C         28.09675        36.18407         0.18879
C         27.14673        35.69411        -0.64445
C         28.01088        37.63228         0.63674
C         26.70325        38.00162         1.41850
C         27.93384        40.18003         1.68452
C         26.74512        39.50195         1.67536
C         27.89557        41.66772         1.90212
C         26.66935        42.30111         1.30408
C         27.99977        44.24556         0.58139
C         26.75543        43.61262         0.72472
C         28.08903        45.49458        -0.17306
C         26.78948        46.27083        -0.39154
C         28.05588        48.40846        -0.75995
C         26.83584        47.72066        -0.71877
C         28.12654        49.73130        -1.37007
C         30.16870        23.23653        -0.96404
C         28.90185        22.59297        -1.00041
C         30.25042        24.63740        -0.86092
C         28.97575        25.36573        -0.63646
C         30.33064        27.52439        -0.52252
C         29.01526        26.86811        -0.49606
C         30.34356        28.96343        -0.37517
C         29.21146        29.70601        -0.62861
C         30.49802        31.84640        -0.15185
C         29.31762        31.17706        -0.72205
C         30.48571        33.20555         0.07985
C         29.29070        33.99459        -0.13812
C         30.38533        35.74616         1.31303
C         29.43331        35.48213         0.12711
C         30.43763        37.23684         1.69431
C         29.19145        38.06237         1.51153
C         30.40830        40.19339         2.03764
C         29.25048        39.53489         1.67174
C         30.35241        41.65995         1.98696
C         29.18749        42.30902         1.51724
C         30.44212        44.36937         1.11131
C         29.21756        43.64659         1.09250
C         30.38912        45.84722         0.85463
C         29.43142        46.20551        -0.30241
C         30.40422        48.39979         0.03070
C         29.27722        47.72030        -0.34663
C         30.48752        50.32122        -0.93138
C         29.21975        50.53227        -1.59038
C         32.66098        20.40769        -0.44837
C         31.47066        21.06699        -0.57604
C         32.75008        23.17467        -1.19643
C         31.40493        22.42698        -1.10713
C         32.74600        24.64276        -1.04557
C         31.49434        25.34852        -0.89421
C         32.76463        27.53193        -0.84727
C         31.49134        26.78055        -0.72200
C         32.82409        28.92211        -0.29264
C         31.57147        29.57279         0.27312
C         32.90586        31.70112         0.24643
C         31.69866        31.07630         0.12622
C         33.00327        33.21079         0.00020
C         31.72866        33.89558         0.42591
C         32.96799        35.99709         0.84939
C         31.72077        35.16403         0.91176
C         32.93616        37.31386         1.61556
C         31.72081        37.96610         1.83790
C         33.00247        40.11404         2.09125
C         31.69524        39.38262         2.43786
C         33.19629        41.41952         2.37434
C         31.40139        42.53999         2.31303
C         32.83649        44.61411         1.99065
C         31.56042        43.81362         1.74813
C         32.92189        45.81791         1.06331
C         31.75354        46.47103         0.67045
C         32.88754        48.59338         0.01827
C         31.72855        47.83244         0.20566
C         32.96300        49.84307        -0.76256
C         31.78702        50.49089        -1.38911
C         33.20205        51.89101        -2.84733
C         31.99257        51.41225        -2.49493
C         35.17949        18.83947        -0.36846
C         35.17430        20.27127        -0.56442
C         33.93206        21.03787        -0.65613
C         35.21594        23.14914        -0.84712
C         33.98868        22.43141        -0.88569
C         35.23427        24.55308        -0.94891
C         33.99716        25.28504        -1.02111
C         35.34049        27.44041        -0.82758
C         34.03666        26.76238        -1.07075
C         35.38909        28.75436        -0.10696
C         34.11941        29.46263         0.24015
C         35.43652        31.60528         0.40722
C         34.11321        30.92247         0.73575
C         35.50329        33.09815         0.51478
C         34.22791        33.85139         0.63223
C         35.41314        35.75436         1.63826
C         34.20249        35.14475         1.04648
C         35.44005        37.23561         1.93803
C         34.18401        37.98043         1.80234
C         35.50271        40.19862         1.73930
C         34.19993        39.43938         1.44004
C         35.49801        41.55635         1.73249
C         34.17071        42.28176         1.59603
C         35.43093        44.46953         1.53475
C         34.20777        43.74332         2.10788
C         35.37140        45.88080         1.27463
C         34.16069        46.53360         0.99464
C         35.41631        48.53374         0.22379
C         34.10212        48.04178         0.76519
C         35.46909        49.71332        -0.67426
C         34.20889        50.34788        -1.13074
C         35.56756        52.34047        -1.96819
C         34.46130        51.32517        -2.26765
C         35.57548        53.66182        -2.44212
C         37.62693        18.74670        -0.29490
C         36.34062        18.13828        -0.15118
C         37.62416        20.12673        -0.79915
C         36.38846        20.92268        -0.70535
C         37.76071        23.05520        -1.00053
C         36.48495        22.41062        -0.49349
C         37.78022        24.50510        -1.04409
C         36.52131        25.25758        -0.89629
C         37.82299        27.41603        -0.98079
C         36.56504        26.62301        -0.74637
C         37.86084        28.80533        -0.37159
C         36.69678        29.44969        -0.04395
C         37.99392        31.57634         0.54311
C         36.71119        30.82113         0.53618
C         38.01346        33.05654         0.76296
C         36.78319        33.73565         0.86051
C         38.00916        35.82252         1.67006
C         36.73017        35.03745         1.52678
C         37.90469        37.28118         1.23195
C         36.76115        37.97830         1.97333
C         38.03149        40.16021         1.57535
C         36.79759        39.49605         2.16323
C         38.07449        41.61050         1.73491
C         36.71996        42.37422         1.91655
C         37.92995        44.49178         1.39665
C         36.66935        43.80693         1.55945
C         37.93759        45.91093         1.37562
C         36.64396        46.63119         1.40231
C         37.89307        48.73417         0.66878
C         36.63152        48.10654         0.97836
C         37.87884        50.12184         0.18774
C         36.67234        50.60493        -0.56420
C         37.93579        52.60466        -1.37133
C         36.74595        51.85031        -1.37193
C         37.91401        53.95397        -1.77897
C         36.69970        54.47344        -2.27942
C         40.04175        16.09341         0.70942
C         38.88088        16.72120         0.36057
C         40.11888        18.81933        -0.11443
C         38.85633        18.10053        -0.04306
C         40.17390        20.17669        -0.48290
C         38.94796        20.85186        -0.93029
C         40.23319        22.95262        -1.30136
C         38.92891        22.32983        -1.03135
C         40.25261        24.48040        -1.34388
C         38.98747        25.18097        -1.11168
C         40.35351        27.31970        -0.59671
C         39.05561        26.60276        -0.69430
C         40.34051        28.80730        -0.47492
C         39.14672        29.48199        -0.31284
C         40.46405        31.50677         0.41710
C         39.17949        30.99335        -0.20026
C         40.50373        32.90352         0.98071
C         39.24282        33.67709         1.04699
C         40.53230        35.89457         1.18058
C         39.29741        35.09666         1.47937
C         40.39867        37.35175         0.86644
C         39.22074        38.02807         1.14493
C         40.40486        40.21245         0.89680
C         39.18340        39.47895         1.17239
C         40.40963        41.65089         0.91999
C         39.23247        42.36479         1.27065
C         40.40157        44.52006         1.11074
C         39.18054        43.78973         1.27831
C         40.39406        45.94556         1.16800
C         39.14873        46.62338         1.29054
C         40.33581        48.69773         0.70013
C         39.10018        48.14594         1.33918
C         40.39083        50.04260         0.08680
C         39.16905        50.93622         0.12002
C         40.43922        52.79162        -0.94924
C         39.23844        51.88051        -1.11604
C         40.37221        54.12824        -1.20029
C         39.11239        54.77850        -1.56955
C         40.14234        56.94281        -1.05568
C         39.05118        56.15586        -1.54709
C         42.48460        16.13518         1.06169
C         41.29573        16.78814         0.67957
C         42.59344        18.82614         0.20242
C         41.33930        18.14875         0.25823
C         42.63003        20.21836        -0.17980
C         41.41802        20.90015        -0.48303
C         42.69908        22.97648        -0.86695
C         41.47804        22.26710        -0.88704
C         42.72896        24.43064        -1.08192
C         41.53963        25.15314        -1.11837
C         42.85557        27.27997        -0.96665
C         41.53763        26.64750        -1.26641
C         42.88560        28.66763        -0.38393
C         41.61587        29.48596        -0.37223
C         42.98176        31.51518         0.14883
C         41.71049        30.81189         0.01563
C         42.99180        32.96172         0.35527
C         41.86203        33.62201         1.13030
C         42.69002        35.87636        -0.12358
C         41.80817        35.15759         0.91477
C         42.80061        37.36621         0.19031
C         41.61514        38.06951         0.53453
C         42.79181        40.23119         0.22350
C         41.60048        39.50522         0.57085
C         42.82672        41.65786         0.42544
C         41.62500        42.37761         0.68722
C         42.80995        44.56204         0.58385
C         41.62325        43.82017         0.82816
C         42.89791        45.95492         0.86183
C         41.66174        46.67460         1.15109
C         42.64951        49.00081         1.39245
C         41.59633        48.07444         1.13256
C         42.78803        50.26968         0.88058
C         41.71386        50.75559        -0.01414
C         42.85534        53.03192        -0.13243
C         41.71721        52.15952        -0.52363
C         42.82526        54.36180        -0.50453
C         41.63753        54.96752        -1.23130
C         42.41534        57.15195        -0.14072
C         41.36990        56.39431        -0.79152
C         43.70272        16.79427         1.00056
C         45.08693        18.77417         0.38969
C         43.78996        18.13082         0.55636
C         45.11662        20.11791        -0.22001
C         43.86720        20.91697        -0.27343
C         45.18706        23.10173        -0.40905
C         43.90776        22.28971        -0.55384
C         45.22307        24.29073        -1.44578
C         43.98167        25.12381        -1.23021
C         45.29029        27.27152        -1.61687
C         44.02376        26.54423        -1.16590
C         45.28420        28.77093        -1.27478
C         44.05566        29.49265        -0.84423
C         45.42197        31.52063        -0.19179
C         44.13380        30.84602        -0.23593
C         45.40714        33.06133        -0.07329
C         44.10172        33.71510         0.02909
C         45.31730        35.93154        -0.02212
C         44.04907        35.16122        -0.45787
C         45.24174        37.40030        -0.42598
C         43.96463        38.09013        -0.20833
C         44.93943        40.12849        -1.19663
C         43.90811        39.50350        -0.30273
C         45.32302        41.87002         0.52480
C         44.06116        42.40412         0.31041
C         45.15729        44.57390        -0.42942
C         43.86339        43.80117        -0.22752
C         45.18964        46.06332        -0.19204
C         44.12719        46.67153         0.60675
C         45.43438        48.80276         0.54589
C         44.47303        47.94607         1.11890
C         45.34903        50.33590         0.44568
C         44.06582        51.05500         1.15163
C         44.97431        53.38375         0.98208
C         43.94565        52.49361         0.64590
C         45.16387        54.65383         0.40918
C         44.03669        55.26667        -0.39110
C         43.63715        56.63712         0.12105
C         47.54854        18.81833         0.54951
C         46.28388        18.16260         0.69397
C         47.66905        20.11544         0.13525
C         46.45932        20.82869        -0.33248
C         47.70217        22.96900        -0.29739
C         46.46300        22.30135        -0.38928
C         47.78348        24.39477        -0.72465
C         46.54470        25.07661        -1.29153
C         47.75847        27.21178        -1.07627
C         46.56445        26.54931        -1.23464
C         47.79153        28.68115        -1.30445
C         46.57456        29.37001        -0.75039
C         47.79279        31.58788        -0.90032
C         46.60465        30.86577        -0.74420
C         47.74591        33.04878        -0.86040
C         46.60271        33.77841        -0.55687
C         47.67196        35.95519        -0.95326
C         46.55962        35.22990        -0.57963
C         47.67628        37.41008        -0.90908
C         46.38603        38.08230        -0.77204
C         47.54347        40.34609        -0.98334
C         46.33055        39.48549        -1.34270
C         47.57174        41.72140        -0.83596
C         46.65254        42.48972         0.14315
C         47.55799        44.64007        -1.07060
C         46.54288        44.01653        -0.11189
C         47.52536        46.13490        -0.99841
C         46.48367        46.77721        -0.31736
C         47.71889        48.92365        -0.44894
C         46.53538        48.18371        -0.12041
C         47.84743        50.29858        -0.01679
C         46.77780        50.85152         0.91762
C         47.81727        53.15418         0.42266
C         46.86697        52.34108         1.01130
C         47.66047        54.58536         0.41206
C         46.44707        55.25991         0.37733
C         50.14746        20.29097         0.79403
C         49.00951        20.79769        -0.06747
C         50.15522        23.07036         0.07338
C         48.89508        22.30574         0.00721
C         50.07157        24.53747         0.34758
C         48.92932        25.21674        -0.30522
C         50.16292        27.34675        -0.33630
C         48.97013        26.55630        -0.63170
C         50.25756        28.71669        -0.72558
C         49.08124        29.43194        -1.28490
C         50.25153        31.66212        -1.23058
C         49.01627        30.90865        -1.17592
C         50.26076        33.10957        -1.14107
C         48.95453        33.76766        -1.29890
C         50.21235        35.99762        -1.38422
C         48.90353        35.25837        -1.37766
C         50.14451        37.49828        -1.36423
C         48.84042        38.14439        -1.04587
C         50.11790        40.32565        -0.79519
C         48.81018        39.59005        -0.61900
C         50.08492        41.76483        -0.83477
C         48.86710        42.42567        -0.90378
C         50.14382        44.65031        -1.12690
C         48.84173        43.87249        -1.26440
C         50.32034        45.94454        -1.88487
C         48.47031        46.97098        -1.62612
C         49.98217        49.01048        -1.60716
C         48.70903        48.30642        -1.24915
C         49.95609        50.53386        -1.42142
C         48.91011        51.06423        -0.44269
C         50.14574        53.17575        -0.46738
C         48.97964        52.49474        -0.18201
C         51.28590        20.99048         0.94710
C         52.62562        23.18878         0.81925
C         51.42637        22.38089         0.45068
C         52.60583        24.58350         0.99861
C         51.27283        25.32268         0.82516
C         52.16144        27.67256         0.94945
C         51.19301        26.78598         0.46723
C         52.41059        28.95139         0.43427
C         51.37818        29.48796        -0.36699
C         52.46064        31.71346         0.10546
C         51.51922        30.90192        -0.75911
C         52.56329        33.15711        -0.30643
C         51.44848        33.83503        -0.83686
C         52.55379        36.00372        -0.45456
C         51.44394        35.28631        -0.93266
C         52.46068        37.47394        -0.30736
C         51.47171        38.23977        -1.17030
C         52.57177        40.38365        -0.51458
C         51.32444        39.66990        -0.72975
C         52.59414        41.78885        -0.64606
C         51.35625        42.48088        -0.90709
C         52.66938        44.55743        -1.25519
C         51.39102        43.82991        -1.16603
C         52.65460        46.06835        -1.37020
C         51.36312        46.76876        -1.57015
C         52.60038        48.96669        -1.36562
C         51.32809        48.24947        -1.71079
C         52.57516        50.38028        -1.25437
C         51.33242        51.14001        -1.15306
C         51.33804        52.47641        -0.82249
C         55.08810        23.08491         0.75787
C         53.87655        22.48278         0.66938
C         55.18632        24.46593         1.31789
C         53.87615        25.22505         1.21653
C         55.10636        27.38437         1.03161
C         54.01345        26.60312         1.45469
C         54.97378        28.79491         0.58328
C         53.71422        29.62412         0.56554
C         55.02405        31.73531         0.24399
C         53.78354        30.97026         0.26461
C         54.99066        33.12103         0.20824
C         53.69280        33.89247         0.34371
C         54.92523        36.10369         0.22569
C         53.74359        35.35731        -0.01756
C         54.95360        37.50614         0.23837
C         53.69866        38.24681         0.09632
C         54.95902        40.40180         0.14014
C         53.75522        39.69745        -0.16017
C         54.97907        41.84621         0.01772
C         53.81192        42.51697        -0.44995
C         55.05618        44.65589        -0.54924
C         53.86932        43.91136        -0.70723
C         55.03542        46.09247        -0.77966
C         53.86571        46.81297        -1.02498
C         55.04653        48.98062        -0.92131
C         53.82399        48.25931        -1.11941
C         55.00504        50.39512        -0.95895
C         53.81066        51.06577        -1.09309
C         57.66929        24.62661         0.72877
C         56.40652        25.28445         0.92052
C         57.57783        27.46373         0.78313
C         56.35565        26.69459         0.85413
C         57.56658        28.84643         0.65774
C         56.29435        29.54762         0.36797
C         57.50257        31.69543         0.46832
C         56.29114        31.02393         0.37642
C         57.52539        33.15311         0.18946
C         56.23808        33.88424         0.40111
C         57.46447        36.15799         0.20230
C         56.20579        35.37724         0.43966
C         57.41323        37.61021         0.46000
C         56.17826        38.26037         0.41724
C         57.28560        40.39586         1.17360
C         56.12241        39.69593         0.50873
C         57.24848        41.93487         1.04299
C         56.13490        42.60111         0.32188
C         57.45628        44.69877         0.17432
C         56.22044        43.98048        -0.02249
C         57.58557        46.07429        -0.33581
C         56.30827        46.82307        -0.80552
C         57.52399        48.94623        -0.55427
C         56.30271        48.28622        -0.75419
C         58.84523        25.31391         0.74495
C         60.08172        27.52108         0.80315
C         58.85090        26.75266         1.17860
C         60.04402        28.86177         0.65690
C         58.79420        29.60446         0.68707
C         59.96549        31.80463         0.78750
C         58.76277        31.00873         0.61604
C         60.00429        33.15620         0.66956
C         58.82506        33.91770         0.21450
C         59.92242        36.23912         0.76543
C         58.79354        35.44029         0.22489
C         59.86614        37.57975         0.85640
C         58.70517        38.37985         0.29142
C         59.78388        40.57632         0.88483
C         58.62602        39.80710         0.78279
C         59.78347        41.92719         1.22141
C         58.53349        42.70183         1.21715
C         59.74999        44.89953         1.02153
C         58.58084        44.12172         0.77661
C         59.79750        46.25295         0.74998
C         58.71564        46.90071         0.09943
C         58.68951        48.27963        -0.14877
O         51.10252        22.62716        -0.98623
O         45.95935        52.93645         1.89939
O         28.87633        25.98742         0.71081
O         27.41613        45.44490        -1.47304
O         36.25254        37.37972         3.18023
O         44.49330        29.51494        -2.24994
O         37.55877        42.08980         3.03504
O         51.34443        31.17510        -2.12334
O         37.51718        30.89951         1.75410
O         32.71274        28.72323        -1.72193
O         45.82638        20.18445        -1.50447
O         39.76087        26.70753         0.59804
O         29.06378        31.66424        -2.12081
O         26.20362        36.56659        -1.19881
O         34.73924        28.58540         1.23213
O         34.79763        27.37057        -2.19279
O         40.29210        23.66077        -2.57171
O         55.58426        28.94133        -0.76244
O         47.55963        24.52293        -2.18686
O         35.91562        34.96121         2.75630
O         48.41474        29.01660        -2.56222
O         45.69941        32.21017         1.07912
O         44.96785        45.46298        -1.55389
O         48.76540        34.45752        -2.60276
O         50.59951        48.71374        -2.89810
O         32.34236        42.09047         3.23664
O         58.21996        35.90461        -1.04871
O         42.15376        51.02873        -1.40774
O         50.22685        36.77626        -2.64611
O         58.25020        33.42172        -1.04781
O         30.33337        49.76159         0.34446
O         24.70229        29.59526         0.41473
O         38.31602        20.24239        -2.11356
O         52.61490        37.90471         1.06598
O         23.80857        35.29489        -1.78571
O         57.25966        46.23578        -1.74965
O         32.67303        45.32747         3.19802
O         29.46778        37.44102         2.80714
O         50.24401        24.87591         1.77397
O         38.77191        35.43710         2.83096
O         57.57155        42.54395         2.35159
O         52.91131        45.20098        -2.55989
O         40.25018        48.86315        -0.76547
O         41.62091        35.81104         2.19549
O         35.49885        32.37243        -0.83014
O         52.93037        27.26505         2.03031
O         35.65097        48.34656        -1.21220
O         32.06800        22.65617        -2.38826
O         49.24895        46.41482        -2.63962
O         26.25604        33.98418        -2.22252
O         43.70216        48.48519         2.17269
O         56.23399        34.61971         1.71355
O         47.50018        42.23569         1.27091
O         36.83447        50.94282         0.87858
O         36.51220        47.71275         2.39392
O         47.89020        44.08454        -2.36447
O         40.41476        31.70609         1.85288
O         41.91732        35.94656        -1.30578
O         44.62532        40.98451        -2.01613
O         24.16476        38.37443         2.91396
O         53.43844        33.88529         1.81851
H         54.25533        34.25996         2.23169
O         33.75119        42.30360         0.21434
H         33.80069        41.37933        -0.13788
O         29.91620        34.98854         2.43997
H         29.38072        35.60081         2.99981
O         36.60932        22.54270         0.98224
H         35.77125        22.22066         1.37861
O         46.86684        44.61116         1.17486
H         47.29385        43.85719         1.68760
O         55.38450        24.27886         2.79072
H         54.60998        23.77347         3.12022
O         43.20416        28.42934         1.03874
H         42.38867        28.11759         1.48791
O         23.94088        31.76588        -2.50493
H         24.80020        31.75771        -2.99188
O         39.13684        31.53616        -1.54989
H         38.51967        31.00077        -2.09146
O         31.47407        29.27616         1.68775
H         31.12755        28.36584         1.79766
O         44.56100        55.46401        -1.74126
H         43.77999        55.59774        -2.33539
O         57.12640        40.05801         2.58979
H         57.34787        40.88050         3.09370
O         24.29431        47.04935         1.60442
H         24.26844        46.27760         2.20935
O         58.84408        26.71052         2.65913
H         58.07394        26.16192         2.92513
O         46.99814        50.31816         2.24212
H         46.36252        50.78423         2.83511
O         26.75542        37.28888         2.67452
H         25.93411        37.51492         3.17141
O         34.07027        39.49037        -0.03035
H         33.56662        38.69668        -0.32943
O         28.09033        38.47587        -0.53135
H         27.43528        38.13744        -1.18398
O         43.22310        43.65960        -1.52452
H         43.51660        44.41422        -2.08531
O         34.50278        43.68026         3.50465
H         33.90498        44.37631         3.91400
O         44.13111        35.04349        -1.88498
H         43.22600        35.33644        -2.20775
O         49.38349        20.51731        -1.45498
H         50.12736        21.13191        -1.67469
O         25.70665        32.04077         0.73764
H         25.43421        31.12395         1.00799
O         39.45086        51.07223        -2.29625
H         40.37592        50.72805        -2.27524
O         26.56652        31.37523        -2.78123
H         27.46862        31.33440        -3.18163
O         27.84090        41.92850         3.34347
H         27.02035        41.49176         3.68962
O         33.98453        48.62031         2.10025
H         33.39918        48.04237         2.63712
O         52.14129        38.34637        -2.45995
H         51.64723        37.76393        -3.08975
O         58.93329        38.49673        -1.15259
H         58.82529        37.58280        -1.52166
O         46.46850        39.30197        -2.78816
H         45.99695        40.05959        -3.20807
O         45.25697        50.63389        -0.95214
H         44.33240        50.48911        -1.25900
O         50.09555        45.12403         0.28700
H         49.78833        44.37575         0.84664
O         45.37403        35.86147         1.42203
H         46.14337        36.38134         1.73462
O         29.84261        46.43539         2.06851
H         30.46314        46.19886         2.79747
O         35.06570        50.49928        -3.32472
H         34.49803        49.71010        -3.45417
O         42.01999        55.05693        -2.65384
H         42.03283        54.14427        -3.01532
O         45.11424        23.79813         0.87634
H         45.05137        23.13144         1.59242
O         49.54054        51.07700        -2.70972
H         49.98686        50.53171        -3.39777
O         46.61419        28.96656         0.66426
H         45.94752        29.49000         1.16197
O         34.01812        30.90271         2.17411
H         34.39458        30.04822         2.48799
O         30.11001        36.06586        -1.02384
H         29.58405        35.87420        -1.82890
O         30.05211        45.74504        -1.52034
H         29.32786        45.61736        -2.17463
O         26.79137        27.05754        -2.85350
H         26.00312        26.63139        -3.25503
O         33.05937        36.48291        -0.54234
H         32.86983        35.71730        -1.13483
O         37.86031        27.63206        -2.43110
H         36.93680        27.65327        -2.76834
O         37.41262        37.21016        -0.15125
H         38.17839        37.16967        -0.76423
O         48.66623        39.56540         0.86362
H         48.44513        40.50198         1.13344
O         42.27715        33.40610         2.49596
H         41.97757        34.18430         3.02331
O         45.51039        40.79857         1.30821
H         46.48217        40.90510         1.58126
O         45.23162        27.17214        -3.06322
H         44.75620        27.97093        -3.39115
O         36.90905        39.73380         3.58805
H         36.46343        38.98258         4.04722
O         31.61050        39.22256         3.87021
H         30.78077        38.72952         4.05913
O         45.16496        23.73094        -2.75864
H         46.09347        23.61693        -3.07007
O         44.30712        51.08909         2.56754
H         44.13225        50.18242         2.91484
O         39.27092        51.73771         1.31015
H         38.35168        51.89603         1.63068
O         51.82094        31.71845         1.42330
H         52.28629        32.41412         1.95429
O         39.09003        48.55635         2.73451
H         38.19674        48.32295         3.09050
O         41.29901        26.91453        -2.70049
H         41.92942        26.37023        -3.22046
O         25.58725        40.50100         3.53578
H         25.38231        39.64592         3.97666
O         33.10830        33.43833        -1.43743
H         33.95569        33.02104        -1.72758
H         21.98271        27.37831        -1.55382
H         22.04654        29.84832        -1.54191
H         22.30396        31.60405         0.12086
H         22.33965        34.02398         0.38378
H         21.80502        35.99462        -0.09932
H         21.92808        37.80204         1.53647
H         21.98788        39.86404         2.13225
H         22.03786        42.16673         1.37268
H         22.09337        43.83421         0.27075
H         22.13185        46.22975        -0.18079
H         25.10823        23.81744        -1.18477
H         23.09535        25.19413        -1.38467
H         25.51775        49.26726        -1.57326
H         23.42846        48.22895        -0.92151
H         26.77571        22.73496        -1.20824
H         27.20741        50.05215        -1.88436
H         28.87088        21.49763        -1.08437
H         29.11172        51.36396        -2.30408
H         32.64051        19.37246        -0.08128
H         30.54661        20.58694        -0.22338
H         33.28848        52.60842        -3.67555
H         31.09240        51.80723        -2.98952
H         34.22492        18.30099        -0.30366
H         34.67789        54.08219        -2.91706
H         36.26650        17.07180         0.10238
H         36.64865        55.51895        -2.61438
H         40.03098        15.03863         1.01947
H         37.94028        16.15565         0.39288
H         39.95974        58.00324        -0.82597
H         38.10802        56.67057        -1.77635
H         42.44092        15.08917         1.39683
H         42.17252        58.17872         0.17576
H         44.61194        16.24963         1.28680
H         44.40127        57.24750         0.62437
H         48.44282        18.24211         0.82556
H         46.29790        17.14022         1.09463
H         48.55465        55.18880         0.19516
H         46.48527        56.32533         0.09994
H         50.08635        19.27912         1.22110
H         50.22164        54.25476        -0.27787
H         52.11050        20.57363         1.54570
H         52.27466        53.04539        -0.75074
H         55.99936        22.51161         0.54041
H         53.82127        21.43257         0.34661
H         55.92843        50.97939        -0.85788
H         53.83508        52.16214        -1.08417
H         57.68441        23.54061         0.55697
H         57.56887        50.04167        -0.61887
H         59.80217        24.78881         0.61053
H         61.03761        26.97992         0.74140
H         60.97362        29.40686         0.44059
H         60.88573        31.28615         1.09058
H         60.93909        33.69192         0.88718
H         60.79911        35.70386         1.15986
H         60.72112        38.11862         1.29123
H         60.75654        40.09706         0.69685
H         60.74394        42.45734         1.27155
H         60.60968        44.42928         1.51710
H         60.68259        46.84045         1.03311
H         59.58438        48.87534         0.08295
