         424
 CSIRO Nanostructure Databank - Neutral Graphene Oxide Data Set
C          1.50798         2.02407        -1.66539
C          1.48826         3.46367        -1.63865
C          2.63754         1.32365        -1.36630
C          2.55655         4.19540        -1.18576
C          1.41490         6.38509        -1.50997
C          1.38951         7.76780        -1.47519
C          2.56496         5.65343        -1.13335
C          2.52603         8.50999        -1.08529
C          1.34051        10.69043        -1.35574
C          1.33744        12.07007        -1.38055
C          2.52007         9.95719        -1.06694
C          2.52577        12.81084        -1.16668
C          1.34562        15.01607        -1.40889
C          1.36931        16.39578        -1.48289
C          2.53769        14.26050        -1.24003
C          2.59317        17.10667        -1.41057
C          2.63898        18.53635        -1.49662
C          3.85631         2.02518        -1.00815
C          3.70569         3.45529        -0.53760
C          5.05769         1.39817        -1.01022
C          4.99747         4.23111        -0.51089
C          3.72099         6.36636        -0.71188
C          3.70802         7.80211        -0.71210
C          4.94410         5.65216        -0.38962
C          4.86122         8.54418        -0.31027
C          3.71375        10.67263        -0.77984
C          3.72418        12.10029        -0.88139
C          4.90309         9.95676        -0.38680
C          4.96223        12.81387        -0.73466
C          3.77286        14.95082        -1.14804
C          3.80322        16.37687        -1.25004
C          4.99662        14.22544        -0.93273
C          5.04582        17.07895        -1.20120
C          3.83055        19.20977        -1.44096
C          5.07239        18.50282        -1.30220
C          6.35401         2.14407        -0.89502
C          6.21042         3.56312        -0.39705
C          7.45978         1.39638        -0.21897
C          7.39069         4.26028         0.00539
C          6.10778         6.35161        -0.00704
C          6.00960         7.80338         0.22228
C          7.33512         5.67354         0.22815
C          7.30698         8.57158         0.46272
C          6.12778        10.68243        -0.15571
C          6.15629        12.11541        -0.39074
C          7.33006        10.00681         0.15711
C          7.37251        12.82626        -0.31370
C          6.23802        14.91554        -0.91624
C          6.27103        16.35668        -1.08526
C          7.43411        14.19662        -0.64766
C          7.48674        17.05587        -1.08775
C          6.30710        19.18262        -1.27034
C          7.52019        18.47587        -1.17001
C          8.60054         2.08340         0.18770
C          8.59274         3.53381         0.25611
C          9.79895         1.38323         0.51962
C          9.77123         4.22197         0.66121
C          8.54692         6.38346         0.56286
C          8.57201         7.82556         0.53529
C          9.75289         5.66603         0.76601
C          9.76215         8.55107         0.61649
C          8.58401        10.67519         0.25005
C          8.61535        12.18292         0.26166
C          9.76939         9.97330         0.49623
C          9.87596        12.69241        -0.42580
C          8.71884        14.87681        -0.69905
C          8.78547        16.30352        -1.19487
C          9.89839        14.19994        -0.50881
C          9.93538        17.05068        -0.52821
C          8.79215        19.16484        -1.17499
C          9.98879        18.50494        -0.94965
C         10.97584         2.07055         0.83580
C         10.95480         3.49485         0.92352
C         12.22169         1.36061         1.00945
C         12.17622         4.20136         1.44580
C         10.99303         6.36302         0.96619
C         11.00173         7.86553         1.12770
C         12.18995         5.66735         1.09409
C         12.29064         8.51903         0.69315
C         11.06090        10.72331         0.79308
C         11.12657        12.08889         0.15441
C         12.31877         9.92252         0.50349
C         12.33030        12.73513        -0.02785
C         11.18626        14.86241        -0.61661
C         11.23166        16.30159        -0.74378
C         12.35666        14.11557        -0.47681
C         12.41946        16.99189        -0.84485
C         11.24920        19.16149        -0.96639
C         12.45587        18.44826        -0.86632
C         13.43705         2.02590         1.07149
C         13.45953         3.48034         1.11607
C         14.69030         1.31857         1.09556
C         14.64101         4.17211         1.00048
C         13.44793         6.35090         0.99747
C         13.46186         7.74798         0.70303
C         14.66595         5.61666         1.00351
C         14.75328         8.37818         0.40603
C         13.53316        10.62009         0.33228
C         13.59142        12.03294         0.18127
C         14.80010         9.87976         0.22666
C         14.84807        12.69546         0.08021
C         13.65653        14.74237        -0.72968
C         13.68878        16.25867        -0.97356
C         14.89691        14.09041        -0.28481
C         14.94571        16.96016        -0.68767
C         13.71685        19.10202        -0.86842
C         14.93439        18.41050        -0.73744
C         15.90378         1.97751         0.98628
C         15.91050         3.44467         0.61795
C         17.15359         1.29549         1.00333
C         17.16158         4.16196         1.05543
C         15.92354         6.29718         1.00321
C         15.97848         7.69566         0.83500
C         17.15024         5.55642         1.17130
C         17.18488         8.42609         0.99626
C         16.05774        10.58096         0.55621
C         16.07070        12.00746         0.39578
C         17.20337         9.86629         0.90271
C         17.31756        12.70377         0.43037
C         16.09100        14.81102        -0.28884
C         16.10596        16.23689        -0.44459
C         17.39428        14.05008        -0.25334
C         17.33694        17.00316        -0.02024
C         16.18212        19.09299        -0.75595
C         17.38686        18.41336        -0.55153
C         18.37435         1.97956         1.03327
C         18.37914         3.43622         1.17633
C         19.62441         1.31765         0.87797
C         19.58191         4.11496         1.39736
C         18.37386         6.28537         1.35490
C         18.36686         7.68669         1.30673
C         19.61662         5.53985         1.46964
C         19.66447         8.39577         1.30866
C         18.41042        10.64798         1.39812
C         18.49336        12.07005         0.86609
C         19.70979         9.88206         1.21904
C         19.71862        12.79800         0.98021
C         18.60297        14.86055         0.13487
C         18.63885        16.24676        -0.13176
C         19.73744        14.16362         0.61680
C         19.87231        16.95705        -0.28084
C         18.62871        19.06632        -0.62129
C         19.87557        18.40633        -0.49887
C         20.84368         1.97939         1.05485
C         20.83044         3.33726         1.71805
C         22.07568         1.39585         0.70303
C         22.10742         4.12236         1.53776
C         20.84455         6.20363         1.61457
C         20.80896         7.65849         1.95938
C         22.10040         5.50181         1.61070
C         22.12352         8.37156         1.87122
C         21.01011        10.60304         1.50854
C         21.01089        12.11269         1.37445
C         22.13227         9.74377         2.01788
C         22.19598        12.96783         1.74259
C         20.94750        14.98836         0.79908
C         21.06018        16.21833        -0.01087
C         22.20212        14.37248         1.29093
C         22.35045        16.65681        -0.32104
C         21.03626        19.24168        -0.39591
C         22.35331        18.79617        -0.57868
C         23.31424         2.04521         0.86275
C         23.39058         3.34511         1.64345
C         24.49506         1.45508         0.40478
C         24.61632         4.17462         1.33759
C         23.35547         6.25716         1.70841
C         23.35695         7.63075         1.89480
C         24.61390         5.54828         1.54323
C         24.66288         8.34341         2.19251
C         23.39574        10.33965         2.38826
C         23.33028        12.56021         2.36739
C         24.62464         9.85275         2.04834
C         24.71630        13.14504         2.30673
C         23.51202        14.99075         1.02281
C         23.54714        16.22790         0.30673
C         24.68491        14.37376         1.42997
C         24.74414        17.02875         0.32558
C         23.58745        19.29160        -0.11784
C         24.75220        18.48290         0.06074
C         25.75018         2.10323         0.48053
C         25.83298         3.49120         0.94744
C         26.90228         1.47096        -0.00069
C         27.03702         4.15614         0.93470
C         25.85611         6.30864         1.48276
C         25.88658         7.67683         1.64812
C         27.14843         5.54289         1.50847
C         27.10729         8.46199         1.54710
C         25.91688        10.65687         2.27737
C         25.87484        12.17686         1.89383
C         27.10433         9.87911         1.66008
C         27.04496        12.83547         1.55618
C         25.92154        15.02966         1.19478
C         25.90787        16.40705         0.80434
C         27.11728        14.28788         1.38102
C         27.12614        17.19497         1.18102
C         25.99349        19.15363         0.12398
C         27.20075        18.53073         0.49529
C         28.16465         2.10503         0.01623
C         28.32586         3.40003         0.77441
C         29.27606         1.52125        -0.56791
C         29.46413         4.25977         0.27213
C         28.32501         6.34545         1.01007
C         28.31394         7.76209         1.16954
C         29.47338         5.67282         0.53412
C         29.53838         8.48820         1.03228
C         28.31176        10.58309         1.40714
C         28.25885        12.06485         1.05959
C         29.52888         9.89473         1.21279
C         29.59444        12.77222         1.29053
C         28.36425        15.01164         1.27430
C         28.39441        16.38112         1.12011
C         29.63855        14.26242         1.39005
C         29.66622        17.16521         1.34345
C         28.43329        19.16383         0.35323
C         29.66359        18.52822         0.67039
C         30.51523         2.22392        -0.67281
C         30.57071         3.63084        -0.29910
C         31.63207         1.60186        -1.21627
C         31.78031         4.36552        -0.54407
C         30.68155         6.41613         0.29040
C         30.74163         7.79666         0.62659
C         31.84207         5.75319        -0.20955
C         31.98709         8.47977         0.52594
C         30.83802        10.63287         1.46544
C         30.82935        12.02973         0.79011
C         32.09431         9.84943         1.06411
C         32.13313        12.79614         0.98163
C         30.90514        14.98103         1.10244
C         30.91220        16.37418         1.03218
C         32.12566        14.24393         0.98907
C         32.12252        17.07986         0.81004
C         30.86632        19.18665         0.48679
C         32.12596        18.51886         0.65978
C         32.85818         2.30286        -1.40135
C         32.92004         3.70444        -1.06294
C         33.98842         1.65453        -1.90872
C         34.14038         4.41689        -1.24120
C         33.06401         6.47019        -0.38568
C         33.13642         7.84909        -0.00379
C         34.21409         5.80139        -0.89930
C         34.37993         8.56817        -0.20230
C         33.34900        10.61958         0.76421
C         33.33434        12.10220         0.80664
C         34.47050         9.94835         0.07982
C         34.57607        12.77062         0.60455
C         33.33853        14.95445         0.86612
C         33.34372        16.36343         0.74066
C         34.66385        14.23446         0.95492
C         34.58120        17.09825         0.59262
C         33.33317        19.21131         0.60339
C         34.58084        18.52054         0.61474
C         35.21462         2.34471        -2.08335
C         35.28982         3.73871        -1.74342
C         36.36075         1.68321        -2.57529
C         36.51672         4.43673        -1.90001
C         35.44884         6.50586        -1.06575
C         35.52480         7.89347        -0.73583
C         36.59840         5.82765        -1.56112
C         36.75271         8.59685        -0.91948
C         35.66385        10.67600        -0.15238
C         35.71818        12.09045         0.12955
C         36.82749         9.99510        -0.62625
C         36.95699        12.79478        -0.10666
C         35.70422        14.93912         0.09771
C         35.80148        16.40242         0.43117
C         37.02128        14.21057         0.07374
C         37.01672        17.08522         0.43527
C         35.82714        19.20298         0.60142
C         37.02532        18.49888         0.56882
C         37.57916         2.36210        -2.72881
C         37.66404         3.75057        -2.38808
C         38.75049         1.69141        -3.21737
C         38.90216         4.44346        -2.53303
C         37.83472         6.52299        -1.71346
C         37.91284         7.90861        -1.39176
C         38.99356         5.82940        -2.19486
C         39.15580         8.60520        -1.54166
C         38.06222        10.69186        -0.77829
C         38.12666        12.09547        -0.50207
C         39.23074        10.00066        -1.23099
C         39.35133        12.81468        -0.69479
C         38.21905        14.90465        -0.02444
C         38.32724        16.32707         0.48561
C         39.40215        14.22247        -0.45573
C         39.46300        17.10116        -0.13784
C         38.35957        19.18563         0.73976
C         39.44775        18.50463        -0.05821
C         39.93790         2.35903        -3.35396
C         40.04601         3.74699        -3.01531
C         41.26921         4.44651        -3.14904
C         40.23450         6.50899        -2.33912
C         40.31531         7.91432        -2.00096
C         41.35816         5.78625        -2.81940
C         41.52755         8.63340        -2.11886
C         40.46201        10.70183        -1.38832
C         40.52411        12.12748        -1.12785
C         41.59784         9.98307        -1.82394
C         41.70799        12.86959        -1.31164
C         40.58547        14.96060        -0.75503
C         40.56148        16.42718        -0.71656
C         41.73040        14.25248        -1.15288
C         41.60297        17.19628        -1.27672
C         40.49841        19.24548        -0.61542
C         41.56295        18.58790        -1.23657
O         22.47201        17.60556        -1.33302
O         13.76010        15.31469        -2.08597
O         21.45194        11.24843         0.24397
O         21.35300        15.19796         2.21943
O         23.27640        11.45890         3.20534
O         29.72495        13.38760         2.58723
O         33.13016         9.98457         2.10340
O         19.86358         9.06736         0.02191
O         14.86838         8.98419        -0.93577
O          6.39971         8.22065         1.57779
O         28.71739         3.01289         2.14036
H         28.53512         3.79838         2.71574
O          3.32536         3.35507         0.88411
H          2.46658         2.88206         0.91781
O         15.95319         3.47135        -0.85532
H         15.16307         2.98817        -1.17821
O         10.94826         8.09974         2.60127
H         10.08652         7.75074         2.91774
O         20.76192         3.04506         3.17915
H         20.57227         3.89431         3.63372
O         28.07939        12.06484        -0.40979
H         27.24577        11.58903        -0.61416
O          8.69429        12.61121         1.64725
H          7.94426        12.21287         2.13526
O         26.94673        17.51973         2.62648
H         26.77828        16.66818         3.08706
O         17.16600        17.16720         1.44230
H         17.93288        17.68512         1.76896
O         23.52508         2.95739         3.05702
H         22.62437         2.67545         3.35581
O         30.86071        10.82745         2.89100
H         31.78162        10.64618         3.19536
O         35.20068        14.86196        -1.27076
H         35.83244        15.33142        -1.85437
O          6.81910         2.28856        -2.30279
H          7.69759         2.72526        -2.27159
O         20.47588         7.70255         3.39866
H         21.25787         7.37846         3.89504
O         30.73926        11.82588        -0.64247
H         29.78300        11.83017        -0.89733
O          9.66599        17.03883         0.90132
H         10.39224        17.51816         1.35138
O         27.43928         5.32924         2.95850
H         26.59531         5.05893         3.38309
O         29.71222        17.44296         2.78252
H         28.80922        17.76156         3.03051
O         11.08090        10.92052         2.24647
H         11.07188        10.01525         2.64854
O         38.72267        19.10536         2.13417
H         38.81577        18.14519         2.34810
O         38.65552        16.21518         1.92020
H         37.92888        15.71209         2.34851
O         17.65803        13.72004        -1.67252
H         16.93010        13.13761        -1.97995
O         24.82524         8.17506         3.66113
H         25.48262         8.85647         3.95344
O         25.06140        13.56474         3.66931
H         24.33756        14.13858         3.99961
O         18.26563        10.76420         2.85284
H         17.44547        11.26907         3.03691
O          9.10442        16.23445        -2.61782
H          8.37585        15.75723        -3.06710
O         12.07390         4.15661         2.92254
H         11.24798         4.62467         3.16963
O         35.12378        14.32417         2.33749
H         34.43433        13.92890         2.91201
O          9.81120        12.21084        -1.80905
H         10.57157        12.59500        -2.29551
O         26.18441        10.65138         3.71503
H         25.71743        11.42587         4.10395
H          0.60085         1.49729        -1.99336
H          0.58533         3.95818        -2.02310
H          2.67006         0.23068        -1.48668
H          0.50875         5.85535        -1.83188
H          0.46576         8.28039        -1.77300
H          0.39891        10.16289        -1.55594
H          0.39533        12.58888        -1.60105
H          0.37599        14.50403        -1.47014
H          0.43017        16.95486        -1.60440
H          1.69444        19.08821        -1.61112
H          5.11514         0.33331        -1.28829
H          3.85235        20.30719        -1.51054
H          7.47943         0.29780        -0.28146
H          6.32127        20.28073        -1.33911
H          9.80794         0.28513         0.45603
H          8.79647        20.24806        -1.37457
H         12.20501         0.26098         0.97491
H         11.28268        20.25319        -1.10746
H         14.67251         0.22572         1.22923
H         13.73819        20.20021        -0.93762
H         17.15572         0.19423         1.01550
H         16.19809        20.17112        -0.97803
H         19.62816         0.26730         0.54735
H         18.63547        20.14827        -0.82700
H         22.06559         0.40249         0.22558
H         20.86991        20.29011        -0.10264
H         24.44864         0.45584        -0.05658
H         23.66982        20.35695         0.14871
H         26.81631         0.46818        -0.44730
H         26.03159        20.20480        -0.20243
H         29.19716         0.51795        -1.01426
H         28.46494        20.17964        -0.07315
H         31.57678         0.54115        -1.50317
H         30.86799        20.23144         0.13816
H         33.93146         0.58637        -2.16557
H         33.32867        20.30897         0.52907
H         36.29697         0.61585        -2.83420
H         35.83955        20.30202         0.65382
H         38.67755         0.62564        -3.47863
H         38.28799        20.26939         0.47372
H         40.83059         1.83585        -3.72685
H         42.15590         3.91260        -3.52035
H         42.32588         6.29106        -2.93899
H         42.44032         8.12574        -2.45676
H         42.56298        10.49288        -1.94109
H         42.63455        12.36819        -1.62057
H         42.66938        14.78676        -1.35075
H         42.45847        16.70311        -1.75769
H         40.48505        20.34316        -0.55408
H         42.38299        19.16973        -1.68008
