         320
 CSIRO Nanostructure Databank - Neutral Graphene Oxide Data Set
C         30.68128        31.30501         1.12136
C         30.63546        32.53495         1.20155
C         30.51363        35.95313         1.39737
C         30.50304        37.16779         1.58364
C         30.39136        40.22231         0.92388
C         30.32334        41.45689         0.95222
C         32.90306        28.74277        -0.56178
C         31.95351        29.18806         0.09790
C         32.86435        31.45404         0.02980
C         31.85044        30.51830         0.71307
C         32.65215        32.96658        -0.03685
C         31.29457        33.66197         0.48815
C         32.75943        35.86746         0.61001
C         31.58008        34.91582         1.33894
C         32.90847        37.29455         1.13557
C         31.67283        38.10044         1.60514
C         32.79513        40.23862         1.00490
C         31.56180        39.33039         0.70667
C         32.75102        41.58848         1.16766
C         31.38830        42.34580         1.52390
C         32.62926        44.38614         1.04094
C         31.57264        43.75693         1.06899
C         35.42904        27.37584        -1.52839
C         35.20949        28.82964        -1.91288
C         33.93673        29.44563        -1.33876
C         35.23185        31.62848        -0.93803
C         33.91330        30.89606        -0.92018
C         35.21013        33.07060        -0.54178
C         33.91705        33.77000        -0.18547
C         35.32927        35.86523         0.29388
C         34.07504        35.06040         0.62556
C         35.39442        37.27736         0.84800
C         34.05115        37.99064         0.89304
C         35.19624        40.21685         0.33657
C         34.12083        39.48477         1.18032
C         35.32477        41.69447         0.82705
C         33.95118        42.44026         0.69508
C         35.15192        44.65661         0.51973
C         34.04411        43.91799         1.23120
C         35.41932        45.94188         0.28133
C         37.91487        27.36316        -1.65553
C         36.56940        26.88835        -1.61485
C         37.84978        28.89320        -1.85567
C         36.51385        29.49668        -1.45047
C         37.76543        31.64505        -1.08981
C         36.51371        30.79166        -0.69502
C         37.74816        32.97027        -0.31808
C         36.48205        33.71622        -0.09834
C         37.82264        35.89893         0.21877
C         36.48643        35.19880         0.05310
C         37.72469        37.38886         0.04346
C         36.58149        38.07687         0.32739
C         37.72645        40.26735         0.14952
C         36.55693        39.54469         0.30146
C         37.77494        41.73071         0.08346
C         36.42177        42.44480         0.02716
C         37.67830        44.65624        -0.23470
C         36.56359        43.91224         0.53740
C         37.73768        46.17912         0.04863
C         36.48760        46.71235         0.18835
C         40.04520        24.55141        -0.76432
C         39.16687        25.24714        -1.29844
C         40.48048        27.28013        -1.59008
C         39.06665        26.66398        -1.55701
C         40.46147        28.89379        -1.50590
C         39.09704        29.56237        -1.28641
C         40.38289        31.71615        -0.96917
C         39.08422        30.88108        -0.96939
C         40.21747        32.97955        -0.10346
C         38.99731        33.76062        -0.53968
C         40.34185        35.95492        -0.62724
C         38.98155        35.24020        -0.53544
C         40.25358        37.33696        -0.06986
C         38.99025        38.11577        -0.37049
C         40.30325        40.24198        -0.00611
C         39.02074        39.47944         0.32851
C         40.24037        41.72109        -0.18692
C         38.93911        42.44080        -0.11284
C         40.18087        44.71836        -0.64790
C         39.03194        43.96607         0.10070
C         40.33559        46.15594        -0.13569
C         39.04399        46.87284         0.34827
C         40.28751        48.89347        -0.38783
C         39.25292        48.27678        -0.13796
C         42.33397        24.64861         0.50743
C         41.49047        24.77103        -0.68253
C         42.75415        27.20844        -0.31848
C         41.31274        26.67571        -0.43424
C         42.82889        28.75343        -0.52194
C         41.45854        29.44948        -0.43370
C         42.75056        31.59409        -0.10160
C         41.61901        30.95306        -0.54684
C         42.64627        32.97354         0.56775
C         41.48637        33.79313         0.03278
C         42.79600        35.89703        -0.03040
C         41.52521        35.14774        -0.08797
C         42.79243        37.27821        -0.14116
C         41.54214        38.07097         0.19706
C         42.79555        40.17576        -0.54885
C         41.47285        39.41481        -0.58037
C         42.77070        41.66389        -0.52554
C         41.47999        42.43754        -0.63786
C         42.65926        44.63203         0.09155
C         41.49808        43.92330        -0.60611
C         42.76058        46.01986        -0.48558
C         41.53255        46.80464        -0.27577
C         42.75266        48.66180        -1.27323
C         41.68843        48.39062        -0.20515
C         43.25813        25.26309         1.07056
C         44.84449        27.30425         1.03905
C         43.43983        26.76417         1.02830
C         45.02715        28.65543         0.76061
C         43.89899        29.44339         0.29826
C         45.20283        31.54431         0.52998
C         43.92095        30.81721         0.31088
C         45.25046        33.02561         0.55371
C         43.96906        33.83354         0.73616
C         45.30068        35.89137         0.12855
C         44.04028        35.18927         0.08683
C         45.33956        37.25427        -0.10559
C         44.07319        38.00137        -0.50521
C         45.34296        40.21912        -0.54856
C         44.07007        39.48609        -0.05283
C         45.33273        41.72481        -0.44662
C         44.01930        42.37696        -0.09921
C         45.23257        44.67599         0.07689
C         43.97148        43.84359         0.13295
C         45.12964        45.61424        -1.20036
C         43.91709        46.50913        -1.05053
C         43.73556        47.90225        -1.37075
C         47.19761        27.16480         1.65816
C         46.08543        26.67920         1.37246
C         47.58060        28.52801         1.27800
C         46.35106        29.32975         0.87852
C         47.72809        31.52697         0.98800
C         46.37118        30.82761         1.19097
C         47.80537        32.88021         0.86407
C         46.52710        33.73883         1.00706
C         47.88979        35.86650         0.54313
C         46.60644        35.06968         0.15794
C         47.91462        37.32102         0.04147
C         46.59171        38.07443         0.18084
C         47.84818        40.27477        -0.16095
C         46.64784        39.41231        -0.59019
C         47.84047        41.76737        -0.44103
C         46.56841        42.52435        -0.20860
C         47.81832        44.71026         0.27324
C         46.53350        43.85659         0.07459
C         47.57652        45.75449        -0.83398
C         46.50123        46.21157        -1.23117
C         50.07474        28.65722         1.88026
C         48.72239        29.30256         1.87852
C         50.23610        31.42606         1.51542
C         48.99381        30.65810         1.03734
C         50.38041        32.74713         0.81920
C         49.14390        33.64769         1.00526
C         50.41886        35.84152         0.40494
C         49.15699        34.99353         0.18414
C         50.28647        37.32266         0.59993
C         49.09390        38.01641         0.00504
C         50.39316        40.28930        -0.42967
C         49.15733        39.53321        -0.08620
C         50.48128        41.79399        -0.19902
C         49.13402        42.51521        -0.29050
C         50.27857        44.22416         0.82063
C         49.08265        43.92519         0.17632
C         51.19587        29.15404         1.99675
C         52.65357        31.25417         1.41212
C         51.47746        30.59006         1.93305
C         52.73044        32.29241         0.73897
C         51.61674        33.12445         0.33703
C         52.56163        36.41909        -0.61300
C         51.62269        35.43779        -0.12740
C         52.58222        37.46295        -1.27564
C         51.83338        38.61282        -1.60608
C         52.68324        40.33019         0.09161
C         51.64964        39.67419        -0.69007
C         52.69290        41.44292         0.65783
C         51.43320        42.17553         1.06399
C         51.41229        43.70317         1.04593
O         43.97972        42.90222         1.26628
O         38.79525        34.50864        -1.78616
O         41.63077        43.22167        -1.87942
O         48.45719        40.05624         1.13389
O         51.89449        34.15861        -0.52848
O         35.28242        32.66247        -1.94867
O         51.09167        37.95087         1.27260
O         45.47303        32.32752        -0.71562
O         33.39270        30.47063        -2.21952
O         42.31915        32.54261         1.88903
O         33.04549        30.94079         1.39434
O         48.54543        42.23843        -1.63621
O         37.16609        33.00606         1.01110
O         32.98542        33.62319        -1.28640
O         40.65512        41.10061         1.11597
O         42.95345        40.91796        -1.77863
O         43.22297        29.00491        -1.94238
O         45.29432        41.04715        -1.74208
O         50.69745        31.32866         2.91160
O         47.31084        28.84173        -0.11771
O         40.63226        36.15223        -2.05871
H         40.17817        35.39895        -2.52103
O         42.18605        48.75546         1.04031
H         42.24544        49.72974         1.10237
O         34.30917        43.89402         2.62820
H         34.50786        44.80437         2.93070
O         47.81602        45.35806         1.52116
H         46.95865        45.84236         1.61118
O         34.67183        40.16604        -1.01237
H         35.33426        40.60913        -1.59735
O         49.38311        30.34056        -0.30689
H         48.66322        29.80654        -0.72478
O         39.83422        32.52033         1.21214
H         40.67378        32.44539         1.75906
O         35.15060        28.91574        -3.34426
H         34.42419        29.54239        -3.57653
O         42.12396        24.39396        -1.84122
H         43.08654        24.55832        -1.75252
O         39.15162        46.88431         1.79171
H         38.31299        47.23874         2.15750
O         35.76277        41.67878         2.18944
H         35.15188        41.11173         2.72350
O         33.62362        42.61682        -0.68944
H         33.71730        41.74079        -1.13684
O         39.36763        44.07632         1.49373
H         39.31387        45.02160         1.78319
O         44.09100        38.08426        -1.96649
H         44.00654        37.17684        -2.32917
O         40.58920        32.13826        -2.33495
H         40.71666        31.31386        -2.86617
O         49.13052        34.67002        -1.20617
H         49.95022        34.18316        -1.43596
O         48.39857        29.63608         3.20755
H         49.17292        30.08522         3.61690
O         47.85986        36.07414         1.98313
H         48.75831        36.34292         2.27888
O         40.89801        29.38877        -2.78361
H         41.00042        28.59818        -3.37601
O         42.22373        44.78762         1.46078
H         42.37369        43.93055         1.92203
O         37.91237        29.16927        -3.29490
H         37.05012        28.87589        -3.68498
O         32.35849        36.05185        -0.75233
H         31.89928        36.92182        -0.84026
O         41.21250        39.10328        -1.95248
H         41.74440        39.72072        -2.50810
O         46.39625        33.95084         2.41738
H         47.14387        34.52621         2.71171
O         46.73438        34.70117        -1.22495
H         46.31154        33.82749        -1.38391
O         39.07795        39.18822         1.75534
H         39.29856        40.04154         2.19834
O         36.56568        30.44502         0.70566
H         36.82754        31.25382         1.21630
O         40.55680        26.80104         0.71412
H         41.13334        26.85908         1.51353
O         51.22259        42.31865        -1.32687
H         50.58497        42.51109        -2.04805
O         44.93307        44.75169        -2.31767
H         44.98458        45.27807        -3.14211
O         40.88376        29.26374         0.87037
H         41.19261        29.98516         1.46031
O         34.43538        39.53721         2.60989
H         33.61087        39.21784         3.06934
O         43.92820        34.29588         2.10118
H         43.22095        33.71889         2.54241
O         46.09272        30.91915         2.61278
H         46.02690        31.87405         2.85225
O         39.85438        44.91505        -2.04562
H         40.39029        44.26688        -2.56811
O         51.08519        38.55430        -2.72525
H         50.54238        39.36511        -2.81557
O         31.92363        34.51531         2.63133
H         31.98851        35.29504         3.21830
O         36.02953        42.37473        -1.35522
H         36.46866        43.11995        -1.84306
O         36.92855        43.95938         1.90188
H         36.45935        43.24118         2.39726
O         44.67296        28.88841        -2.06127
H         44.95768        29.82772        -2.18681
O         38.85347        38.28943        -1.80745
H         39.51359        37.69472        -2.24815
O         37.37450        44.53329        -1.63717
H         38.13194        44.91625        -2.15013
O         41.08680        26.91839        -2.83710
H         42.03237        26.68459        -2.67031
O         31.29505        42.32511         2.93021
H         30.55838        42.90593         3.21041
O         44.05427        39.59399         1.36960
H         44.84206        39.12250         1.74269
O         43.49085        26.58188        -1.38949
H         44.30493        27.10826        -1.56785
O         38.20107        35.72570         1.61737
H         37.47716        36.11220         2.16659
O         46.48333        38.40263         1.59825
H         46.74623        37.59699         2.11040
O         34.33260        34.60102         1.97275
H         34.81809        35.31213         2.45400
O         37.66405        31.98989        -2.48066
H         37.87016        31.18704        -3.01562
O         41.66030        38.35291         1.61469
H         40.74871        38.52131         1.96693
O         31.92294        38.53532         2.95478
H         31.16396        39.09035         3.23780
O         42.73924        27.36817         2.12534
H         43.12948        27.03886         2.96199
O         30.52568        34.01403        -0.64029
H         31.11469        34.51203        -1.25585
O         49.23888        34.03576         2.40265
H         49.48282        33.24463         2.93226
O         35.70262        37.06645         2.28891
H         35.56921        37.94318         2.73081
O         46.89876        39.05481        -1.96294
H         46.40987        39.69284        -2.53331
O         31.63260        38.88277        -0.64350
H         31.47068        39.64308        -1.24031
O         45.19768        45.55179         1.22197
H         44.75357        45.08131         1.96004
O         50.91504        41.69654         2.25489
H         51.55356        41.83376         2.98307
