         490
 CSIRO Nanostructure Databank - Neutral Graphene Oxide Data Set
C         37.65859        50.16686        -1.43873
C         36.49310        50.80786        -1.17625
C         37.60885        52.97624        -1.11881
C         36.44483        52.24319        -1.10478
C         40.25278        48.85566        -1.99006
C         40.18463        50.19278        -1.62282
C         38.88973        50.94588        -1.83800
C         40.09085        53.00547        -0.97497
C         38.88135        52.34869        -1.27788
C         40.13194        54.40559        -0.66795
C         42.63919        48.78390        -1.52702
C         41.47102        48.15645        -1.93718
C         42.61145        50.15658        -1.13634
C         41.36158        50.86203        -1.17794
C         42.48509        52.88431        -0.34076
C         41.32293        52.25914        -0.86486
C         42.49273        54.28970        -0.04352
C         41.28254        55.02109        -0.25169
C         45.05507        45.93076        -0.97442
C         43.91248        46.61941        -1.09084
C         45.15259        48.75543        -1.15661
C         43.93373        48.01979        -1.67008
C         45.09622        50.13628        -0.84930
C         43.80218        50.81433        -0.68186
C         44.66151        52.71994         0.76692
C         43.66115        52.10071        -0.08424
C         44.81288        54.12526         0.77909
C         43.69593        54.91980         0.39950
C         44.87530        56.95603         1.14007
C         43.75707        56.33486         0.65382
C         47.67269        44.43142        -1.39122
C         47.60619        45.79505        -1.04074
C         46.35772        46.55511        -1.44667
C         47.49155        48.62781        -0.49228
C         46.35187        48.01914        -1.04324
C         47.47722        50.02128        -0.30376
C         46.35158        50.79544        -0.66574
C         47.46528        52.92012        -0.03348
C         46.50492        52.24979        -0.76325
C         47.34079        54.39266         0.27718
C         46.12016        54.74220         1.26675
C         47.31514        56.98114         1.50579
C         46.12127        56.27454         1.35112
C         47.39384        58.42794         1.43228
C         50.03255        44.33855        -0.79301
C         48.83952        43.70472        -1.22361
C         49.98383        45.72946        -0.47637
C         48.75715        46.43028        -0.54446
C         49.97373        48.56704        -0.00326
C         48.65824        47.82038         0.04133
C         49.96265        50.00103         0.15211
C         48.66101        50.67811         0.29303
C         49.93868        52.87216         0.41858
C         48.64140        52.17432         0.47898
C         49.92158        54.37453         0.26221
C         48.64699        54.91961         0.87004
C         49.90870        57.01974         1.61899
C         48.62035        56.26277         1.50922
C         49.88189        58.52317         1.62138
C         48.55029        59.14334         1.43494
C         52.50845        41.51532        -0.47036
C         51.32883        42.21000        -0.71668
C         52.56179        44.36691        -0.51783
C         51.26487        43.60951        -0.64108
C         52.40747        45.75259         0.04443
C         51.20733        46.41378        -0.05960
C         52.42603        48.58254         0.13109
C         51.16892        47.86659         0.08604
C         52.40485        50.04367        -0.22895
C         51.13317        50.73780         0.17176
C         52.39509        52.90974         0.34210
C         51.12497        52.17715         0.30644
C         52.40437        54.26683         0.65910
C         51.18456        55.03100         0.79039
C         52.44105        57.07950         1.64615
C         51.16799        56.31917         1.27956
C         52.37363        58.55967         1.27888
C         51.15416        59.24930         1.31339
C         52.33314        61.36769         1.04227
C         51.15218        60.65654         1.14355
C         54.93212        40.04402         0.33926
C         54.91737        41.43399         0.26654
C         53.69134        42.18676        -0.02094
C         54.88664        44.26344         0.68771
C         53.69432        43.56987         0.06813
C         54.92154        45.74794         0.43506
C         53.60258        46.45723         0.65340
C         54.88098        48.63208         0.33866
C         53.62472        47.92164         0.29706
C         54.86756        50.03648         0.30746
C         53.65262        50.78421         0.16652
C         54.89350        52.94373        -0.02539
C         53.63015        52.16877         0.24363
C         54.92461        54.31227         0.60567
C         53.67409        54.90389         1.20200
C         54.85333        57.12795         0.63507
C         53.63166        56.39412         1.06453
C         54.84974        58.59912         0.96844
C         53.59762        59.28220         1.09126
C         54.84071        61.43350         1.00901
C         53.58854        60.71012         1.04324
C         54.87655        62.86072         0.98727
C         57.37336        39.99185         0.40156
C         56.14036        39.33819         0.45007
C         57.40024        41.42563         0.29304
C         56.16450        42.14681         0.32513
C         57.39042        44.26982         0.32538
C         56.17951        43.55940         0.36809
C         57.39355        45.71467         0.23146
C         56.10376        46.42455         0.27523
C         57.34386        48.55341         0.23077
C         56.13026        47.89299         0.30075
C         57.42822        49.97967         0.53296
C         56.10392        50.76736         0.59132
C         57.36359        52.86392         0.27857
C         56.16851        52.20312         0.31396
C         57.32312        54.35783         0.02735
C         56.08876        54.99007         0.63294
C         57.34610        57.18282         0.78989
C         56.10436        56.40893         1.16438
C         57.32629        58.57310         0.83590
C         56.06360        59.29333         0.96869
C         57.31778        61.45254         1.04948
C         56.07261        60.73112         1.02532
C         57.32264        62.87902         1.02824
C         56.06195        63.55233         0.99198
C         59.87891        37.24866         1.19241
C         58.66349        37.95922         0.98375
C         59.88979        39.93447         0.16153
C         58.62284        39.25577         0.51303
C         59.93526        41.45412        -0.03966
C         58.61719        42.14439         0.24075
C         59.88209        44.27903         0.31151
C         58.62608        43.54922         0.27957
C         59.86490        45.69347         0.15151
C         58.59950        46.38970         0.07176
C         59.86441        48.59891         0.02159
C         58.57947        47.86136        -0.28592
C         59.87979        50.00041         0.10088
C         58.65697        50.73418         0.26265
C         59.85285        52.86619         0.16937
C         58.63572        52.14833         0.27551
C         59.85035        54.32984         0.38833
C         58.58167        55.07780         0.42036
C         59.78484        57.24296         0.30368
C         58.56354        56.44714         0.58379
C         59.77900        58.65334         0.70378
C         58.57715        59.31658         0.88383
C         59.77315        61.47342         1.21019
C         58.56293        60.75286         1.09229
C         59.78715        62.89456         1.17232
C         58.56245        63.59490         1.04633
C         59.73617        65.74415         1.12022
C         58.59751        65.04349         0.95842
C         62.36401        35.68280         1.02792
C         62.36576        37.10025         1.06756
C         61.11094        37.83776         1.01923
C         62.40183        40.01676         0.75818
C         61.17241        39.22578         0.51455
C         62.37221        41.38925         0.75463
C         61.03389        42.10934         0.81851
C         62.32319        44.29368         0.61875
C         61.10527        43.59403         0.52595
C         62.30254        45.71189         0.42405
C         61.10752        46.39346         0.15390
C         62.38453        48.61014         0.09613
C         61.13692        47.84835        -0.27756
C         62.36616        50.03917         0.07109
C         61.12100        50.74511         0.05635
C         62.33744        52.89065        -0.01495
C         61.09563        52.17115         0.05500
C         62.33012        54.37757        -0.35684
C         61.12304        55.09202         0.19371
C         62.38409        57.36993        -0.08961
C         61.06591        56.57517        -0.04915
C         62.33724        58.65781         0.72414
C         61.05829        59.25850         1.08318
C         62.32589        61.49381         1.31121
C         61.04908        60.77551         1.41044
C         62.26823        62.92862         1.33895
C         61.05187        63.59555         1.29289
C         62.24259        65.71385         0.73927
C         61.04793        65.09971         1.46230
C         62.18640        67.00057         0.12805
C         64.78217        35.66050         0.73550
C         63.54169        34.98620         0.87748
C         64.80946        37.08457         0.81605
C         63.59214        37.78600         0.99316
C         64.90162        39.94314         0.98521
C         63.60582        39.25738         1.29845
C         64.84791        41.41880         1.15618
C         63.58561        42.16474         0.92765
C         64.85072        44.27745         0.82147
C         63.58300        43.56003         0.83204
C         64.85206        45.76598         0.82871
C         63.55010        46.48962         0.63240
C         64.83533        48.62615         0.30674
C         63.59030        47.93154         0.29493
C         64.84703        50.05165         0.20239
C         63.58973        50.76327         0.16066
C         64.79896        52.94272         0.22061
C         63.53737        52.19065         0.09326
C         64.81844        54.39979        -0.09824
C         63.56551        55.14940         0.04557
C         64.83843        57.18361         0.57745
C         63.59564        56.50890         0.21395
C         64.77079        58.58423         1.07722
C         63.50614        59.35327         0.98501
C         64.80969        61.49914         1.18488
C         63.53290        60.77567         1.26517
C         64.80785        62.92989         1.11328
C         63.55798        63.70858         1.51657
C         64.69144        65.82560         0.63821
C         63.45886        65.06805         0.85636
C         64.61978        67.12740        -0.02500
C         63.33789        67.65075        -0.29141
C         67.14666        32.82030         0.08129
C         65.99823        33.51649         0.36922
C         67.23242        35.64031         0.38777
C         66.00065        34.93395         0.50064
C         67.25596        37.06660         0.59012
C         66.07519        37.78513         0.76278
C         67.36370        39.95786         0.70422
C         66.08900        39.25278         0.86303
C         67.38342        41.42359         0.71775
C         66.14809        42.17036         1.07969
C         67.33710        44.37274         0.83708
C         66.06251        43.62573         0.85410
C         67.33229        45.81477         0.52134
C         66.10952        46.50066         0.53060
C         67.32376        48.58701         0.09790
C         66.08868        47.90646         0.33437
C         67.33747        50.04118         0.02424
C         66.08995        50.73285         0.13645
C         67.32452        52.95555        -0.13760
C         66.09487        52.20133         0.23359
C         67.37816        54.40394         0.11394
C         66.10787        55.15524         0.00792
C         67.35188        57.06905         1.06219
C         66.04425        56.53611         0.50211
C         67.36158        58.59618         1.20700
C         66.05345        59.33539         1.28751
C         67.25913        61.49378         0.80327
C         66.03647        60.80539         1.09223
C         67.22343        62.90827         0.60958
C         65.99707        63.61049         0.80520
C         67.19149        65.74365         0.06034
C         66.02710        65.08971         0.68746
C         67.09370        67.11942        -0.36589
C         65.83331        67.80470        -0.38449
C         66.93484        69.79910        -1.25694
C         65.79385        69.15324        -0.82762
C         69.69613        31.40018        -0.33357
C         69.56068        32.79035        -0.52037
C         68.37382        33.50319        -0.15407
C         69.65164        35.62192        -0.20544
C         68.41081        34.91908         0.01896
C         69.78561        37.01549         0.25861
C         68.57938        37.75842         0.84514
C         69.77511        39.93670         0.19012
C         68.54506        39.24795         0.51354
C         69.87138        41.43980         0.35656
C         68.53256        42.11857         0.46275
C         69.78837        44.31305         0.08065
C         68.60470        43.59124         0.60008
C         69.80496        45.72721         0.12754
C         68.55688        46.48479         0.26476
C         69.81154        48.51070        -0.54402
C         68.53731        47.87507         0.01276
C         69.82535        50.07882        -0.54713
C         68.56124        50.72382        -0.04668
C         69.83954        52.95565         0.12335
C         68.61147        52.19863        -0.14695
C         69.83296        54.35053         0.16012
C         68.56994        55.07160         0.12856
C         69.83422        57.25328         0.37795
C         68.50285        56.58205         0.13015
C         69.83839        58.63506         0.51411
C         68.59822        59.35709         0.88861
C         69.71275        61.52136         0.45726
C         68.51129        60.81525         0.67190
C         69.67438        62.94335         0.34274
C         68.44377        63.62198         0.34342
C         69.61869        65.69784        -0.39683
C         68.39957        65.03317        -0.00161
C         69.54381        67.05066        -1.06862
C         68.24646        67.79316        -0.86264
C         69.38054        69.90695        -1.78142
C         68.17147        69.11821        -1.30516
C         69.45501        70.06066        -3.28779
C         72.08477        31.51752        -0.83042
C         70.91570        30.76058        -0.51280
C         72.00305        32.85116        -1.09160
C         70.66921        33.54059        -1.21292
C         71.78442        35.79227        -1.40282
C         70.71828        35.00769        -0.85071
C         71.86357        37.13893        -1.21365
C         70.98313        37.80203        -0.25045
C         72.10194        40.03426        -0.60257
C         70.92333        39.28239        -0.20054
C         72.05631        41.35968        -0.84677
C         70.75751        42.11688        -0.69814
C         72.09611        44.30215        -0.63723
C         70.91718        43.59733        -0.37669
C         72.17013        45.68106        -0.40798
C         71.03234        46.40985        -0.06060
C         72.30778        48.62686        -0.17118
C         71.03125        47.90777         0.20101
C         72.33197        49.96649        -0.15338
C         71.06658        50.69337         0.13536
C         72.30437        52.97049         0.49503
C         71.06572        52.18800         0.40310
C         72.29028        54.32909         0.39870
C         71.07240        55.09223         0.27522
C         72.27590        57.28662         0.28848
C         71.06514        56.51465         0.29656
C         72.26708        58.65744         0.28500
C         71.04430        59.40063         0.39105
C         72.14096        61.58210        -0.04501
C         70.97672        60.81183         0.32143
C         72.13920        62.93273        -0.08327
C         70.96434        63.73236         0.40531
C         72.06685        65.86638        -0.44729
C         70.85402        65.10224        -0.23523
C         72.04552        67.20178        -0.68119
C         70.76307        67.91770        -0.78710
C         71.90987        69.98948        -1.81931
C         70.69663        69.34530        -1.26098
C         71.86477        70.44514        -3.09016
C         70.63492        70.35233        -3.86969
O         60.66858        39.26834        -0.89389
O         67.91632        52.61067        -1.43968
O         65.30501        58.81046         2.43659
O         65.50332        52.68965         1.49366
O         49.98447        57.76588         2.89563
O         68.22854        59.00461         2.31512
O         70.98230        37.18779         1.09710
O         70.64554        69.03846         0.15882
O         65.50753        54.84227        -1.32250
O         48.42659        51.27216         1.63161
O         60.75670        54.71237         1.53670
O         61.02347        59.76808         2.45997
O         68.22688        44.03410         1.95904
O         65.54961        65.80336         1.88663
O         65.56847        41.80611         2.39111
O         60.18436        56.98338        -1.14315
O         48.70816        55.02250         2.32036
O         64.11424        46.28748         1.98970
O         56.79206        50.35191         1.80679
O         70.88420        51.15554         1.48860
O         69.89149        48.03736        -1.90256
H         69.89527        48.83851        -2.48332
O         68.09013        57.00992        -1.20440
H         68.59637        56.49388        -1.86616
O         63.69944        63.98579         2.95466
H         64.46367        64.61079         3.03170
O         70.33659        33.50297        -2.66253
H         70.30149        32.55639        -2.91908
O         69.25644        71.24998        -1.23766
H         69.41476        71.18138        -0.27184
O         45.69088        52.91059        -1.62509
H         45.93569        53.87241        -1.59879
O         69.94655        50.51869        -1.94530
H         69.19401        51.11669        -2.15698
O         54.97042        57.04406        -0.83737
H         54.19584        57.50537        -1.22340
O         70.05005        42.04285        -1.96825
H         70.59819        42.48763        -2.64776
O         60.23993        41.72121        -1.42584
H         60.60506        40.88321        -1.80005
O         45.38145        51.91922         1.56907
H         45.96791        52.48950         2.13886
O         62.24439        54.46757        -1.80996
H         63.15630        54.48491        -2.17268
O         54.72579        44.08274         2.14282
H         54.16240        44.82779         2.46950
O         49.84410        54.68128        -1.17301
H         50.60614        54.24381        -1.61161
O         69.63380        66.79293        -2.51491
H         68.92699        66.15501        -2.74846
O         47.08068        55.13698        -0.94578
H         47.91747        55.11035        -1.46949
O         71.21405        63.98418         1.83570
H         70.43720        64.46725         2.18974
O         52.55683        57.02833         3.11586
H         51.68022        57.33450         3.46564
O         60.59591        41.96906         2.20078
H         61.23374        42.44253         2.77533
O         38.79340        51.10497        -3.30890
H         37.96415        51.60006        -3.48258
O         52.99931        44.60469        -1.93534
H         53.04539        43.72423        -2.36796
O         67.52864        56.48605         2.36132
H         67.86395        57.19532         2.95749
O         63.45213        39.34234         2.76332
H         63.89716        40.16389         3.06684
O         48.36962        47.61913         1.46941
H         48.26471        48.50692         1.87601
O         57.22758        54.53250        -1.43555
H         57.09969        55.49158        -1.60705
O         56.01557        56.40125         2.60432
H         56.72982        55.83496         2.96235
O         46.33388        54.14823         2.56132
H         47.21134        54.45130         2.91198
O         61.27410        65.38531         2.87557
H         62.09821        64.90124         3.14546
O         70.78323        48.11760         1.60922
H         71.54721        47.77815         2.11856
O         54.87727        53.12928        -1.47874
H         55.70780        53.62138        -1.71597
O         53.69013        54.57181         2.63034
H         53.34478        55.35953         3.12296
O         53.37125        46.42359         2.12127
H         52.50936        46.86125         2.29399
O         52.40624        50.09304        -1.70909
H         53.24344        49.68297        -2.01527
O         70.53095        41.67839         1.63183
H         69.90287        41.45211         2.34984
O         44.10633        47.87327        -3.12937
H         44.08869        48.77314        -3.51910
O         46.39331        46.48380        -2.89947
H         45.56646        46.91757        -3.23598
O         62.58567        57.79967        -1.46629
H         61.70998        57.71732        -1.91655
O         61.19611        47.76590        -1.77575
H         61.35680        48.67781        -2.10364
O         68.74062        37.71490         2.29595
H         69.71256        37.70273         2.46449
O         58.46138        47.90928        -1.75884
H         59.33581        47.60324        -2.10966
H         37.68229        49.06841        -1.48107
H         35.57478        50.23657        -0.97613
H         37.55329        54.05529        -0.91546
H         35.47986        52.74097        -0.93839
H         39.36073        48.33636        -2.36516
H         39.22546        55.01293        -0.79087
H         41.50391        47.10564        -2.25766
H         41.25583        56.10111        -0.05468
H         45.05682        44.90733        -0.56890
H         42.95173        46.18395        -0.77673
H         44.82359        58.03920         1.31764
H         42.86658        56.95077         0.47136
H         46.78185        43.94018        -1.80686
H         46.45662        58.99168         1.32836
H         48.84646        42.63951        -1.49122
H         48.48998        60.23546         1.32790
H         52.50406        40.42135        -0.56355
H         50.42169        41.63000        -0.93750
H         52.28025        62.46213         0.97374
H         50.20108        61.20564         1.15078
H         53.99387        39.47305         0.32148
H         53.93789        63.43041         0.97393
H         56.09771        38.24363         0.52922
H         56.02645        64.64941         0.98632
H         59.80663        36.21086         1.54595
H         57.72931        37.44327         1.24447
H         59.69365        66.84264         1.11107
H         57.66348        65.58903         0.76568
H         61.41744        35.13055         1.09620
H         61.21576        67.48729        -0.03339
H         63.49978        33.89015         0.84867
H         63.23597        68.61862        -0.80057
H         67.09678        31.72904        -0.03110
H         65.06359        32.95389         0.48660
H         66.89566        70.85106        -1.57130
H         64.84489        69.70507        -0.80974
H         68.84759        30.81476         0.04882
H         68.52625        70.02352        -3.87575
H         73.06214        31.01351        -0.82437
H         71.00436        29.68281        -0.32133
H         72.91482        33.41995        -1.32369
H         72.48081        35.30616        -2.10050
H         72.57678        37.73795        -1.79642
H         73.04224        39.48417        -0.75337
H         72.94756        41.86529        -1.24541
H         72.99915        43.78098        -0.98202
H         73.13753        46.17918        -0.55693
H         73.22679        48.06837        -0.40095
H         73.25492        50.52511        -0.37179
H         73.25303        52.44260         0.66617
H         73.24655        54.86405         0.47966
H         73.24487        56.77186         0.23648
H         73.22675        59.18952         0.23804
H         73.05231        61.04703        -0.34738
H         73.05401        63.45648        -0.39205
H         73.03666        65.36927        -0.31255
H         72.98018        67.77972        -0.70089
H         72.83556        70.01682        -1.22745
H         72.75668        70.87760        -3.56516
H         70.69282        70.53732        -4.95240
