         210
 CSIRO Nanostructure Databank - Neutral Graphene Oxide Data Set
C         30.36370        31.76721         0.60767
C         30.45702        33.01232         0.71672
C         30.50390        36.13264         0.85926
C         30.52496        37.38239         0.82977
C         30.58858        40.42218         0.11887
C         30.47237        41.58677        -0.29091
C         32.74384        28.95674         0.29252
C         31.63033        29.52781         0.35993
C         32.77298        31.64244         0.55845
C         31.50141        30.93030         0.50624
C         32.80926        33.07866         0.67230
C         31.59648        33.84423         0.74874
C         32.85811        35.97113         0.77184
C         31.61589        35.25451         0.80554
C         32.86887        37.40248         0.77245
C         31.68561        38.20109         0.74329
C         32.91316        40.25471         0.05910
C         31.71655        39.58835         0.41411
C         32.94906        41.55255        -0.56732
C         31.58921        42.20629        -1.09921
C         32.92834        44.16244        -1.19910
C         31.79308        43.70420        -1.00996
C         35.42093        27.37376         0.23630
C         35.26247        28.77821         0.34259
C         34.04704        29.49517         0.36012
C         35.28132        31.61434         0.56877
C         34.02183        30.92369         0.49353
C         35.30185        33.04873         0.65330
C         34.06328        33.78902         0.69161
C         35.34790        35.90928         0.69696
C         34.08467        35.21188         0.73487
C         35.39149        37.33034         0.65406
C         34.15295        38.10300         0.81332
C         35.45049        40.18137        -0.01296
C         34.17721        39.60717         0.43694
C         35.45067        41.51704        -0.52106
C         34.17716        42.19906        -0.74839
C         35.43842        44.25157        -1.37142
C         34.25376        43.62229        -1.12513
C         35.72788        45.62102        -1.61101
C         37.78206        27.26602         0.48909
C         36.48729        26.72407         0.28003
C         37.75711        28.71073         0.55037
C         36.52068        29.44984         0.48030
C         37.76078        31.58565         0.66048
C         36.51132        30.88423         0.56380
C         37.78144        33.00622         0.71875
C         36.54574        33.73673         0.70179
C         37.81090        35.87561         0.69519
C         36.56906        35.17263         0.71370
C         37.80993        37.26890         0.48196
C         36.61199        38.01581         0.45340
C         37.88618        40.11897        -0.06103
C         36.64100        39.44575         0.13506
C         37.90531        41.49754        -0.43570
C         36.68364        42.15463        -0.75523
C         37.99732        44.29698        -1.05248
C         36.76817        43.49234        -1.44517
C         38.08879        45.84468        -1.18739
C         36.75478        46.30651        -1.73749
C         40.34635        24.65900        -0.14886
C         39.35994        25.20467         0.38361
C         40.15147        27.33422         0.92637
C         38.99781        26.56394         0.67377
C         40.22897        28.72529         0.72866
C         38.99234        29.43416         0.64872
C         40.23513        31.54251         0.90250
C         38.99391        30.86161         0.69558
C         40.22875        32.96088         1.05752
C         39.03500        33.68685         0.88366
C         40.26951        35.82906         0.98172
C         39.06612        35.14260         0.86402
C         40.21627        37.34509         1.02559
C         39.12200        37.91220         0.11772
C         40.31546        40.14740         0.17823
C         39.12477        39.43007         0.12725
C         40.34405        41.56739        -0.05799
C         39.15107        42.20990        -0.47867
C         40.46295        44.33237        -0.79047
C         39.17832        43.62263        -0.79845
C         40.56310        45.61840        -1.33098
C         39.28803        46.13156        -2.08031
C         40.63463        48.18831        -2.28266
C         39.56844        47.57076        -2.36451
C         42.46492        24.98125        -1.70199
C         41.60748        25.17617        -0.58448
C         42.74586        27.44458        -0.46689
C         41.92306        26.41175         0.05637
C         42.71610        28.80445         0.05613
C         41.50711        29.41020         0.63102
C         42.74202        31.48242         1.11295
C         41.46687        30.80096         0.86727
C         42.75259        32.92210         1.53503
C         41.42684        33.68589         1.65219
C         42.72775        35.82830         1.30381
C         41.52890        35.14735         1.21549
C         42.74602        37.31696         1.28205
C         41.54706        37.98094         0.70452
C         42.83324        40.20318         0.65368
C         41.60302        39.43495         0.37047
C         42.67865        41.68635         0.89530
C         41.54989        42.31342         0.11869
C         42.84658        44.41073        -0.09138
C         41.62473        43.67682        -0.24229
C         42.90237        45.76385        -0.52875
C         41.77431        46.37700        -1.19394
C         43.07730        48.38133        -1.41070
C         41.85445        47.75764        -1.66247
C         43.32486        25.82574        -2.06060
C         44.62514        28.03074        -1.95112
C         43.60471        27.12952        -1.57333
C         44.82809        29.24734        -1.21181
C         43.82622        29.62844        -0.26545
C         45.18729        31.75908         0.23904
C         44.00692        30.88592         0.47742
C         45.24273        33.02399         0.79617
C         44.06347        33.65241         1.45960
C         45.32647        35.91543         1.43248
C         44.03242        35.15342         1.56197
C         45.28255        37.35824         1.03512
C         44.01262        38.09848         1.22253
C         45.26337        40.26547         1.11293
C         44.02022        39.55562         0.90891
C         45.17002        41.72290         1.48755
C         43.98723        42.42812         0.84812
C         45.20796        44.55931         0.76389
C         44.01887        43.76887         0.49741
C         45.23194        45.90315         0.37167
C         44.12709        46.50531        -0.29875
C         44.02918        47.79811        -0.80975
C         46.67915        28.50251        -3.05736
C         45.64985        27.81351        -2.90951
C         47.03256        29.67108        -2.32924
C         46.01884        30.05829        -1.39337
C         47.47342        31.95648        -0.74718
C         46.25666        31.24805        -0.61502
C         47.72258        33.15022         0.08248
C         46.52977        33.76130         0.82979
C         47.75712        35.93435         0.90937
C         46.58992        35.21566         1.07019
C         47.79515        37.38962         1.37478
C         46.54594        38.13637         0.95306
C         47.73762        40.31784         1.28130
C         46.49885        39.61321         1.13984
C         47.71114        41.76576         1.37182
C         46.48695        42.44220         1.34663
C         47.70939        44.68859         1.59489
C         46.38221        43.90976         1.40761
C         47.57216        46.03779         1.03446
C         46.48351        46.52827         0.69464
C         49.37793        30.03283        -3.22424
C         48.25374        30.37279        -2.43674
C         49.78202        32.22920        -1.70551
C         48.50784        31.54051        -1.64550
C         49.94936        33.46811        -0.97604
C         48.87593        34.02208        -0.21453
C         50.15309        36.09414         0.22471
C         48.94335        35.32518         0.33047
C         50.20043        37.49112         0.63036
C         49.02531        38.18794         1.00602
C         50.21917        40.35952         1.08431
C         48.98995        39.60664         1.14692
C         50.23053        41.79748         1.24474
C         48.98079        42.50153         1.39807
C         50.23479        44.47852         1.44443
C         48.95293        43.92007         1.52344
C         50.51188        30.56254        -3.27643
C         52.05758        32.47333        -2.44298
C         50.86277        31.71366        -2.52468
C         52.16065        33.51570        -1.75456
C         51.18460        34.19743        -0.99265
C         52.45491        36.28149        -0.32369
C         51.29394        35.45629        -0.35722
C         52.50359        37.45337         0.10315
C         51.41818        38.25001         0.55013
C         52.56263        40.47792         0.84021
C         51.42967        39.62912         0.84052
C         52.63896        41.71243         1.02072
C         51.49397        42.53138         1.20704
C         51.36239        43.92642         1.35190
O         46.83727        44.46158         2.70743
O         41.32745        26.66160         1.30553
O         43.31568        37.89109         2.50756
O         44.76698        35.63656         2.74523
O         34.22259        39.15192         1.82912
O         47.55337        32.97571         1.52429
O         45.90792        37.62673        -0.26391
O         43.68178        30.69735         1.89133
O         43.59500        33.06493         2.72184
O         41.79388        38.37341        -0.68524
O         38.32777        46.41742         0.08204
H         37.53185        46.30917         0.64140
O         39.36463        37.49529        -1.25032
H         40.25346        37.84559        -1.50804
O         42.22576        41.75946         2.30049
H         43.03409        41.66528         2.86688
O         36.98675        43.20851        -2.86661
H         37.37768        44.01505        -3.27550
O         31.45923        41.83254        -2.44111
H         30.63319        42.21004        -2.80616
O         39.11927        45.38922        -3.28388
H         39.83233        45.63019        -3.91088
O         44.87367        41.72454         2.94941
H         45.60456        41.25426         3.40624
O         47.74277        37.36991         2.83120
H         48.46254        36.79291         3.16229
O         39.87821        37.72912         2.38050
H         40.52574        37.32141         2.99419
O         41.11917        33.76577         3.07161
H         41.98217        33.73727         3.55066
