         470
 CSIRO Nanostructure Databank - Neutral Graphene Oxide Data Set
C         38.11078        50.31471         3.05613
C         36.94473        51.01715         3.31132
C         38.14634        53.10878         3.11119
C         36.96323        52.42263         3.34617
C         40.55872        48.85157         2.28718
C         40.55795        50.26525         2.59073
C         39.33703        50.99098         2.82487
C         40.58318        53.13911         2.55626
C         39.35021        52.41873         2.84264
C         40.49677        54.41313         1.97572
C         42.99291        48.73668         2.75841
C         41.70471        48.13038         2.26011
C         43.02571        50.22403         2.52262
C         41.79984        50.95210         2.60079
C         43.07573        53.01469         2.73259
C         41.82520        52.39325         2.64428
C         42.88287        55.00951         1.79909
C         41.56375        55.15045         1.40437
C         45.41170        45.92298         1.92907
C         44.23339        46.64897         2.18593
C         45.46973        48.74634         2.11861
C         44.24965        48.03326         2.30020
C         45.50310        50.18011         2.18347
C         44.25634        50.88355         2.38813
C         45.54782        52.96382         2.41609
C         44.30148        52.30947         2.51903
C         45.33277        54.93023         1.48177
C         44.06604        55.38830         1.06095
C         45.22486        56.56445        -0.73289
C         44.04295        56.15871        -0.13369
C         47.87226        44.33699         1.47637
C         47.89273        45.79645         1.70650
C         46.62370        46.56913         1.76528
C         47.87435        48.70502         1.59252
C         46.67619        48.01331         1.81883
C         47.96764        50.15727         1.80536
C         46.70935        50.90623         1.98383
C         47.93548        53.11735         1.59077
C         46.74912        52.33268         1.98774
C         47.75523        54.48023         1.16579
C         46.50707        55.11136         0.73804
C         47.73153        56.77907        -0.64315
C         46.49223        56.11247        -0.27720
C         47.76981        57.84494        -1.55006
C         50.26733        44.27379         0.80589
C         48.95591        43.64600         1.07988
C         50.36303        45.77736         0.86594
C         49.16032        46.53543         1.35662
C         50.25109        48.72292         0.56612
C         49.03386        47.98686         1.02616
C         50.36896        50.18784         0.81393
C         49.24123        50.92619         1.48449
C         50.43732        53.02956         1.02856
C         49.21192        52.42903         1.38901
C         50.68102        54.43148         1.05687
C         48.83006        55.40672         1.03197
C         50.12880        57.35905         0.17053
C         48.89032        56.47652         0.14542
C         50.05367        58.44166        -0.89510
C         48.92384        58.65240        -1.65785
C         52.38850        41.43028        -0.55534
C         51.27799        42.16002        -0.03224
C         52.30085        44.29476        -0.71453
C         51.25730        43.52877        -0.01369
C         52.40682        45.76489        -0.53946
C         51.40509        46.49252         0.07279
C         52.59013        48.61663        -0.23530
C         51.46237        47.94166         0.16743
C         52.74493        50.04142         0.12474
C         51.53624        50.81282         0.51196
C         52.77627        52.95170        -0.06088
C         51.74557        52.26529         0.85386
C         52.70209        54.35872        -0.30148
C         51.61524        55.09896         0.24647
C         52.63154        57.24598        -0.65423
C         51.50816        56.58145         0.08830
C         52.48225        58.64017        -1.15100
C         51.22838        59.27863        -1.11820
C         52.31585        61.39018        -1.66163
C         51.15789        60.65252        -1.43981
C         54.80331        39.83866        -1.12275
C         54.70528        41.29049        -1.44689
C         53.50662        42.05519        -1.03910
C         54.80733        44.25095        -1.42545
C         53.51875        43.51556        -1.25020
C         54.77334        45.65328        -1.49551
C         53.53224        46.42514        -1.23972
C         54.92600        48.65549        -1.23288
C         53.63531        47.96016        -1.03690
C         55.06957        50.00326        -0.96601
C         53.99014        50.76640        -0.28384
C         55.04241        52.89708        -1.05132
C         53.91348        52.23773        -0.47502
C         54.99259        54.30723        -1.28332
C         53.78207        55.04324        -0.98055
C         54.78560        57.11167        -1.94022
C         53.72656        56.42359        -1.19935
C         54.80127        58.60542        -2.02131
C         53.61063        59.34935        -1.59027
C         54.84694        61.48900        -1.80593
C         53.57750        60.75795        -1.74401
C         54.87202        62.90077        -1.69586
C         57.22302        40.06187        -0.61352
C         55.96163        39.25013        -0.79802
C         57.25422        41.26593        -1.56399
C         55.97458        42.04905        -1.69703
C         57.27500        44.21883        -1.77919
C         56.02036        43.53038        -1.59828
C         57.26281        45.61795        -1.93560
C         55.99199        46.35975        -1.92187
C         57.36873        48.58208        -1.82815
C         56.04369        47.91494        -1.84591
C         57.39455        50.03003        -1.78332
C         56.26412        50.72332        -1.36983
C         57.43264        52.88850        -1.63680
C         56.24695        52.17981        -1.36377
C         57.42190        54.31948        -1.66574
C         56.17413        54.99303        -1.63674
C         57.38221        57.19652        -2.01106
C         56.13756        56.39623        -2.06460
C         57.37684        58.59926        -1.95835
C         56.11886        59.35904        -2.10486
C         57.31048        61.48969        -1.59449
C         56.08486        60.80227        -1.80028
C         57.30100        62.90454        -1.45120
C         56.06247        63.58534        -1.54181
C         59.83411        37.16059        -0.95897
C         58.60683        37.92940        -0.83276
C         59.73432        40.11943        -0.62520
C         58.52777        39.28282        -0.63473
C         59.76795        41.35724        -1.21423
C         58.53512        42.00741        -1.70912
C         59.76954        44.13999        -1.69801
C         58.53555        43.48888        -1.80427
C         59.82624        45.61560        -1.86265
C         58.51965        46.36814        -2.09905
C         59.83392        48.51703        -2.09956
C         58.51934        47.84105        -1.93906
C         59.87103        49.99735        -2.38101
C         58.54693        50.76468        -2.46809
C         59.84155        52.89565        -2.08735
C         58.66781        52.20098        -1.99202
C         59.93145        54.33785        -1.61758
C         58.62393        55.06920        -1.79554
C         59.85320        57.21868        -1.77114
C         58.61480        56.47474        -1.87830
C         59.81509        58.63323        -1.58766
C         58.57791        59.33563        -1.68520
C         59.76006        61.45524        -1.22261
C         58.55498        60.75706        -1.51909
C         59.75194        62.88119        -1.05009
C         58.54081        63.61046        -1.20107
C         59.74597        65.68649        -0.77570
C         58.57129        65.01821        -1.06444
C         62.46476        35.60389        -0.75087
C         62.34017        36.97176        -0.44272
C         60.97568        37.47293        -0.27873
C         62.23807        40.03562        -0.47550
C         60.98331        39.59128        -0.13796
C         62.32911        41.31659        -1.12901
C         61.06848        41.93737        -1.71392
C         62.23017        44.13276        -1.47491
C         61.02101        43.44259        -1.60471
C         62.23635        45.51029        -1.14634
C         61.01495        46.34459        -1.27879
C         62.26511        48.69064        -1.47102
C         61.01571        47.88692        -1.42783
C         62.32879        50.07200        -1.95021
C         61.13142        50.74369        -2.19299
C         62.42446        52.96155        -2.34485
C         61.11407        52.20308        -2.40746
C         62.40857        54.42049        -2.08144
C         61.08519        55.11351        -2.28047
C         62.29492        57.22520        -1.52308
C         61.08933        56.54717        -1.80847
C         62.25757        58.62139        -1.21290
C         61.02536        59.33380        -1.29945
C         62.18020        61.41897        -0.66410
C         60.99220        60.74351        -1.08356
C         62.16677        62.84165        -0.45802
C         60.96200        63.57113        -0.71364
C         62.18907        65.68837        -0.26579
C         60.96009        64.98808        -0.58314
C         62.25154        67.08748        -0.33008
C         64.83101        35.70162        -0.28367
C         63.68597        34.96340        -0.63744
C         64.75477        37.12194        -0.22682
C         63.50671        37.78049        -0.25551
C         64.75187        40.03348        -0.22663
C         63.44935        39.30339         0.08809
C         64.77299        41.28338        -0.79618
C         63.54344        41.95900        -1.23048
C         64.81838        44.19566        -1.51737
C         63.53438        43.40349        -1.60081
C         64.72264        45.57996        -0.98752
C         63.45988        46.04925        -0.66208
C         64.73292        48.64774        -1.17399
C         63.39269        48.20621        -0.86516
C         64.84032        50.09741        -1.59583
C         63.57132        50.80961        -1.82887
C         64.84448        52.91271        -1.72448
C         63.64248        52.20656        -1.97398
C         64.89072        54.39679        -2.02174
C         63.56498        55.10259        -1.83086
C         64.73594        57.19972        -1.16909
C         63.55104        56.52409        -1.52285
C         64.69584        58.57315        -0.74250
C         63.44215        59.29653        -0.78592
C         64.48046        61.28228         0.30585
C         63.36527        60.66767        -0.44129
C         64.43142        62.75540         0.59796
C         63.31632        63.52967         0.03271
C         64.59272        65.64139         0.42640
C         63.35627        64.94143         0.10997
C         64.59020        67.07658         0.32740
C         63.44120        67.76394        -0.04257
C         66.94332        33.00854         1.26524
C         65.93610        33.65444         0.60502
C         67.23539        35.72542         0.34079
C         66.05053        35.00281         0.11956
C         67.27200        37.15260         0.23276
C         66.06222        37.88975        -0.32927
C         67.32566        39.98648        -0.00508
C         65.99489        39.30942         0.26651
C         67.35784        41.35689        -0.55873
C         66.08211        41.97749        -1.05361
C         67.36882        44.26010        -0.94774
C         66.12857        43.47158        -1.31405
C         67.30699        45.77035        -0.85368
C         65.93205        46.43009        -0.90383
C         67.15000        48.65368        -0.43726
C         65.87326        47.90329        -0.54753
C         67.19317        50.11349        -0.71525
C         66.05555        50.81311        -1.18936
C         67.22596        52.96230        -1.03284
C         66.03369        52.24092        -1.30687
C         67.24919        54.37549        -1.12994
C         66.04675        55.10634        -1.36768
C         67.19919        57.18008        -0.75647
C         65.99787        56.48418        -1.11883
C         67.14257        58.54555        -0.36916
C         65.88299        59.21351        -0.32647
C         67.07503        61.27293         0.69745
C         65.80403        60.53149         0.32737
C         67.00176        62.71420         1.14731
C         65.72123        63.50903         1.01327
C         67.14622        65.61209         0.52953
C         65.78240        64.95141         0.74325
C         67.14079        67.13393         0.72341
C         65.81970        67.85901         0.61030
C         66.83071        69.83370         1.67085
C         65.70805        69.17076         1.25214
C         68.98126        32.55096         3.42776
C         69.32804        33.12912         2.21019
C         68.30396        33.52723         1.24488
C         69.62637        35.78041         1.19009
C         68.45698        35.02061         0.72167
C         69.63054        37.18962         1.00358
C         68.44088        37.85953         0.50232
C         69.80031        39.99956         0.19929
C         68.48350        39.29501         0.22326
C         69.78272        41.49729         0.13292
C         68.52722        42.21052        -0.21769
C         69.80074        44.38022        -0.13731
C         68.52871        43.56504        -0.33178
C         69.49441        45.76213         0.48195
C         68.42520        46.52747        -0.25721
C         69.58933        48.67631         0.10987
C         68.41797        47.91165        -0.23421
C         69.58025        50.09553        -0.02874
C         68.39387        50.78669        -0.41304
C         69.71289        52.89383        -0.69998
C         68.37756        52.29286        -0.32415
C         69.75963        54.35895        -1.02040
C         68.47207        55.09016        -0.95225
C         69.69037        57.20164        -0.61951
C         68.45156        56.47371        -0.79326
C         69.54938        58.61218        -0.51131
C         68.37198        59.26766        -0.15482
C         69.69572        61.40136         0.76221
C         68.40665        60.69920         0.24721
C         69.57830        62.75035         1.43703
C         68.28067        63.49197         1.39326
C         69.41851        65.66919         1.66731
C         68.29219        64.95861         1.27176
C         69.35266        67.08304         1.90103
C         68.22720        67.81417         1.47185
C         69.31171        69.97616         2.11471
C         68.10960        69.20745         1.71679
C         69.23981        71.41200         2.41497
C         71.31219        32.56300         4.15910
C         69.94327        32.27351         4.40620
C         71.71103        33.15088         2.99351
C         70.74632        33.57803         1.92515
C         71.87681        35.86575         2.07823
C         70.74398        35.11666         1.74768
C         71.92034        37.23733         1.81432
C         70.81643        37.91101         1.28740
C         71.60752        40.22327         1.93718
C         71.03184        39.34403         0.84340
C         71.60520        41.57257         1.84175
C         70.81462        42.28345         0.85482
C         71.85169        44.46928         1.32459
C         70.82791        43.66309         0.73272
C         71.85676        45.84691         1.23842
C         70.75408        46.57452         0.71392
C         71.94435        48.76031         0.82106
C         70.76924        47.97419         0.54318
C         71.96499        50.11281         0.64579
C         70.81886        50.84551         0.17053
C         72.11706        52.98536        -0.08043
C         70.90983        52.20096        -0.16917
C         72.19424        54.30590        -0.39015
C         71.08227        55.13468        -0.99885
C         72.04691        57.16569         0.21114
C         70.94470        56.56348        -0.45778
C         72.16526        58.44416         0.76091
C         71.31318        59.52317         0.40833
C         71.89455        61.32156         2.00755
C         70.96717        60.69903         1.08302
C         71.93166        62.66851         2.18138
C         70.86827        63.51434         1.58057
C         71.81532        65.73520         2.51962
C         70.74460        64.99240         1.82450
C         71.63542        66.97953         2.98066
C         70.30684        67.69287         2.91540
C         71.34386        69.93253         3.66148
C         70.47960        69.19481         2.73121
C         71.27418        71.28678         3.75986
C         70.23034        72.03352         3.10843
O         64.70527        63.11848         1.98265
O         55.77775        47.23639        -3.10145
O         55.21660        56.52985        -3.20112
O         66.79337        67.82925        -0.51853
O         64.23312        43.85985        -2.81425
O         68.78581        33.85503        -0.09330
O         70.19042        40.67751        -1.04477
O         53.84028        50.29344         1.12143
O         66.97399        61.61908         2.10442
O         66.24614        48.34713         0.77519
O         45.54341        54.32993         2.73527
O         66.78340        46.32552        -2.09281
O         60.03818        48.99436        -3.46614
O         53.11913        47.36339        -2.27512
O         49.17293        48.34424        -0.40355
O         69.78549        53.33662        -2.09342
O         49.00738        50.46094         2.85251
O         43.10869        54.38590         3.05162
O         67.11912        43.80717        -2.31975
O         52.44793        43.95631        -2.13563
O         68.85146        62.96187         2.67433
O         69.22310        61.53953        -0.62128
O         65.00150        48.98528        -2.56096
O         55.32360        59.06183        -3.30426
O         66.96895        41.29049        -1.98610
O         63.33614        47.21387         0.11315
O         60.66392        47.23959        -0.16602
O         57.95962        41.18647        -2.82588
O         48.84234        46.25373         2.74214
O         59.42461        45.98834        -3.21201
O         70.66997        59.37202        -0.83102
O         52.55664        57.26972         0.85326
O         60.86905        38.47584         0.71918
O         55.13942        41.58286        -2.82227
O         61.81549        52.61417        -3.64823
O         71.22624        64.43427         0.52178
O         49.90995        55.22826         1.90687
O         50.93130        44.94829         1.93603
O         64.86599        60.47592         1.45541
O         70.52327        69.60785         1.34990
O         65.15198        54.50476        -3.46941
H         65.99200        54.03353        -3.65605
O         60.83583        55.16475        -3.70770
H         61.11448        54.29468        -4.08917
O         52.35247        52.29953         2.18163
H         53.07937        51.62748         2.17891
O         68.21505        52.60041         1.10796
H         67.39660        52.15777         1.41808
O         68.92141        45.46481         1.79704
H         68.75530        46.31638         2.25448
O         71.22115        33.02104         0.67439
H         70.55186        33.25423        -0.01394
O         67.44893        65.34838        -0.87807
H         67.25954        66.18884        -1.36270
O         60.23353        54.28969        -0.18798
H         59.44293        53.94472         0.27800
O         71.47348        55.32925        -2.38941
H         71.19555        54.51503        -2.86981
O         42.97483        48.56298         4.22379
H         42.19521        49.05167         4.56410
O         65.93528        39.19405         1.71157
H         64.98238        39.15922         1.97927
O         69.66440        67.53715         4.22076
H         69.57312        66.57816         4.40390
O         72.08270        39.25589        -0.15673
H         71.83411        39.88931        -0.87454
O         58.17699        50.83482        -3.86590
H         58.53594        50.02487        -4.29847
O         70.36155        44.61889        -1.44377
H         70.28593        43.79845        -1.97485
O         50.13243        58.03416         1.45009
H         51.07564        58.15151         1.71253
O         63.29305        39.33294         1.55095
H         62.43099        38.88912         1.74264
O         57.13013        40.68742         0.70851
H         57.15488        39.97604         1.38259
O         61.10135        41.58483        -3.13349
H         60.26039        41.88289        -3.54329
O         66.28900        38.05679        -1.75260
H         66.42479        37.17319        -2.15317
H         38.08679        49.21632         3.05868
H         36.00706        50.47652         3.50022
H         38.14757        54.20638         3.16458
H         36.04093        52.97748         3.56687
H         39.60839        48.36711         2.01973
H         39.48627        54.78051         1.73956
H         41.66248        47.06297         2.00257
H         41.32241        55.83936         0.58089
H         45.35174        44.82715         1.91040
H         43.30619        46.08658         2.35434
H         45.17317        57.27576        -1.56810
H         43.08331        56.52485        -0.52437
H         46.92565        43.79499         1.61016
H         46.89495        58.08816        -2.16663
H         48.85132        42.56792         0.89227
H         48.92071        59.47691        -2.38627
H         52.36774        40.33652        -0.45885
H         50.48554        41.58568         0.46590
H         52.23040        62.47541        -1.80855
H         50.18333        61.16000        -1.43101
H         53.89150        39.22882        -1.21375
H         53.93331        63.47011        -1.71898
H         55.97221        38.17252        -0.57641
H         56.02649        64.67919        -1.45856
H         59.83175        36.31880        -1.66655
H         57.68098        37.37551        -1.05494
H         59.71139        66.77842        -0.67044
H         57.65244        65.60632        -1.18384
H         61.55954        35.02360        -0.97824
H         61.37732        67.67604        -0.63418
H         63.74606        33.88108        -0.80876
H         63.46497        68.85886        -0.12816
H         66.73388        32.07757         1.81062
H         64.94400        33.18266         0.59719
H         66.72629        70.85476         2.06360
H         64.71732        69.62721         1.38253
H         67.92996        32.28833         3.62059
H         68.37930        71.99429         2.05599
H         72.06039        32.27467         4.91168
H         69.64456        31.80278         5.35195
H         72.78273        33.29184         2.79336
H         72.76009        35.37504         2.50812
H         72.85118        37.78943         2.00211
H         72.19357        39.74224         2.73464
H         72.15937        42.16342         2.58603
H         72.71079        43.97162         1.79657
H         72.74008        46.38506         1.61004
H         72.85810        48.26076         1.16922
H         72.89579        50.65568         0.85818
H         73.03691        52.48970         0.26351
H         73.19103        54.77005        -0.35923
H         72.86516        56.48060         0.48098
H         72.94834        58.60599         1.51682
H         72.70251        60.69831         2.42010
H         72.74005        63.12962         2.76603
H         72.80484        65.25953         2.58639
H         72.47008        67.49963         3.47370
H         72.02796        69.36753         4.31133
H         71.95572        71.82354         4.43497
H         70.17951        73.11794         3.28069
