         234
 CSIRO Nanostructure Databank - Neutral Graphene Oxide Data Set
C          1.55323         1.91772        -1.36591
C          1.56448         3.31600        -1.41987
C          2.64857         1.21015        -0.88361
C          2.68587         4.04823        -0.97440
C          1.72962         6.27608        -1.60538
C          1.66795         7.70801        -1.48648
C          2.66192         5.52455        -0.93831
C          2.54224         8.43504        -0.72907
C          1.71251        10.76779        -1.46691
C          1.73474        12.12367        -1.35197
C          2.28431         9.88033        -0.37730
C          2.37941        12.75426        -0.22101
C          1.27383        15.06167        -0.16401
C          1.27737        16.41347        -0.03455
C          2.51451        14.25588        -0.14410
C          2.50235        17.15985         0.17764
C          2.52921        18.61931         0.06309
C          3.81209         1.89826        -0.45393
C          3.80374         3.32589        -0.49905
C          4.96786         1.16408        -0.01901
C          5.01166         4.03074        -0.01310
C          3.63705         6.23050        -0.06349
C          3.58985         7.74556         0.05893
C          4.93603         5.52252         0.21799
C          4.77420         8.54308         0.51560
C          3.45191        10.56722         0.30153
C          3.16016        11.92636         0.57377
C          4.69029         9.93257         0.65971
C          4.98745        13.01856         1.31384
C          3.76956        15.00770         0.32007
C          3.66850        16.48132         0.45015
C          4.99915        14.40653         0.94302
C          4.93977        17.24304         0.43422
C          3.64450        19.35138         0.27589
C          4.90755        18.71042         0.80695
C          6.21355         1.80274         0.15912
C          6.25754         3.21471        -0.04789
C          7.48053         1.15110         0.28135
C          7.50271         3.78430        -0.23282
C          6.12745         6.41204         0.31499
C          6.02374         7.80370         0.82046
C          7.36180         5.97116        -0.05309
C          7.33891         8.55965         0.88165
C          5.98871        10.74620         0.79988
C          6.07987        12.18961         1.18093
C          7.32101        10.04366         0.72337
C          7.36769        12.86551         1.44388
C          6.19499        15.09095         0.96401
C          6.24780        16.51815         0.59634
C          7.40443        14.40100         1.45178
C          7.44527        17.31370         0.87289
C          6.20211        19.39257         0.45582
C          7.42835        18.71631         0.59762
C          8.71428         1.83077         0.37578
C          8.74366         3.28763         0.24586
C          9.91371         1.00865         0.32499
C          9.84444         4.22716         0.45524
C          8.63475         6.50995         0.32362
C          8.62887         7.88623         0.61562
C          9.81483         5.70184         0.32364
C          9.83363         8.61363         0.56964
C          8.63412        10.72353         0.95691
C          8.66915        12.13026         1.33434
C          9.83589        10.05173         0.73322
C          9.98774        12.91932         1.07101
C          8.73457        15.11695         1.37492
C          8.71148        16.63029         1.14218
C          9.94441        14.39096         0.94889
C          9.93895        17.28374         0.68147
C          8.68911        19.40273         0.50204
C          9.91257        18.71388         0.49356
C         11.12185         1.42782         0.83616
C         11.04132         3.73650         1.03742
C         12.42732         0.90210         0.58606
C         12.27563         4.43542         1.00593
C         11.03173         6.45509         0.41933
C         11.03717         7.88817         0.40306
C         12.28528         5.79743         0.57867
C         12.27155         8.60635         0.24792
C         11.08660        10.76371         0.51924
C         11.12128        12.17955         0.51654
C         12.26743        10.02571         0.20931
C         12.25877        12.90444         0.00577
C         11.08780        15.08005         0.53878
C         11.10419        16.53496         0.49041
C         12.25729        14.36398         0.07348
C         12.33323        17.22064         0.22052
C         11.16176        19.38476         0.36089
C         12.36176        18.66777         0.28247
C         13.58201         1.52783         1.06030
C         13.50348         3.77753         1.29893
C         14.93491         1.22715         0.79021
C         14.77106         4.31085         0.96064
C         13.50875         6.49975         0.46047
C         13.48826         7.86762         0.15065
C         14.78335         5.78792         0.75635
C         14.70848         8.52568        -0.35748
C         13.49257        10.77173        -0.14326
C         13.37018        12.20312        -0.46440
C         14.75095        10.02729        -0.47458
C         14.50959        12.89075        -1.12313
C         13.41379        15.07210        -0.26953
C         13.49191        16.49415        -0.10296
C         14.53017        14.39567        -0.97389
C         14.76197        17.18875        -0.22382
C         13.62379        19.32423         0.28008
C         14.81563        18.61104         0.11356
C         16.01932         2.11668         0.97948
C         15.97026         3.56063         0.95046
C         17.31297         1.47703         1.18276
C         17.31922         4.30400         0.89401
C         16.08294         6.48491         0.44869
C         16.01061         7.80729        -0.25024
C         17.29551         5.69016         0.27000
C         17.28512         8.62087        -0.26983
C         15.80295        10.55887        -1.46763
C         15.76412        12.14962        -1.57225
C         17.15102         9.85526        -1.16117
C         17.02587        12.95971        -1.61656
C         15.81508        15.17030        -1.16411
C         15.91106        16.52018        -0.58769
C         17.09511        14.48610        -1.61613
C         17.23602        17.23398        -0.71571
C         16.07933        19.22165         0.29506
C         17.27666        18.50550         0.10458
C         18.49077         2.12429         0.94812
C         18.35409         3.42325         0.18224
C         19.75690         1.65563         1.45968
C         19.66799         4.12956        -0.07988
C         18.46802         6.30270        -0.24049
C         18.47183         7.72312        -0.63130
C         19.64663         5.54843        -0.43705
C         19.60885         8.26921        -1.17168
C         18.22663        10.18288        -1.89581
C         18.21994        12.39062        -1.99113
C         19.57207         9.56565        -1.93556
C         19.51513        12.82889        -1.49377
C         18.36345        14.99616        -0.95275
C         18.42218        16.31120        -0.50751
C         19.54458        14.16452        -0.94939
C         19.63731        16.85823         0.01747
C         18.49939        19.00155         0.54460
C         19.68686        18.21179         0.49675
C         20.90559         2.36845         1.33190
C         20.97004         3.56853         0.48101
C         22.08312         4.53375         0.63294
C         20.95701         6.11766        -0.95219
C         20.88780         7.60392        -1.20389
C         22.07390         5.72399         0.00922
C         21.99408         8.37763        -1.46445
C         20.73179        10.50592        -1.59555
C         20.65359        11.96681        -1.37878
C         21.92503         9.81487        -1.52986
C         21.83379        12.55965        -0.84452
C         20.75401        14.69811        -0.42376
C         20.80954        16.05543         0.07253
C         21.89866        13.86712        -0.41822
C         22.00506        16.61819         0.58369
C         20.89872        18.73034         0.99349
C         22.04547        17.93596         1.02976
O         18.14878        11.24748        -2.79457
O         14.72104        12.51196        -2.54276
O         14.68937        10.63633         0.83755
O          4.81489         4.60273         1.36070
O          3.75759        12.50301         1.69301
O          7.26039        13.64749         2.68490
O         14.79989        15.09419        -2.23659
O         20.56257         3.30475        -0.92012
O          8.88845        16.03813         2.49738
O          3.55516        14.65992        -1.10727
O          7.47675         4.95227        -0.98993
O         15.55343         6.47961         1.83123
O          5.70627        16.88881        -0.75200
O         11.02467         2.52883         1.72182
O          3.03339         6.86010         1.11371
O         15.28261         7.78647        -1.49996
O          6.69761        10.54596        -0.51548
O         13.42127         2.58097         1.99557
O          9.59294        12.43814         2.40636
O          6.66194         8.10300         2.10858
O          4.79708        18.72538         2.27607
H          4.80196        19.66108         2.56804
O         17.79156         3.12630        -1.11921
H         18.50766         2.72609        -1.65859
O          1.22507         9.79388         0.65182
H          1.51796         9.13045         1.31444
O         17.50861         9.03896         1.10273
H         18.34930         9.53914         1.14718
O         15.42314        10.08048        -2.76643
H         14.91893        10.79784        -3.21629
O         19.77253         9.18832        -3.33425
H         19.42163         9.92872        -3.87684
O         17.75851         4.50883         2.26569
H         17.12352         5.14373         2.67089
O         17.25077        14.82749        -3.02338
H         16.34978        14.78413        -3.41948
O         21.27043         5.51226        -2.23695
H         21.19758         4.53369        -2.11238
O         17.32612        17.66778        -2.11293
H         16.50347        18.15681        -2.32547
H          0.65979         1.37400        -1.70337
H          0.67325         3.84220        -1.78785
H          2.62572         0.11162        -0.84753
H          0.98247         5.79095        -2.24932
H          0.85539         8.22404        -2.01823
H          1.18867        10.29678        -2.31117
H          1.27125        12.75579        -2.12298
H          0.31906        14.52327        -0.25779
H          0.32991        16.97065        -0.08559
H          1.60016        19.11686        -0.25515
H          4.89891         0.06777         0.04672
H          3.61919        20.44615         0.15981
H          7.49866         0.05131         0.31078
H          6.20452        20.47687         0.26696
H          9.83860         0.03306        -0.17745
H          8.68801        20.49393         0.36460
H         12.52676         0.05910        -0.11157
H         11.18251        20.48414         0.33628
H         15.18145         0.20379         0.46626
H         13.66197        20.41119         0.44516
H         17.31636         0.46795         1.62430
H         16.12263        20.24303         0.70358
H         19.74784         0.74036         2.07107
H         18.54150        19.99032         1.02717
H         21.82184         2.04925         1.85003
H         22.90863         4.26077         1.30861
H         22.91993         6.41637         0.14032
H         22.99143         7.91559        -1.49213
H         22.89190        10.33449        -1.48222
H         22.74554        11.96024        -0.74031
H         22.85624        14.24226        -0.03511
H         22.92479        16.02061         0.62907
H         20.93171        19.76678         1.35845
H         22.98623        18.35035         1.41795
