         620
 CSIRO Nanostructure Databank - Neutral Graphene Oxide Data Set
C         22.92552        27.49916         0.05567
C         22.92237        28.85396         0.35391
C         23.04604        31.78140         0.01979
C         23.11236        33.12924        -0.08573
C         23.02529        36.05750         0.40510
C         23.02166        37.47587         0.54933
C         23.21859        40.38103        -0.02314
C         23.33710        41.70143        -0.27732
C         23.29643        44.64254        -0.19996
C         23.25125        46.00009        -0.06318
C         25.36484        24.76004        -0.55894
C         24.17220        25.41925        -0.41800
C         25.37720        27.48949         0.15308
C         24.14752        26.80431        -0.07453
C         25.36083        28.88227         0.45896
C         24.12551        29.56163         0.52048
C         25.40917        31.72042         0.80460
C         24.06576        31.03281         0.84386
C         25.42921        33.14730         0.76729
C         24.24040        33.87290         0.42575
C         25.38245        35.97306         1.10335
C         24.17572        35.29739         0.58027
C         25.35911        37.47800         1.27678
C         24.14169        38.19911         0.88591
C         25.51044        40.35751         0.95588
C         24.13290        39.71318         0.97442
C         25.58054        41.76949         0.75952
C         24.44668        42.48130         0.24313
C         25.63114        44.61672         0.60224
C         24.46130        43.89361         0.18834
C         25.60182        46.04409         0.69375
C         24.37832        46.73584         0.43656
C         25.34180        48.78513         1.29484
C         24.27253        48.11257         0.70952
C         27.90827        23.43439        -1.03709
C         27.86299        24.74499        -0.49888
C         26.61048        25.42249        -0.32763
C         27.85317        27.44960         0.37526
C         26.61639        26.78387         0.06656
C         27.82620        28.85071         0.69314
C         26.60979        29.56289         0.70600
C         27.85285        31.67058         1.13029
C         26.60430        30.99128         0.90429
C         27.84608        33.10788         1.24049
C         26.66597        33.82127         1.00414
C         27.87500        36.00749         1.42783
C         26.70708        35.31198         0.78747
C         27.81991        37.41867         1.55638
C         26.65212        38.18502         1.36419
C         27.88449        40.35661         1.54266
C         26.67216        39.62752         1.29720
C         27.92683        41.74548         1.45158
C         26.78313        42.49112         1.05989
C         27.99333        44.68346         1.31624
C         26.80585        43.92853         1.00232
C         28.04995        46.09863         1.21837
C         26.76064        46.77116         1.11116
C         28.62213        49.17918         1.41824
C         26.55584        48.11513         1.48762
C         28.82630        50.56304         1.33203
C         30.33384        23.41466        -0.85743
C         29.11166        22.80934        -1.25112
C         30.31140        24.67618        -0.21895
C         29.08159        25.38293        -0.11485
C         30.31678        27.37585         0.76506
C         29.07712        26.73803         0.35895
C         30.27033        28.78218         1.05299
C         29.07123        29.51506         0.98646
C         30.29847        31.64642         1.43929
C         29.05799        30.94297         1.21142
C         30.26430        33.06895         1.65865
C         29.07785        33.80200         1.55827
C         30.28196        35.92902         1.91065
C         29.06894        35.25485         1.69521
C         30.33160        37.37390         1.67385
C         29.06827        38.12754         1.91183
C         30.41507        40.30326         1.74991
C         29.10728        39.62388         1.94833
C         30.42658        41.69131         1.56037
C         29.16492        42.44541         1.95723
C         30.50672        44.62096         1.21670
C         29.20054        43.94506         1.67453
C         30.45901        45.99755         0.69883
C         29.32258        46.78580         0.98303
C         30.65067        48.77472         0.16631
C         29.48883        48.23538         0.82590
C         30.81723        50.18749         0.00190
C         29.89472        51.06477         0.60285
C         32.82867        21.14337        -2.53236
C         31.63015        21.72654        -2.18472
C         32.79360        23.26100        -0.70467
C         31.58482        22.76800        -1.22073
C         32.77385        24.27433         0.35723
C         31.49846        25.18330         0.52124
C         32.75509        27.35286         1.22822
C         31.52483        26.62840         0.91786
C         32.78025        28.76991         1.28778
C         31.48733        29.45454         1.63922
C         32.77371        31.63159         1.61819
C         31.51484        30.95057         1.49519
C         32.79779        33.02225         1.86975
C         31.51862        33.70391         2.09404
C         32.83274        35.93749         2.13715
C         31.52683        35.23721         2.21424
C         32.85215        37.33576         2.06496
C         31.63914        38.09751         1.75842
C         32.84445        40.26406         1.60286
C         31.62954        39.58192         1.77926
C         32.83967        41.58862         1.10643
C         31.60584        42.32144         1.09381
C         32.39778        44.26180        -0.23082
C         31.55119        43.72078         0.72929
C         32.64974        45.64254        -0.39558
C         31.62224        46.52069         0.02602
C         32.79788        48.42199        -1.04147
C         31.69337        47.91204        -0.29539
C         32.87128        49.78053        -1.34175
C         31.93140        50.70046        -0.78109
C         33.20186        52.56031        -1.77471
C         32.12293        52.07242        -0.99031
C         35.25431        19.54664        -2.61203
C         35.29208        20.90403        -2.20811
C         34.05733        21.62367        -2.01054
C         35.30225        23.35011        -0.75226
C         34.04737        22.76556        -1.16552
C         35.29560        24.44051         0.21148
C         34.09090        24.70795         0.81522
C         35.26130        27.35624         1.26343
C         34.02262        26.73357         1.46136
C         35.26292        28.77887         1.27870
C         34.01253        29.47519         1.37312
C         35.24032        31.59739         1.73535
C         34.01024        30.90419         1.55829
C         35.25985        33.01179         1.95580
C         34.02610        33.74096         2.02670
C         35.32221        35.86044         2.34578
C         34.02690        35.16079         2.20664
C         35.38447        37.37119         2.36389
C         34.08266        38.11091         2.30621
C         35.42212        40.25358         1.80330
C         34.09712        39.58368         2.02463
C         35.39352        41.66001         1.24584
C         34.10926        42.19512         0.74735
C         35.33231        44.06230        -0.37979
C         34.19632        43.18471        -0.20664
C         35.23342        45.39580        -0.86071
C         33.90791        46.08743        -1.08364
C         35.24683        48.22790        -1.66196
C         33.93312        47.54720        -1.46198
C         35.24957        49.55475        -2.09782
C         33.90155        50.22496        -2.35626
C         35.18622        52.21555        -3.30123
C         34.04904        51.72012        -2.44415
C         35.23189        53.71304        -3.42614
C         37.57283        19.35258        -1.98636
C         36.36984        18.75857        -2.41299
C         37.75783        20.74117        -1.87233
C         36.52629        21.49420        -1.80909
C         37.80964        23.31401        -0.72210
C         36.50085        22.75744        -1.14562
C         37.84860        24.55290         0.12303
C         36.55170        25.10858         0.67383
C         37.79333        27.35766         1.06364
C         36.53098        26.56759         1.16858
C         37.76496        28.73069         1.43024
C         36.50320        29.47349         1.49482
C         37.68505        31.53103         2.23008
C         36.46935        30.85093         1.74474
C         37.75379        33.00434         2.14031
C         36.52454        33.71464         2.03131
C         37.78284        35.83520         1.93759
C         36.56172        35.12684         2.05282
C         37.79776        37.27280         1.76064
C         36.61546        38.04356         1.88078
C         37.81457        40.05397         1.10012
C         36.63370        39.42962         1.59541
C         37.77626        41.41559         0.62743
C         36.60797        42.16714         0.58175
C         37.78010        44.12481        -0.40634
C         36.57231        43.45059        -0.06501
C         37.71748        45.48583        -0.82264
C         36.45325        46.13262        -1.02762
C         37.70696        48.21607        -1.58922
C         36.46279        47.52023        -1.42649
C         37.69410        49.55224        -2.09407
C         36.48356        50.23167        -2.36912
C         37.65721        52.36749        -2.86795
C         36.48980        51.61154        -2.82009
C         37.65329        53.79585        -3.06488
C         36.37303        54.42607        -3.32290
C         40.51174        17.12278        -4.41425
C         39.48857        17.30796        -3.49697
C         40.44052        19.48520        -2.77370
C         39.49764        18.44161        -2.66486
C         40.27541        20.84257        -2.20990
C         39.06484        21.41260        -1.82946
C         40.20343        23.72578        -1.41118
C         38.91846        22.95156        -1.70322
C         40.20239        24.91387        -0.50805
C         39.06524        25.41434         0.08227
C         40.22266        27.51604         0.75906
C         39.02293        26.75896         0.67156
C         40.23227        28.80030         1.34215
C         38.99352        29.40045         1.66557
C         40.26128        31.48207         2.41010
C         38.97197        30.73791         2.27784
C         40.25633        32.99354         2.36841
C         38.97514        33.69917         2.14401
C         40.25751        35.80036         1.77253
C         39.00553        35.10574         1.93321
C         40.24780        37.18914         1.47385
C         39.02149        37.92424         1.42719
C         40.27246        39.90722         0.65017
C         39.03431        39.29847         1.04755
C         40.22650        41.20284        -0.05559
C         38.94956        41.97197        -0.07302
C         40.23118        44.09788        -0.53709
C         39.00429        43.42132        -0.34590
C         40.18718        45.49814        -0.71641
C         38.96136        46.18828        -0.94421
C         40.21337        48.28941        -1.37273
C         38.95391        47.57057        -1.30638
C         40.23149        49.65725        -1.86608
C         38.97535        50.19892        -2.41996
C         40.17435        52.47377        -2.59080
C         38.95598        51.68185        -2.78256
C         40.12001        53.87079        -2.75543
C         38.85639        54.53399        -3.01680
C         40.04529        56.67633        -3.13123
C         38.88189        55.96042        -3.19504
C         42.84784        17.66086        -5.06630
C         41.63325        17.98294        -4.35500
C         42.88702        19.73533        -3.15379
C         41.60382        19.12077        -3.51845
C         42.82292        21.02484        -2.36992
C         41.48702        21.74988        -2.51212
C         42.78956        23.68974        -1.28327
C         41.51411        23.12793        -1.83273
C         42.77184        24.94552        -0.65296
C         41.48162        25.67289        -0.50081
C         42.77258        27.55500         0.68097
C         41.48920        27.00138         0.19510
C         42.77158        28.81794         1.30906
C         41.50356        29.50665         1.57109
C         42.77591        31.52155         2.45487
C         41.51441        30.78918         2.06073
C         42.74206        33.00354         2.12017
C         41.53464        33.69410         2.08537
C         42.72941        35.82780         1.78739
C         41.50159        35.10554         1.85699
C         42.69574        37.21711         1.53739
C         41.48011        37.88536         1.29748
C         42.77557        39.90337         0.60447
C         41.49205        39.25130         0.85413
C         42.78948        41.14846        -0.21435
C         41.50015        41.90219        -0.43475
C         42.70838        44.09549        -0.63606
C         41.51155        43.38967        -0.53885
C         42.73468        45.53830        -0.71291
C         41.43770        46.28148        -0.45057
C         42.65641        48.41514        -0.91016
C         41.40153        47.66221        -1.02465
C         42.64210        49.87396        -1.35013
C         41.38872        50.41512        -1.90771
C         42.60739        52.54575        -2.31846
C         41.40408        51.81050        -2.32008
C         42.58246        53.95575        -2.48584
C         41.33268        54.62151        -2.68982
C         42.51083        56.75554        -2.86306
C         41.30591        56.03369        -2.88806
C         44.02145        18.32561        -4.84069
C         45.29549        20.08613        -3.59651
C         44.11860        19.36685        -3.85745
C         45.24885        21.26447        -2.76979
C         44.06802        21.79281        -2.26826
C         45.23652        23.65980        -1.13447
C         44.03473        23.06202        -1.56143
C         45.23084        24.90179        -0.46342
C         43.98508        25.56823        -0.23378
C         45.22301        27.45244         0.80930
C         43.98292        26.86047         0.41738
C         45.23452        28.76731         1.36526
C         44.00630        29.45593         1.61092
C         45.21564        31.56386         2.00809
C         44.03427        30.84785         1.98555
C         45.22930        33.00915         1.99158
C         43.98524        33.71118         1.99439
C         45.22251        35.83553         1.88405
C         43.98682        35.13140         1.90128
C         45.20952        37.30296         2.01175
C         43.90609        38.02868         1.73768
C         45.26457        40.01487         0.90869
C         43.93175        39.38686         1.14870
C         45.33779        41.28957         0.11388
C         44.07269        41.90760        -0.39509
C         45.25452        44.17639        -0.48221
C         44.01517        43.39007        -0.65970
C         45.21939        45.56181        -0.73383
C         43.93028        46.24266        -0.84165
C         45.11371        48.41492        -1.12409
C         43.94448        47.69710        -0.94810
C         45.11180        49.83795        -1.41075
C         43.91960        50.49533        -1.67728
C         45.11762        52.65782        -1.98058
C         43.93054        51.82055        -2.38422
C         45.05819        54.05627        -2.09532
C         43.79531        54.72318        -2.42426
C         43.72606        56.10967        -2.62635
C         47.72592        20.35750        -3.97487
C         46.56853        19.68126        -4.16539
C         47.76965        21.61422        -3.20413
C         46.48302        22.06846        -2.58505
C         47.77687        23.71119        -1.18168
C         46.52320        22.88746        -1.31402
C         47.74385        24.88267        -0.37859
C         46.48209        25.49194        -0.04553
C         47.68895        27.36710         0.99352
C         46.46107        26.75713         0.59708
C         47.67002        28.69318         1.51701
C         46.48067        29.40650         1.65734
C         47.70956        31.61652         1.74807
C         46.50624        30.82432         2.20494
C         47.69860        32.99824         1.63810
C         46.44502        33.72490         1.81010
C         47.71039        35.89348         1.66308
C         46.45258        35.14685         1.78469
C         47.75289        37.27353         1.76933
C         46.51714        38.06253         1.97460
C         47.78378        40.38604         1.53811
C         46.49278        39.54729         1.65855
C         47.76391        41.55220         0.56205
C         46.54475        42.13793         0.16420
C         47.69897        44.26748        -0.27033
C         46.48996        43.51115        -0.22699
C         47.66948        45.66203        -0.57345
C         46.42738        46.29769        -0.80198
C         47.64247        48.50274        -1.01945
C         46.41494        47.69254        -1.36180
C         47.59333        49.91568        -1.16682
C         46.36445        50.56991        -1.46000
C         47.51398        52.76521        -1.41451
C         46.33046        51.99614        -1.62668
C         47.42863        54.17460        -1.52675
C         46.24026        54.80292        -1.84192
C         50.28626        21.56149        -3.00870
C         49.03619        22.14760        -2.64419
C         50.24066        23.96383        -1.44273
C         48.98894        23.24068        -1.74988
C         50.25897        24.91841        -0.30902
C         48.97091        25.47896         0.07410
C         50.18652        27.29655         1.17869
C         48.93095        26.67771         0.81663
C         50.22123        28.65731         1.40429
C         48.96527        29.36535         1.72681
C         50.17821        31.52312         1.19673
C         48.97420        30.86598         1.75197
C         50.13816        33.00524         1.01220
C         48.90951        33.75553         1.36237
C         50.16265        35.87978         1.09972
C         48.93816        35.14979         1.39520
C         50.23312        37.26691         1.18494
C         49.03418        38.00864         1.64182
C         50.26884        40.15973         0.96283
C         49.04890        39.52000         1.49048
C         50.25468        41.67093         0.88489
C         48.96094        42.25791         0.38270
C         50.15241        44.35802        -0.21321
C         48.94717        43.61140        -0.06557
C         50.13846        45.75183        -0.42053
C         48.89424        46.41857        -0.59403
C         50.09087        48.58707        -0.66867
C         48.86452        47.84260        -0.76889
C         50.04458        50.01546        -0.76080
C         48.80277        50.68222        -1.00817
C         49.96348        52.82688        -0.91575
C         48.76045        52.09905        -1.10570
C         51.48976        22.08047        -2.61855
C         52.79927        23.76980        -1.22819
C         51.56091        23.37952        -1.94528
C         52.70386        24.62009        -0.09610
C         51.45716        25.30253         0.27791
C         52.67673        27.28378         1.40464
C         51.41556        26.42436         1.34298
C         52.68331        28.70530         1.34373
C         51.45466        29.41421         1.40095
C         52.67454        31.55197         1.23001
C         51.46879        30.82225         1.31778
C         52.64051        33.00197         1.06438
C         51.43719        33.68791         0.97211
C         52.70419        35.86866         0.61691
C         51.38093        35.13165         0.71930
C         52.68256        37.33169         0.78009
C         51.46272        38.00102         0.94989
C         52.70981        40.15565         0.56344
C         51.45180        39.45553         0.85976
C         52.71952        41.50431         0.28611
C         51.43540        42.19364         0.10748
C         52.69611        44.38067        -0.30350
C         51.42482        43.62926        -0.30663
C         52.63458        45.81322        -0.34129
C         51.38418        46.48949        -0.44314
C         52.56014        48.66844        -0.42247
C         51.33818        47.91446        -0.51591
C         52.50438        50.09345        -0.40926
C         51.24152        50.77212        -0.60463
C         51.16073        52.18516        -0.67234
C         55.24576        23.73638        -1.06248
C         54.05935        23.30363        -1.65462
C         55.19540        24.51775         0.11195
C         53.91426        24.77280         0.62322
C         55.16159        27.29850         1.36597
C         53.90578        26.67567         1.58991
C         55.16327        28.71985         1.34644
C         53.91898        29.42078         1.34538
C         55.15708        31.54940         1.35773
C         53.91399        30.84782         1.29653
C         55.12091        33.01151         1.45699
C         53.89165        33.73812         1.09594
C         55.20304        35.82112         0.82204
C         53.94643        35.11124         0.89065
C         55.16374        37.24741         0.43274
C         53.92261        38.02916         0.61317
C         55.20698        40.14884         0.39992
C         53.95537        39.41624         0.50294
C         55.20584        41.55741         0.22012
C         53.93983        42.19019        -0.28173
C         55.13000        44.42593        -0.05041
C         53.90168        43.69879        -0.15415
C         55.08450        45.84705        -0.18718
C         53.86562        46.54712        -0.31447
C         55.00813        48.76525        -0.20383
C         53.82175        47.99897        -0.33366
C         54.92026        50.16723        -0.10675
C         53.70356        50.81762        -0.21869
C         57.63427        24.53641         0.54865
C         56.39127        25.18278         0.67831
C         57.60563        27.27645         1.20083
C         56.37189        26.54936         1.12723
C         57.62106        28.70661         1.33186
C         56.40171        29.43402         1.34462
C         57.64932        31.58565         1.33263
C         56.38756        30.86666         1.38957
C         57.67856        32.97440         1.17996
C         56.46449        33.76523         1.35410
C         57.69797        35.88269         0.85839
C         56.42839        35.17734         0.93405
C         57.71361        37.30005         0.80104
C         56.47963        38.01452         0.45104
C         57.64900        40.20132         0.72620
C         56.43649        39.47759         0.56470
C         57.62281        41.63062         0.64926
C         56.39028        42.30629         0.34394
C         57.58405        44.48091         0.37131
C         56.36513        43.74037         0.18650
C         57.58399        45.89433         0.20973
C         56.36273        46.57390        -0.24820
C         57.54464        48.78390         0.25394
C         56.33432        48.10660        -0.24354
C         58.83275        25.19201         0.81705
C         60.07566        27.29557         1.22219
C         58.84218        26.57301         1.08839
C         60.09044        28.65376         1.36395
C         58.87280        29.42161         1.37506
C         60.11584        31.59870         1.41978
C         58.88351        30.83399         1.36279
C         60.15456        32.93032         1.18512
C         58.93443        33.67394         0.70812
C         60.10224        35.90850         1.13619
C         58.92244        35.17254         0.97148
C         60.09489        37.30322         1.19819
C         58.90690        38.03537         0.99804
C         60.04559        40.26487         1.12250
C         58.88124        39.50134         0.94943
C         60.02069        41.65754         1.06453
C         58.82943        42.36842         0.81695
C         59.96719        44.59495         0.91178
C         58.80295        43.81780         0.70707
C         59.94047        45.97555         0.81261
C         58.74794        46.64965         0.45955
C         58.68828        48.09687         0.49245
O         35.57428        41.42338         2.67659
O         49.30429        38.88872         2.80105
O         44.20171        42.41234        -1.75401
O         38.15247        30.88811         3.47302
O         55.79383        33.53861         2.64603
O         38.14136        23.20566         0.68613
O         34.04091        25.44273         1.99803
O         31.85914        24.13390         1.48772
O         30.10350        44.57909         2.62743
O         35.50627        36.62853         3.61170
O         41.43233        26.91924        -1.28738
O         40.32066        32.25921         3.65252
O         44.38417        37.81182         3.11133
O         39.33172        41.13338        -1.23473
O         46.43230        39.09161         3.02980
O         33.95403        39.08654         3.40478
O         51.25680        42.52398        -1.31792
O         45.60086        39.98333        -0.53467
O         31.03780        37.69264         0.41622
O         46.94857        22.71969        -3.79342
O         56.54842        47.35257        -1.48261
O         53.87990        25.30980         1.92176
O         42.10497        41.09289        -1.50183
O         29.01220        38.84126         3.18913
O         27.54243        48.79410         2.21445
O         40.84857        24.12723        -2.68820
O         42.56155        49.49991         0.08585
O         33.10539        43.38207        -1.05918
O         49.16376        30.11184         3.00516
O         49.93285        32.07594        -0.13866
O         38.58387        18.46152        -1.60685
O         55.87265        37.53405        -0.81079
O         25.20887        36.52856         2.42276
O         51.96522        35.46701        -0.59053
O         31.42686        34.37284         3.39349
O         36.64440        25.42934         2.08845
O         50.90928        24.48638        -2.64775
O         39.09464        50.63497        -3.81551
O         33.65005        46.52062        -2.46924
O         42.91650        19.77423        -1.65038
O         38.41583        23.40066        -2.98754
H         39.19391        23.67802        -3.52453
O         58.93924        33.57059        -0.76390
H         58.99406        32.61785        -0.99065
O         29.08888        42.32023         3.40574
H         29.72490        42.97041         3.78137
O         46.47332        47.51640        -2.83106
H         47.29088        47.01335        -3.03404
O         47.89162        41.10826         2.80944
H         47.81036        40.41690         3.51162
O         26.86552        35.50266        -0.66680
H         27.70132        35.06575        -0.93593
O         41.43374        46.48216         1.02620
H         41.95376        47.29449         1.21449
O         31.35835        29.24053         3.10439
H         31.34986        28.27111         3.25931
O         44.11983        51.50973        -3.81639
H         44.18346        52.36293        -4.29602
O         50.43285        42.15166         2.25278
H         49.62495        41.86338         2.75285
O         23.60145        31.12002         2.23809
H         23.59794        32.06916         2.48669
O         34.97738        51.69017        -4.66432
H         35.82182        51.79492        -5.15286
O         51.25039        25.76623         2.63304
H         52.09444        25.29125         2.81415
O         41.41248        21.99017        -3.94982
H         41.04639        22.89691        -4.07754
O         23.58113        40.01022         2.30384
H         23.63014        40.98129         2.43267
O         33.41431        49.73384        -3.64109
H         33.92393        50.21100        -4.34074
O         42.85769        31.43618         3.91496
H         42.00202        31.78775         4.26700
O         46.62639        30.70874         3.66445
H         47.53853        30.37042         3.84737
O         53.90274        41.91239        -1.72471
H         52.97943        42.11197        -2.02140
O         46.57456        21.89846        -0.22855
H         46.51042        22.38050         0.62285
H         21.97859        26.95864        -0.08419
H         21.96338        29.37765         0.46752
H         22.18038        31.24260        -0.39122
H         22.30716        33.67601        -0.59770
H         22.08760        35.57487         0.09587
H         22.07817        37.99766         0.33507
H         22.37994        39.81755        -0.45608
H         22.60748        42.19137        -0.93785
H         22.40559        44.11002        -0.55844
H         22.33371        46.55231        -0.31297
H         25.35129        23.69698        -0.83126
H         23.22130        24.89173        -0.57980
H         25.24540        49.83134         1.61212
H         23.32298        48.63312         0.52215
H         26.98459        22.91753        -1.32467
H         28.12448        51.23865         1.83724
H         29.11586        21.80583        -1.69452
H         30.01568        52.15211         0.51946
H         32.82513        20.31298        -3.25081
H         30.70771        21.35766        -2.65073
H         33.32729        53.65017        -1.85818
H         31.44307        52.80969        -0.54499
H         34.31444        19.08357        -2.93803
H         34.29758        54.22405        -3.70135
H         36.33152        17.67123        -2.55679
H         36.33087        55.51386        -3.47094
H         40.52238        16.24900        -5.08044
H         38.68171        16.57151        -3.38976
H         40.02965        57.76627        -3.27668
H         37.94521        56.49893        -3.39024
H         42.81800        16.83422        -5.79113
H         42.49401        57.84258        -3.02622
H         44.91308        18.03869        -5.41421
H         44.64037        56.71725        -2.60277
H         48.65467        19.95463        -4.40249
H         46.60067        18.75142        -4.75008
H         48.31687        54.79673        -1.35583
H         46.22436        55.89913        -1.89880
H         50.28287        20.61730        -3.57050
H         49.96065        53.92314        -0.97234
H         52.41286        21.51034        -2.79358
H         52.06290        52.79767        -0.54661
H         56.21101        23.47836        -1.51948
H         54.11802        22.66701        -2.54805
H         55.83194        50.76815         0.00962
H         53.69175        51.91407        -0.17617
H         57.65789        23.48391         0.23231
H         57.52186        49.86911         0.42672
H         59.78570        24.64932         0.74013
H         61.02022        26.73364         1.18402
H         61.05711        29.16918         1.43937
H         61.05017        31.08162         1.68061
H         61.12282        33.44915         1.22040
H         61.06878        35.39338         1.21956
H         61.05015        37.82381         1.34801
H         61.00926        39.77017         1.30361
H         60.96785        42.19625         1.19935
H         60.91452        44.10651         1.17537
H         60.85157        46.55909         1.00734
H         59.59009        48.63520         0.82040
