         349
 CSIRO Nanostructure Databank - Neutral Graphene Oxide Data Set
C          1.23448         3.94397        -0.79723
C          0.07905         4.68070        -1.08115
C          1.41057         6.69913        -1.41002
C          0.15701         6.02882        -1.40065
C          1.53843         8.03854        -1.92880
C          0.38261         8.82885        -2.21713
C          1.65440        10.97865        -2.74268
C          0.41325        10.14103        -2.58262
C          1.56483        12.27067        -1.93053
C          0.38611        12.96181        -1.78882
C          1.43565        15.08529        -1.09823
C          0.31156        14.32405        -1.35054
C          1.42982        16.52482        -0.83567
C          0.22481        17.23932        -0.75189
C          1.37520        19.33925        -0.24693
C          0.19587        18.60406        -0.46198
C          1.35181        20.76666         0.04878
C          0.14431        21.45191         0.30305
C          1.32387        23.54898         0.69190
C          0.13240        22.79731         0.64907
C          1.31789        24.95759         1.20897
C          0.09779        25.77535         1.32870
C          1.39537        27.85699         1.62167
C          0.15572        27.10290         1.62895
C          1.42883        29.29052         1.83246
C          3.64679         3.64371        -0.55280
C          2.49697         4.55960        -0.70198
C          3.82040         6.68756        -0.95615
C          2.56253         5.97757        -0.94222
C          4.03483         7.82880        -1.78189
C          2.86274         8.61492        -2.25345
C          4.18773        10.93883        -2.25065
C          2.94737        10.15821        -2.54548
C          4.11764        12.30136        -1.79917
C          2.80198        12.90927        -1.46797
C          3.95695        15.20992        -1.22697
C          2.72771        14.37771        -1.06012
C          3.92198        16.61061        -0.74957
C          2.65609        17.25200        -0.62160
C          3.85275        19.37682        -0.15944
C          2.62541        18.65438        -0.33234
C          3.83941        20.81278         0.00592
C          2.56957        21.50439         0.09919
C          3.79086        23.68201         0.20849
C          2.53460        22.90090         0.36819
C          3.82498        25.11868         0.56344
C          2.61214        25.74743         1.17246
C          3.77290        27.98688         0.95253
C          2.56353        27.21156         1.25517
C          3.83873        29.40263         1.35363
C          2.58808        30.01253         1.74266
C          6.13066         3.33035         0.16439
C          4.81551         3.96641         0.08038
C          6.23551         6.29674        -0.80841
C          4.94826         6.09236        -0.34543
C          6.47574         7.40178        -1.66003
C          5.36154         8.13264        -2.13691
C          6.63655        10.99724        -1.87298
C          5.46417        10.39330        -2.42301
C          6.54125        12.35954        -1.43139
C          5.28348        13.02945        -1.54906
C          6.53485        15.24560        -1.10425
C          5.26151        14.51007        -1.43799
C          6.45345        16.68024        -0.67062
C          5.11498        17.32333        -0.54875
C          6.40779        19.43244        -0.15373
C          5.08503        18.69303        -0.22932
C          6.25503        20.77422         0.48429
C          5.05176        21.48867         0.26037
C          6.12585        23.57571         1.15678
C          5.15123        22.99240         0.13357
C          6.20113        25.02633         1.33986
C          5.12047        25.76091         0.92187
C          6.32176        27.96348         1.10057
C          5.10942        27.23075         0.81671
C          6.31451        29.36935         1.16734
C          5.05225        30.06512         1.32210
C          8.59849         3.40552         0.32648
C          7.31597         4.04713         0.10454
C          8.53608         6.28864        -0.01851
C          7.42942         5.41233        -0.56558
C          8.67072         7.65785        -0.58203
C          7.81312         7.99070        -1.59464
C          8.89268        10.74811        -0.84132
C          7.85368        10.29263        -1.69155
C          8.71727        12.12532        -0.30495
C          7.65614        12.97574        -0.84855
C          8.80176        15.04058         0.18407
C          7.74487        14.43225        -0.72481
C          8.58643        16.41177         0.73637
C          7.54584        17.27929         0.15755
C          8.64884        19.28630         1.10857
C          7.52446        18.61680         0.45633
C          8.59148        20.72499         1.38389
C          7.32839        21.37524         1.18490
C          8.86572        23.70609         2.12029
C          7.02598        22.69533         1.70245
C          8.77329        25.08294         1.83092
C          7.43172        25.81362         1.89911
C          8.78671        27.95442         1.42481
C          7.57184        27.13868         1.09070
C          8.80390        29.36500         1.20342
C          7.55408        30.06456         1.14186
C         11.09480         3.44504         0.46937
C          9.81731         4.07987         0.30860
C         11.05751         6.32772         0.09300
C          9.81105         5.56365         0.26415
C         11.06818         7.68825         0.02257
C          9.78006         8.48990         0.05101
C         11.13602        10.61280         0.19155
C          9.95406         9.95907        -0.34128
C         11.14389        12.05228         0.46174
C          9.85966        12.76842         0.48909
C         11.03571        14.81178         1.34645
C          9.83515        14.19512         0.77366
C         11.03271        16.30276         1.66530
C          9.75427        17.08497         1.46382
C         10.99597        19.23445         2.03386
C          9.78335        18.55312         1.43972
C         11.05326        20.70594         1.65425
C          9.83720        21.42200         1.66958
C         11.14915        23.56368         1.43140
C          9.93033        22.88379         1.73995
C         11.17552        24.99803         1.36730
C          9.96797        25.73964         1.51829
C         11.35259        27.92471         1.38059
C         10.02565        27.21442         1.59207
C         11.39344        29.44593         1.23991
C         10.02747        30.06006         1.09037
C         13.56146         3.44197         0.40762
C         12.30686         4.11764         0.29536
C         13.57994         6.28978        -0.26937
C         12.25644         5.51232        -0.31661
C         13.61650         7.82673        -0.07505
C         12.31489         8.39072         0.50925
C         13.54180        10.59747         0.95411
C         12.30689         9.89319         0.40997
C         13.62017        12.04399         0.47162
C         12.31188        12.75659         0.68924
C         13.51264        14.87020         1.13088
C         12.31984        14.14626         1.05228
C         13.49745        16.30588         1.32364
C         12.32311        17.00476         1.54511
C         13.58545        19.22428         1.56440
C         12.32113        18.47020         1.82497
C         13.52592        20.67997         1.37166
C         12.31930        21.37578         1.46244
C         13.51624        23.48767         0.83427
C         12.33729        22.81781         1.26209
C         13.49680        24.89281         0.57769
C         12.37188        25.66698         0.95949
C         13.39986        27.67852        -0.00935
C         12.41963        27.09413         0.79404
C         13.25879        29.06803        -0.44476
C         12.24873        29.87871         0.08463
C         16.05096         3.36161         0.27225
C         14.80493         4.05808         0.22519
C         16.11619         6.26751         0.17064
C         14.83966         5.51472        -0.08111
C         16.12629         7.73590         0.41689
C         14.81242         8.38299         0.79970
C         16.02001        10.56037         1.01552
C         14.86796         9.90083         0.72005
C         15.98737        11.98845         1.52805
C         14.80881        12.78280         1.02286
C         16.05055        14.87098         1.32605
C         14.78959        14.14889         1.13341
C         16.05910        16.26392         1.24952
C         14.77849        17.00882         0.91648
C         15.99194        19.17682         1.02223
C         14.82293        18.49228         1.19811
C         15.99356        20.61191         0.78731
C         14.83830        21.42902         1.29519
C         15.75825        23.32189        -0.12726
C         14.70879        22.75105         0.59717
C         15.68325        24.69955        -0.48662
C         14.61676        25.50698        -0.06195
C         15.50411        27.47805        -1.26696
C         14.53137        26.90265        -0.44725
C         15.26372        28.77365        -1.88361
C         14.16062        29.55275        -1.42218
C         18.55840         3.38249         0.40657
C         17.28808         4.01889         0.36821
C         18.54517         6.22297         0.92509
C         17.27780         5.47283         0.64274
C         18.54328         7.70960         0.92763
C         17.35736         8.39255         0.89550
C         18.54670        10.55932         1.34418
C         17.25007         9.78242         1.45124
C         18.53252        11.96257         1.42731
C         17.31097        12.72520         1.40363
C         18.57112        14.90315         1.58593
C         17.28445        14.12091         1.41556
C         18.50915        16.32111         1.06479
C         17.31043        16.98438         1.11085
C         18.45931        19.15982         0.47798
C         17.32035        18.49418         1.23784
C         18.10788        20.30043        -0.43306
C         16.99785        21.17433         0.02931
C         17.90830        23.02919        -1.34321
C         16.93247        22.52802        -0.48233
C         17.65158        24.35635        -2.03719
C         16.82999        25.29879        -1.18365
C         17.73398        27.36689        -2.54242
C         16.75455        26.75657        -1.55487
C         17.00234        28.20422        -3.59750
C         16.06817        29.18691        -2.94252
C         19.75127         4.08977         0.57098
C         20.99632         6.24762         0.85761
C         19.81023         5.49166         0.77586
C         20.98889         7.63587         1.03713
C         19.80045         8.41000         1.08768
C         20.99968        10.59286         1.00397
C         19.77524         9.83770         1.18055
C         21.04178        11.93210         1.15488
C         19.84987        12.70109         1.65014
C         20.77352        14.74497         0.38805
C         19.76718        14.11391         1.12510
C         20.81353        16.11735         0.20205
C         19.85776        17.02605         0.92658
C         20.66566        18.92615        -0.77124
C         19.75013        18.43191         0.29684
C         20.44803        20.08145        -1.42783
C         19.17141        20.84142        -1.33527
C         20.08187        22.90403        -2.44609
C         19.07710        22.27617        -1.73086
C         19.99455        24.26838        -2.86177
C         18.86446        25.02342        -2.65275
C         19.40884        26.83084        -4.26265
C         18.69172        26.36727        -3.19194
C         19.13456        28.12982        -4.84681
C         18.00792        28.81427        -4.54609
O          4.53910        15.09811        -2.57591
O          8.73652        12.07860         1.17098
O         10.94362        15.32054         2.73576
O          7.78257        23.13219         2.79857
O         14.69026         8.13666         2.18780
O          2.79881        13.33270        -0.04292
O          3.02899         9.17025        -3.60917
O         17.67860         5.73123         2.02984
O          5.61400         9.16072        -3.05650
O         14.36226         5.85983        -1.43655
O          8.02621         9.11623        -2.40406
O         10.92852        27.58025         2.73190
O         13.21599        18.77814         2.96517
O          4.35671        27.71067        -0.36015
O         19.60021        19.47097         1.33596
O          8.62960        16.48875         2.18814
O          6.83982        16.31857        -2.03939
O          3.65826        24.72684        -0.84277
O         17.51412        26.29439        -0.36531
O          8.96885        15.00522        -1.30294
O          2.18642        25.07626         2.40419
O          4.77428         5.22298         0.73125
O         18.05070        20.00554        -1.86472
O         16.36193         7.20938        -0.93959
O          8.92527         6.09672         1.36102
O         13.75619         8.41273        -1.37463
H         14.47466         7.91487        -1.83315
O         12.25833         8.11941         1.93478
H         11.42044         8.51653         2.26896
O         16.76381        24.04087        -3.16155
H         17.21930        23.38217        -3.72729
O         11.95467         5.24867        -1.72336
H         12.82561         5.20394        -2.18804
O          5.70103        23.21164        -1.19191
H          5.25397        24.02031        -1.54375
O         13.34198        10.55130         2.38358
H         13.65479         9.64252         2.66318
O         20.03134        12.78607         3.10163
H         19.42602        13.50138         3.42878
O         10.74731        19.22569         3.47262
H         11.63187        19.22462         3.90960
O         15.18423        21.74716         2.69519
H         14.44673        22.27623         3.06775
O          1.69533        11.41779        -4.13399
H          1.98790        10.64081        -4.66185
O          7.90787         5.06710        -1.90928
H          7.23360         4.50188        -2.34121
O         16.97589         9.51436         2.88233
H         16.14796         8.93435         2.87080
O          6.82282        19.69309        -1.53612
H          6.23074        20.38557        -1.90097
O         18.55411        28.28937        -1.78788
H         18.78646        27.83870        -0.94547
O         14.71948        16.96610        -0.56754
H         14.77277        16.02390        -0.83660
O         17.59672        18.72908         2.65308
H         16.81266        18.44513         3.16936
O         16.16834        27.27836        -4.36083
H         15.72848        27.78311        -5.07606
O          7.13530        26.14575         3.26489
H          7.16326        25.31701         3.78909
O          9.42990         8.66750         1.46474
H          9.19393         7.76600         1.81225
O         13.83004        11.95787        -0.97543
H         13.82824        12.86689        -1.34094
O          7.76129        26.68210        -0.30007
H          7.57422        27.43926        -0.89498
O         20.36442        17.20324         2.28976
H         20.03875        18.09582         2.57329
O         18.73344        15.10906         3.04538
H         19.43075        15.81339         3.13143
O         15.76516        11.90624         2.97265
H         16.24234        11.09267         3.28805
O         11.98641        29.98113         2.46973
H         11.67614        29.40056         3.20161
H          1.15547         2.85982        -0.63365
H         -0.89498         4.17261        -1.10537
H         -0.75985         6.55033        -1.70278
H         -0.60806         8.36529        -2.10924
H         -0.54185        10.63344        -2.81453
H         -0.55743        12.50310        -2.11579
H         -0.68455        14.78857        -1.34350
H         -0.73042        16.72111        -0.91218
H         -0.78155        19.10266        -0.41705
H         -0.81138        20.91178         0.27783
H         -0.82561        23.27548         0.89486
H         -0.88301        25.29661         1.19426
H         -0.78009        27.66444         1.76938
H          0.49304        29.79551         2.11312
H          3.52397         2.64210        -0.99246
H          2.58035        31.09016         1.96354
H          6.18162         2.24828         0.37161
H          5.08373        31.14325         1.54103
H          8.59854         2.31996         0.51531
H          7.55828        31.16260         1.08520
H         11.11350         2.36993         0.71100
H          9.99262        31.15050         0.94309
H         13.54398         2.37440         0.68042
H         12.15210        30.91477        -0.27248
H         16.03305         2.26029         0.27405
H         14.00986        30.55964        -1.83938
H         18.60586         2.29189         0.26896
H         15.88121        30.16231        -3.41945
H         20.69930         3.53183         0.53326
H         21.96460         5.72940         0.78858
H         21.96183         8.13672         1.13885
H         21.91603        10.05592         0.72028
H         22.00234        12.45851         1.06064
H         21.58783        14.14253        -0.04301
H         21.66217        16.54422        -0.34904
H         21.61029        18.39086        -0.94547
H         21.20943        20.43626        -2.13869
H         20.99295        22.35056        -2.71188
H         20.86664        24.70910        -3.36628
H         20.17595        26.20222        -4.73962
H         19.84340        28.52362        -5.59042
H         17.77588        29.76939        -5.04187
