         618
 CSIRO Nanostructure Databank - Neutral Graphene Oxide Data Set
C         25.16480        69.44395        -5.56786
C         25.20321        70.85593        -5.78659
C         24.22969        71.51935        -6.58038
C         25.22406        73.67188        -6.05534
C         24.25335        72.91007        -6.70282
C         26.43791        65.50681        -2.91290
C         26.36482        67.00172        -2.89259
C         25.73370        67.52458        -4.15260
C         26.78409        69.72895        -3.65576
C         25.91052        68.83886        -4.52635
C         27.34057        70.88025        -4.49904
C         26.22206        71.62755        -5.16819
C         27.24221        73.79321        -4.60929
C         26.23892        73.03943        -5.28103
C         28.62101        61.26650        -1.70808
C         28.57898        62.68325        -1.72951
C         27.52330        63.38554        -2.32997
C         28.59272        65.53964        -1.71804
C         27.49849        64.81215        -2.34984
C         28.71229        66.92913        -1.89468
C         27.70690        67.65107        -2.61867
C         29.10637        69.66940        -2.59981
C         27.90395        68.96852        -2.98034
C         29.23091        71.09062        -2.92395
C         28.31176        71.73461        -3.72438
C         29.17460        73.97808        -3.11808
C         28.27454        73.18619        -3.84270
C         30.64669        57.00301        -0.45135
C         30.62232        58.37253        -0.36486
C         29.67299        59.13598        -1.09967
C         30.69638        61.23564        -0.33932
C         29.62123        60.53811        -1.02060
C         30.80498        62.68030        -0.57110
C         29.64720        63.42970        -1.09547
C         30.50996        65.61054        -0.10388
C         29.61656        64.80985        -1.02879
C         30.84288        66.97167        -0.66601
C         29.91792        67.62780        -1.46265
C         31.24087        69.76432        -1.31815
C         30.09025        69.01049        -1.86673
C         31.18480        71.24727        -1.31783
C         30.37143        71.84606        -2.38283
C         31.16155        74.10941        -1.49639
C         30.34291        73.38821        -2.47811
C         32.93447        52.69121        -0.03940
C         32.84782        54.10505         0.08650
C         31.63861        54.76978         0.12154
C         32.79830        56.93126         0.78193
C         31.48894        56.21273         0.51299
C         32.78483        58.35687         0.97064
C         31.48837        59.07852         0.66374
C         32.79217        61.21364         0.97152
C         31.69332        60.54569         0.35800
C         32.69854        62.67165         1.14768
C         31.85714        63.44809         0.20581
C         32.73927        65.57060         1.10124
C         31.72934        64.89079         0.42836
C         32.66036        67.08825         1.10221
C         32.18882        67.54730        -0.29601
C         32.87638        69.87271         0.66007
C         32.21542        69.07090        -0.42801
C         32.86832        71.37373         0.50869
C         32.04615        72.00895        -0.56677
C         32.92378        74.27014         0.25041
C         32.03197        73.45904        -0.66682
C         35.18548        48.44406         1.27151
C         35.27792        49.87081         0.77581
C         34.13668        50.55941         0.35470
C         35.35858        52.67343         0.45284
C         34.14027        51.97726         0.20544
C         35.39862        54.14475         0.44900
C         34.09988        54.88231         0.26728
C         35.13925        56.84242         1.50668
C         33.99340        56.24946         0.81251
C         35.06678        58.30905         1.93186
C         33.91006        59.05450         1.39985
C         35.07777        61.18961         1.94076
C         33.92883        60.50626         1.46359
C         35.00891        62.63496         2.24664
C         33.80368        63.44022         1.85428
C         35.10251        65.59058         1.91668
C         33.88582        64.89303         1.62077
C         35.13454        67.06382         1.91733
C         33.94735        67.79898         1.48421
C         35.00755        69.98160         2.06696
C         33.95932        69.16949         1.40199
C         35.09497        71.45889         1.77115
C         34.03862        72.13847         0.98193
C         35.32125        74.20643         1.05938
C         34.12874        73.49882         0.74758
C         37.68560        44.14138         0.79053
C         37.68032        45.55411         0.88306
C         36.46644        46.29482         0.94707
C         37.70348        48.37680         1.20384
C         36.47884        47.67988         1.09845
C         37.68248        49.84489         1.54851
C         36.49526        50.55817         0.94714
C         37.75127        52.68830         1.03329
C         36.53814        51.96432         0.76794
C         37.73627        54.05720         1.30511
C         36.52738        54.81708         1.13637
C         37.54572        56.77591         2.19772
C         36.44402        56.15561         1.52343
C         37.61311        58.24285         2.56293
C         36.32834        59.03854         2.34752
C         37.54543        61.21423         2.25252
C         36.33803        60.52012         2.16011
C         37.59132        62.66792         2.22971
C         36.30575        63.40354         2.40279
C         37.52829        65.56403         2.44529
C         36.25799        64.86567         2.20417
C         37.54234        67.05375         2.52460
C         36.27465        67.76937         2.25423
C         37.51880        70.00355         2.62038
C         36.18523        69.22924         2.69500
C         37.54078        71.45694         2.26194
C         36.41581        72.13696         1.87129
C         37.70232        74.25568         1.60558
C         36.47221        73.55556         1.52302
C         40.15422        39.85647         0.71196
C         40.12690        41.24583         0.74839
C         38.92384        41.99193         0.66131
C         40.12359        44.15788         0.63325
C         38.89783        43.42221         0.69404
C         40.14883        45.55434         0.78041
C         38.92032        46.26787         0.92733
C         40.18858        48.38786         1.14369
C         38.93426        47.68364         1.09582
C         40.19010        49.82796         1.23630
C         38.99719        50.52591         1.27721
C         40.24859        52.70122         1.52062
C         39.05798        51.98373         0.92169
C         40.17843        54.04622         1.93546
C         38.89053        54.67817         1.91005
C         40.44939        57.03107         2.64755
C         38.60842        55.93695         2.50789
C         40.18075        58.41554         2.33442
C         38.92435        58.99350         2.42520
C         40.11214        61.28011         2.12580
C         38.84575        60.49376         2.39892
C         40.03226        62.69882         1.59666
C         38.76689        63.37135         2.06803
C         40.04045        65.61946         1.94071
C         38.76029        64.84523         2.00682
C         40.03209        67.07576         2.24371
C         38.83243        67.75920         2.36105
C         40.07960        69.89195         1.99767
C         38.81170        69.23484         2.50867
C         40.11672        71.39242         2.21831
C         38.84200        72.17396         2.31287
C         40.14604        74.25835         1.79538
C         38.90222        73.60378         1.91494
C         42.54092        35.58645        -0.37990
C         42.60271        37.03379         0.06445
C         41.42655        37.68806         0.30765
C         42.74066        39.81465         0.82189
C         41.39308        39.07099         0.79909
C         42.72315        41.30890         0.82621
C         41.39704        42.01929         0.84727
C         42.64351        44.16468         0.45541
C         41.36252        43.40746         0.24474
C         42.62634        45.56841         0.57847
C         41.39673        46.27876         0.76420
C         42.65838        48.41374         0.91111
C         41.40828        47.68819         0.94427
C         42.65632        49.84474         1.04793
C         41.45368        50.56198         1.21005
C         42.71650        52.70876         1.49375
C         41.46606        51.97560         1.45192
C         42.72761        54.09970         1.78156
C         41.48565        54.74511         2.40950
C         42.80009        57.01680         2.22067
C         41.49250        56.26609         2.19034
C         42.68364        58.44796         1.77398
C         41.33446        59.10512         1.61942
C         42.55379        61.30311         1.67358
C         41.38314        60.58381         1.82364
C         42.55070        62.76026         1.77914
C         41.32815        63.46950         1.84802
C         42.51615        65.62182         2.08976
C         41.32717        64.88651         1.98659
C         42.51545        67.04890         2.32326
C         41.30575        67.74065         2.36413
C         42.57978        69.94444         2.58886
C         41.25355        69.19489         2.75855
C         42.60515        71.41190         2.25849
C         41.36582        72.05639         1.64797
C         42.61824        74.19806         1.76454
C         41.38372        73.56689         1.81967
C         45.13294        32.79008        -0.47495
C         43.90579        33.47876        -0.37045
C         45.08055        35.60682        -0.41963
C         43.87062        34.87035        -0.35054
C         45.07737        37.04009        -0.30621
C         43.87306        37.73632         0.03865
C         45.09066        39.87693        -0.04661
C         43.91831        39.13141         0.25646
C         45.08882        41.32447        -0.01185
C         43.90653        42.03644         0.32640
C         45.06955        44.19727         0.04834
C         43.86895        43.45843         0.29965
C         45.06135        45.60455         0.15851
C         43.85819        46.30283         0.52924
C         45.19765        48.39471         0.83478
C         43.86380        47.70147         0.71521
C         45.09137        49.89584         0.70837
C         43.90413        50.57759         0.93625
C         45.10599        52.75946         0.94338
C         43.90072        52.01991         1.10465
C         45.11575        54.15058         1.19475
C         43.93809        54.83860         1.60023
C         45.13101        57.03421         1.43408
C         43.98758        56.28627         1.68002
C         45.11333        58.48020         1.36233
C         43.83818        59.16739         1.51609
C         45.01606        61.33128         1.41400
C         43.81053        60.61350         1.47137
C         45.01968        62.76271         1.58827
C         43.79243        63.45397         1.75355
C         45.08452        65.65064         2.02923
C         43.78372        64.92525         1.82450
C         45.07576        67.01652         2.69295
C         43.78841        67.78385         2.40622
C         45.06132        69.88751         1.92805
C         43.82092        69.15345         2.40448
C         45.13441        71.35800         2.41011
C         43.88154        72.09261         2.01090
C         45.11426        74.16759         1.66433
C         43.87549        73.47675         1.76834
C         46.31911        33.48692        -0.59802
C         47.51989        35.64560        -0.73919
C         46.32325        34.91215        -0.57944
C         47.52019        37.05736        -0.72742
C         46.28637        37.75860        -0.46570
C         47.48268        39.90825        -0.68715
C         46.28679        39.18487        -0.40043
C         47.46338        41.33506        -0.73189
C         46.25775        42.03809        -0.38050
C         47.36170        44.18853        -0.82344
C         46.25981        43.48124        -0.35749
C         47.29575        45.64512        -0.91591
C         46.20697        46.36575        -0.24875
C         47.45575        48.47085        -0.35683
C         46.27596        47.75004        -0.03527
C         47.54359        49.90032         0.01491
C         46.34250        50.63690         0.55692
C         47.46053        52.84281         0.18726
C         46.31381        52.10610         0.52648
C         47.56326        54.21844         0.51229
C         46.41457        54.83858         1.18019
C         47.60249        57.10467         0.85611
C         46.43156        56.36556         1.32564
C         47.54489        58.52528         0.80675
C         46.28075        59.20338         1.08351
C         47.43600        61.39402         0.99033
C         46.25757        60.65089         1.15363
C         47.47524        62.78071         1.32797
C         46.27916        63.43861         1.66506
C         47.63790        65.54827         2.32490
C         46.31216        64.81891         2.19687
C         47.64225        67.04432         2.34119
C         46.36020        67.78250         2.38993
C         47.61236        69.85423         1.76220
C         46.34183        69.12680         2.16533
C         47.58422        71.36365         1.92549
C         46.38473        72.05902         1.94342
C         47.57583        74.16919         1.55150
C         46.35697        73.48623         1.73127
C         48.70514        37.79462        -0.95771
C         49.88367        39.95071        -1.24231
C         48.70282        39.20819        -0.97321
C         49.86192        41.35415        -1.30788
C         48.62967        42.03553        -1.10336
C         49.86544        44.19797        -0.92031
C         48.57653        43.50935        -1.41182
C         49.88066        45.68650        -1.19346
C         48.61179        46.41741        -1.16482
C         49.88344        48.51008        -0.92858
C         48.63666        47.83710        -0.81288
C         49.86979        49.97525        -1.02295
C         48.59460        50.69811        -0.67308
C         49.89988        52.91960        -0.59196
C         48.59905        52.18897        -0.49127
C         49.95257        54.32899        -0.13512
C         48.76132        54.96729         0.32545
C         49.98428        57.13031         0.27626
C         48.78099        56.39760         0.51760
C         49.95518        58.57112         0.31798
C         48.71750        59.25455         0.52340
C         49.88442        61.52193         0.29672
C         48.56984        60.74150         0.23660
C         49.93628        62.84725         0.92425
C         48.76071        63.49150         1.38504
C         50.11777        65.53768         1.92807
C         48.83143        64.82017         1.87117
C         50.12731        67.04197         2.15333
C         48.82186        67.73428         2.24720
C         50.09929        69.95463         2.06101
C         48.82262        69.23575         2.44949
C         50.05439        71.36820         2.06420
C         48.82262        72.06987         1.91943
C         50.01359        74.24324         1.75938
C         48.82428        73.50975         1.73564
C         51.07291        42.11552        -1.54273
C         52.31388        44.25515        -1.52115
C         51.11754        43.49048        -1.39218
C         52.33130        45.65183        -1.38343
C         51.07969        46.37595        -1.20466
C         52.32504        48.54540        -1.29969
C         51.09508        47.82633        -1.16748
C         52.33858        49.99605        -1.18716
C         51.14627        50.69434        -1.02863
C         52.34673        52.88246        -1.10739
C         51.18775        52.11469        -0.51421
C         52.30064        54.37802        -0.97506
C         51.13660        55.04455        -0.32289
C         52.44301        57.14994        -0.12354
C         51.18197        56.44353        -0.06168
C         52.42759        58.59323         0.04364
C         51.17831        59.27771         0.15049
C         52.46830        61.44347         0.36219
C         51.18392        60.74767         0.15033
C         52.48815        62.79975         0.67387
C         51.28327        63.41209         1.33364
C         52.44921        65.65108         1.08140
C         51.31348        64.91340         1.34966
C         52.41271        67.10172         1.19509
C         51.30860        67.79194         1.66785
C         52.44764        69.98244         1.35987
C         51.28980        69.25330         1.71648
C         52.55216        71.41008         1.70075
C         51.30743        72.13421         2.17878
C         52.47394        74.30995         1.55240
C         51.30423        73.66204         2.24929
C         53.52732        46.41761        -1.49490
C         54.87892        48.50881        -1.50970
C         53.53647        47.81110        -1.44464
C         54.83159        50.02033        -1.43111
C         53.60793        50.71923        -1.23888
C         54.84965        52.84615        -1.22194
C         53.63785        52.14668        -1.19179
C         54.88224        54.32660        -1.15152
C         53.59831        55.11731        -1.00877
C         54.93305        57.09693        -0.24714
C         53.62881        56.45905        -0.39786
C         54.91101        58.61541        -0.13491
C         53.62863        59.32355        -0.10463
C         54.87234        61.47760        -0.06697
C         53.66247        60.75256         0.01725
C         54.89117        62.87009         0.16849
C         53.69068        63.54236         0.55229
C         54.85209        65.67805         0.37117
C         53.68536        64.97409         0.67384
C         54.81168        67.14503         0.24629
C         53.55686        67.86313         0.65018
C         54.78673        70.01351         0.61357
C         53.62788        69.32061         0.89876
C         54.72663        71.47805         0.48349
C         53.63466        72.20086         1.11115
C         54.80717        74.34427         0.70085
C         53.61083        73.62481         1.09258
C         56.02770        50.72018        -1.54262
C         57.32090        52.82880        -1.44648
C         56.09316        52.14036        -1.39135
C         57.44458        54.19923        -0.94250
C         56.16484        54.96801        -0.72433
C         57.39116        57.15133        -0.76927
C         56.19146        56.44478        -0.67172
C         57.39954        58.59751        -0.72216
C         56.11137        59.30655        -0.65594
C         57.37324        61.50511        -0.47232
C         56.09095        60.82215        -0.56330
C         57.35317        62.91107        -0.23359
C         56.11759        63.59820         0.00519
C         57.28141        65.75797        -0.17973
C         56.09067        65.01359         0.08491
C         57.26440        67.21623        -0.11913
C         56.08431        67.88351         0.16312
C         57.28991        70.12020         0.09029
C         56.12169        69.31736         0.61468
C         57.25540        71.49410         0.07291
C         55.98809        72.25107         0.13195
C         57.23206        74.41505         0.16625
C         56.00793        73.71305         0.37983
C         58.75758        54.95894        -1.11459
C         59.79662        57.21909        -1.20888
C         58.65488        56.47742        -1.02616
C         59.81983        58.66226        -1.13253
C         58.56839        59.34346        -0.89023
C         59.79942        61.48698        -0.80910
C         58.57610        60.78914        -0.74257
C         59.86922        62.91003        -0.32865
C         58.55317        63.65286        -0.34228
C         59.69699        65.79915        -0.79742
C         58.49485        65.05352        -0.36719
C         59.66857        67.29085        -0.83858
C         58.47110        67.98794        -0.34571
C         59.69754        70.10222        -0.60011
C         58.50570        69.38229        -0.22185
C         59.76100        71.55514        -0.34747
C         58.50255        72.28155         0.03276
C         59.65641        74.43832        -0.36518
C         58.45305        73.76096        -0.09337
C         60.99137        59.39505        -1.30059
C         62.20306        61.57402        -1.34613
C         61.01856        60.82412        -1.15089
C         62.22048        63.00889        -1.26477
C         61.04008        63.66644        -0.88742
C         62.25266        65.91564        -1.05576
C         61.02443        65.12024        -0.72185
C         62.12841        67.36843        -1.31976
C         60.92827        68.03553        -1.03588
C         61.94936        70.22307        -1.72522
C         60.84538        69.45459        -1.05028
C         62.02270        71.67589        -1.33511
C         60.91529        72.33320        -0.83699
C         62.03934        74.49543        -1.03900
C         60.88024        73.77834        -0.70898
C         63.39326        63.78051        -1.60704
C         64.56095        65.95878        -1.92947
C         63.43613        65.17995        -1.55653
C         64.54668        67.37856        -1.90969
C         63.31185        68.09450        -1.65557
C         64.45338        70.25126        -1.92978
C         63.27689        69.50527        -1.72190
C         64.41355        71.68064        -1.89303
C         63.23760        72.38474        -1.60281
C         64.35570        74.55618        -1.88854
C         63.23680        73.84344        -1.48339
C         65.70570        68.14082        -2.19686
C         66.86704        70.30181        -2.48977
C         65.69803        69.55167        -2.18612
C         66.88640        71.70849        -2.46438
C         65.70318        72.46374        -1.89627
C         66.80814        74.58363        -2.58673
C         65.50106        73.83377        -2.55708
C         68.01084        72.46523        -2.79497
C         67.97450        73.89729        -2.74039
O         61.90535        65.60812         0.35826
O         42.20028        39.23287         2.03124
O         39.66251        61.09025         3.49574
O         50.54051        61.41993        -1.03058
O         55.85057        60.10564        -1.84670
O         59.45829        71.85195         1.07341
O         39.69109        71.86414         3.50710
O         36.78260        58.65214         3.68754
O         37.57247        66.21237         3.76304
O         34.50170        70.96117         3.03246
O         32.55986        63.06199         2.54776
O         54.29845        55.03611        -2.29955
O         32.00161        70.69012         1.49997
O         35.52641        62.97059         3.57258
O         47.66843        46.13034        -2.26709
O         59.42718        66.46200        -2.08091
O         42.62381        70.95920         3.67582
O         51.98500        53.71181        -2.24528
O         47.46589        50.13314         1.46200
O         48.83064        50.34859        -2.05439
O         46.73678        55.48378         2.45930
O         46.95880        64.93770         3.49380
O         53.81196        67.57575        -0.77933
O         52.26128        71.61073         3.15731
O         55.03721        71.89463        -0.92177
O         32.09019        63.08224        -1.19789
O         39.27005        65.32208         0.69394
O         50.39489        66.13224         3.27454
O         34.72270        57.26153         2.86831
O         38.33835        69.70045         3.80505
O         55.12915        57.79709         1.04914
O         39.50650        56.39214         3.46521
O         56.83844        54.33444         0.41144
O         35.04774        54.77142        -0.85548
O         49.03571        52.81444        -1.75109
O         31.14700        72.55475        -3.39608
O         44.54901        65.60442         0.69287
O         41.43148        71.82508         0.25637
O         32.62551        69.40180        -1.79620
O         42.15968        41.89419         2.06479
O         35.85221        69.09887         4.09560
H         36.69906        68.96253         4.58144
O         51.43517        52.00572         0.92635
H         52.25151        51.47821         1.05998
O         41.60595        54.52064         3.84697
H         40.83667        54.97450         4.26313
O         34.89990        48.51297         2.68463
H         35.63992        49.01758         3.10027
O         45.64899        48.16007         2.21587
H         46.43887        48.74026         2.34881
O         45.03132        66.76084         4.11831
H         45.19309        67.60227         4.59387
O         49.83922        44.09112         0.53795
H         50.71096        44.38430         0.87768
O         43.09476        57.08654         3.67662
H         43.03742        56.16437         4.02077
O         40.93464        69.17907         4.16093
H         40.77802        70.10684         4.44899
O         30.75514        56.20286         1.78170
H         30.58905        57.14798         2.02984
O         31.63824        67.50977         2.04532
H         32.01633        67.48869         2.95020
O         39.33622        51.99146        -0.54583
H         39.32944        52.92844        -0.83806
O         30.70548        59.02947         1.91234
H         31.22752        59.48213         2.61004
O         56.42398        69.20590         2.07428
H         57.38234        69.01170         2.16621
O         47.75976        69.63279         0.33264
H         46.91685        69.92628        -0.08716
O         59.34560        54.59484        -2.37233
H         58.82913        55.00991        -3.09328
O         51.42148        63.00752         2.75411
H         50.87098        63.61607         3.29519
O         41.55291        34.87215         0.37024
H         41.78961        34.92786         1.31864
O         40.97580        58.92191         0.18102
H         41.59047        59.47578        -0.34794
O         55.58553        48.10434        -2.69491
H         55.07379        48.40757        -3.47278
O         39.91491        62.59700         0.14313
H         39.78361        63.51886        -0.18534
O         51.42095        74.03313         3.66560
H         51.96196        73.32935         4.09302
O         41.26037        43.17218        -1.20897
H         41.15892        44.04444        -1.64583
O         25.94310        70.27228        -2.61173
H         25.56328        69.50177        -2.12522
O         66.02440        72.73234        -0.49827
H         66.15796        71.87098        -0.05049
O         60.18562        62.79796         1.12608
H         61.08970        62.42193         1.19810
O         48.64627        69.45734         3.87323
H         49.38748        69.02593         4.34791
O         37.45726        49.91072         3.02105
H         38.20655        49.44674         3.45375
O         48.10186        60.78400        -1.15000
H         48.91165        60.86746        -1.71057
O         25.47822        67.42930        -1.77393
H         25.82422        67.01087        -0.95590
O         61.54799        70.25705        -3.15277
H         61.45033        69.32723        -3.45180
O         65.09940        73.64618        -3.94748
H         64.25041        73.15391        -3.94848
O         29.65353        65.86441         1.06924
H         30.15269        66.49538         1.65019
O         33.31180        75.48999        -0.38431
H         33.74311        75.27151        -1.23567
O         33.16161        66.99508        -1.21439
H         33.14404        67.56722        -2.01831
O         45.23104        71.36005         3.86003
H         44.31466        71.22711         4.21435
O         40.17042        69.61163         0.59774
H         40.69143        70.36869         0.17008
O         48.50912        43.62390        -2.85777
H         48.22717        44.55124        -3.06056
O         28.11127        70.23615        -5.56156
H         28.56573        70.93717        -6.07416
O         44.92602        69.98500         0.47081
H         44.63744        69.11313         0.12431
H         25.22101        74.76724        -6.14644
H         27.21752        74.89063        -4.68251
H         29.00733        75.06262        -3.03999
H         31.08711        75.20644        -1.44494
H         32.32602        74.56421         1.15819
H         35.35636        75.28537         0.84990
H         37.72486        75.31804         1.31938
H         40.14372        75.33425         1.55648
H         42.66683        75.29710         1.83187
H         45.11004        75.25620         1.50757
H         47.56695        75.25354         1.36688
H         49.97471        75.32808         1.57900
H         52.49461        75.41037         1.56338
H         54.79252        75.44074         0.79351
H         57.21617        75.51507         0.20097
H         59.64790        75.53905        -0.37282
H         62.02986        75.59442        -0.98386
H         64.33344        75.65736        -1.88927
H         66.79819        75.68378        -2.58954
H         24.43664        68.83596        -6.12715
H         23.44446        70.93263        -7.07758
H         23.48642        73.41269        -7.30886
H         25.59286        64.94922        -3.34442
H         25.07278        66.86260        -4.73330
H         27.83079        60.70719        -2.23046
H         26.69087        62.83030        -2.78669
H         29.95300        56.48170        -1.12873
H         28.95967        58.60734        -1.74955
H         32.00561        52.12038        -0.18923
H         30.70728        54.19283         0.01085
H         34.33703        47.90244         0.78501
H         33.18843        50.01415         0.23506
H         36.73005        43.59686         0.80264
H         35.50648        45.76028         0.89352
H         39.21567        39.30968         0.53116
H         37.96597        41.44985         0.65353
H         42.18546        35.57298        -1.45096
H         40.47478        37.15329         0.16611
H         45.13637        31.69116        -0.48354
H         42.96277        32.91765        -0.30865
H         47.27238        32.95102        -0.71112
H         48.46631        35.10708        -0.89655
H         49.64337        37.25487        -1.15507
H         50.82708        39.41164        -1.41474
H         51.99490        41.56438        -1.78470
H         53.25006        43.73215        -1.77013
H         54.48270        45.88859        -1.62784
H         55.49864        48.13935        -0.64552
H         56.96016        50.16002        -1.70432
H         58.22938        52.30014        -1.76891
H         59.46982        54.60426        -0.32327
H         60.74371        56.69692        -1.41385
H         61.93139        58.86953        -1.52725
H         63.12802        61.04700        -1.62292
H         64.28603        63.23589        -1.95007
H         65.48829        65.44651        -2.22787
H         66.64742        67.61651        -2.41870
H         67.77854        69.76011        -2.78785
H         68.94314        71.96233        -3.09224
H         68.92134        74.44534        -2.85732
