         204
 CSIRO Nanostructure Databank - Neutral Graphene Oxide Data Set
C        -11.13174         0.72419         0.28982
C         -9.88975         1.46329         0.28014
C         -8.66797         0.71937         0.17025
C         -7.35957         1.41974         0.40903
C         -6.17669         0.71010        -0.20984
C         -4.93094         1.43972        -0.28899
C         -3.69718         0.71546        -0.39710
C         -2.45429         1.40691        -0.30538
C         -1.22877         0.69279        -0.46974
C          0.01893         1.41233        -0.45826
C          1.25409         0.69364        -0.58670
C          2.49567         1.41736        -0.59651
C          3.71725         0.71335        -0.62970
C          5.01114         1.44712        -0.88012
C          6.22453         0.71155        -0.36119
C          7.39459         1.42306         0.00524
C          8.59917         0.74586         0.28719
C          9.83531         1.48539         0.49675
C         11.05374         0.72410         0.68260
C         -9.86057         2.85658         0.34543
C         -8.62580         3.58997         0.20901
C         -7.41623         2.88705         0.11559
C         -6.18066         3.61594        -0.31638
C         -4.90807         2.83225        -0.12509
C         -3.68109         3.49982         0.07551
C         -2.44733         2.81085        -0.04041
C         -1.19608         3.53080        -0.05490
C          0.02525         2.81928        -0.31954
C          1.25848         3.55044        -0.41648
C          2.48007         2.85694        -0.56618
C          3.71733         3.59422        -0.57197
C          4.95797         2.91047        -0.52626
C          6.13187         3.61992        -0.25265
C          7.32285         2.87740         0.20593
C          8.62860         3.65049         0.43545
C          9.86392         2.86534         0.44576
C         -8.61637         5.01738         0.17513
C         -7.39184         5.74120         0.26435
C         -6.15335         5.03479         0.18883
C         -4.94448         5.69328         0.44883
C         -3.69337         4.89874         0.52196
C         -2.36574         5.64132         0.55616
C         -1.16765         4.92834         0.10304
C          0.02319         5.68266        -0.12597
C          1.24713         4.98569        -0.35886
C          2.45249         5.72428        -0.49763
C          3.70894         5.01606        -0.54745
C          4.94243         5.72125        -0.53681
C          6.15032         5.04156        -0.28471
C          7.40250         5.77843        -0.07007
C          8.60566         5.08287         0.16257
C         -7.35362         7.14144         0.48980
C         -6.13603         7.81189         0.67630
C         -4.91659         7.08308         0.68980
C         -3.62775         7.78418         1.08590
C         -2.38702         7.10677         0.54349
C         -1.23098         7.80337         0.26083
C          0.00326         7.10537        -0.05182
C          1.20305         7.83874        -0.26310
C          2.41004         7.14512        -0.51030
C          3.63942         7.89932        -0.81769
C          4.94659         7.16819        -0.81744
C          6.23573         7.94682        -0.53020
C          7.39004         7.18529        -0.06665
C         -6.10086         9.25709         0.83727
C         -4.92647         9.94332         0.85905
C         -3.65147         9.26445         0.78715
C         -2.49020         9.93945         0.52820
C         -1.22648         9.26045         0.33516
C         -0.04423         9.95069         0.20381
C          1.20647         9.28737        -0.07730
C          2.38544        10.00409        -0.08822
C          3.64180         9.40553        -0.54877
C          4.93032        10.03907        -0.19175
C          6.10554         9.37805        -0.18143
C        -11.14660        -0.63712         0.20447
C         -9.92566        -1.39500         0.07090
C         -8.67652        -0.66739         0.02044
C         -7.44647        -1.38867        -0.20319
C         -6.22166        -0.65189        -0.41347
C         -5.01861        -1.37548        -0.97416
C         -3.71208        -0.67902        -0.64940
C         -2.50627        -1.37441        -0.78882
C         -1.25254        -0.70852        -0.68199
C         -0.00227        -1.45002        -0.79167
C          1.25571        -0.71755        -0.70270
C          2.49654        -1.42239        -0.69887
C          3.73171        -0.70102        -0.61528
C          4.97828        -1.42025        -0.55942
C          6.22327        -0.68751        -0.37101
C          7.43163        -1.40251        -0.06641
C          8.62246        -0.67801         0.24318
C          9.83484        -1.39089         0.50445
C         11.04919        -0.63640         0.71891
C         -9.91498        -2.78264         0.03948
C         -8.68911        -3.51515        -0.05272
C         -7.45334        -2.79261        -0.23255
C         -6.21546        -3.52635        -0.36503
C         -4.99972        -2.84790        -0.61490
C         -3.79789        -3.56594        -0.73159
C         -2.55896        -2.82858        -1.06935
C         -1.25638        -3.58828        -1.10947
C         -0.00011        -2.82215        -0.94991
C          1.27424        -3.59581        -1.15025
C          2.52706        -2.84627        -0.75600
C          3.74709        -3.52445        -0.66028
C          4.97623        -2.81738        -0.56328
C          6.27865        -3.58534        -0.64055
C          7.45494        -2.81716        -0.08156
C          8.63254        -3.51203         0.26617
C          9.81941        -2.78791         0.54030
C         -8.66630        -4.91117         0.04375
C         -7.44798        -5.64145        -0.00315
C         -6.21204        -4.94137        -0.22506
C         -4.98555        -5.66513        -0.30483
C         -3.76294        -4.97619        -0.57390
C         -2.51203        -5.71031        -0.61424
C         -1.28086        -5.02691        -0.77230
C         -0.02061        -5.67412        -0.53560
C          1.18326        -4.99111        -0.56959
C          2.45980        -5.72482        -0.42982
C          3.76886        -5.00539        -0.55151
C          4.99883        -5.64157        -0.00925
C          6.18606        -4.98073        -0.05686
C          7.43128        -5.66531         0.29963
C          8.60969        -4.95528         0.37064
C         -7.42668        -7.04227         0.17114
C         -6.21817        -7.75778         0.15894
C         -4.98947        -7.07575        -0.08299
C         -3.75342        -7.79569        -0.08815
C         -2.55268        -7.12615        -0.37094
C         -1.30746        -7.91216        -0.37741
C         -0.01156        -7.15381        -0.40440
C          1.14813        -7.80293         0.26154
C          2.43553        -7.03811         0.28108
C          3.68419        -7.78388         0.43801
C          4.92661        -6.97570         0.70279
C          6.20219        -7.77383         0.59255
C          7.39158        -7.10090         0.48936
C         -6.19073        -9.17964         0.39541
C         -5.01368        -9.87040         0.43062
C         -3.74973        -9.21687         0.21197
C         -2.55502        -9.92349         0.34598
C         -1.29179        -9.29814         0.15451
C         -0.08216        -9.95662         0.37533
C          1.17903        -9.27586         0.38815
C          2.40648        -9.89204         0.59052
C          3.64912        -9.15766         0.62914
C          4.91416        -9.85870         0.80262
C          6.11193        -9.20723         0.75657
O          5.17072         1.44641        -2.35038
H          5.12192         0.51309        -2.65019
O         -7.12976         1.32015         1.87815
H         -7.22091         0.37326         2.11961
O          6.55195        -3.74030        -2.07578
H          7.38777        -4.24624        -2.16049
O         -1.98631        -3.23639        -2.35543
O          5.82505         7.56754        -1.90211
O         -2.97027         5.07422         1.79625
O         -5.15472        -1.32272        -2.43371
H         -4.37561        -1.77767        -2.82070
O          3.53037         8.85456        -1.90992
O         -6.29646         3.74340        -1.79537
H         -7.12780         4.23356        -1.97582
O          4.80738        -6.60480         2.13161
H          4.63848        -7.43005         2.63478
O          1.40262        -3.81324        -2.59801
H          2.11612        -4.48737        -2.71816
O         -3.54206         7.66430         2.54627
H         -3.41297         6.70106         2.73022
O          7.71315         3.27961         1.55803
O          3.21987        -5.76032        -1.70790
O         -0.48672        -7.80709        -1.61268
O          1.55451        -7.06214         1.46458
H         11.98335        -1.18966         0.89576
H         11.99189         1.27847         0.83289
H         10.82866         3.39489         0.45381
H          9.55408         5.64040         0.17148
H          8.28027         7.73024         0.28179
H          7.01632         9.89673         0.15606
H          4.89752        11.08916         0.13807
H          2.38225        11.06431         0.20758
H         -0.04019        11.04718         0.29587
H         -2.51126        11.03400         0.40666
H         -4.92973        11.04379         0.88233
H         -7.05866         9.79708         0.86897
H         -8.29596         7.70827         0.52545
H         -9.56894         5.56281         0.24291
H        -10.80347         3.41738         0.42848
H        -12.07391         1.28447         0.38190
H        -12.10064        -1.18396         0.23380
H        -10.86124        -3.33884         0.11750
H         -9.60960        -5.45853         0.18973
H         -8.37172        -7.57848         0.34393
H         -7.14418        -9.70038         0.56721
H         -5.01238       -10.95138         0.63407
H         -2.58663       -10.98241         0.64429
H         -0.10011       -11.02704         0.63175
H          2.44835       -10.98528         0.70869
H          4.88874       -10.95087         0.92962
H          7.04939        -9.77940         0.83019
H          8.34593        -7.64893         0.53157
H          9.54822        -5.47715         0.61084
H         10.74208        -3.33827         0.77746
