         232
 CSIRO Nanostructure Databank - Neutral Graphene Oxide Data Set
C        -11.01058         0.54406         0.40657
C         -9.80760         1.38170         0.83886
C         -8.46822         0.66260         1.11511
C         -7.17938         1.47847         1.34014
C         -5.89273         0.74197         1.24405
C         -4.73369         1.39880         0.91246
C         -3.57101         0.66371         0.40156
C         -2.57286         1.45878        -0.44118
C         -1.25951         0.71562        -0.58391
C          0.00365         1.48443        -0.79822
C          1.23445         0.78545        -1.28273
C          2.49070         1.53274        -1.02762
C          3.68620         0.70735        -0.69277
C          4.85136         1.37764        -0.07162
C          6.16745         0.69046        -0.04799
C          7.32070         1.43631         0.44877
C          8.53657         0.71337         0.74097
C          9.66186         1.42182         1.30239
C         10.82963         0.66136         1.66809
C         -9.56016         2.61830         0.00137
C         -8.41373         3.39371         0.22050
C         -7.26200         2.87856         0.90213
C         -6.05198         3.66950         0.96361
C         -4.69989         2.87723         0.99776
C         -3.45936         3.62592         0.62444
C         -2.29211         2.86375         0.08510
C         -1.13204         3.64231        -0.44127
C         -0.01695         2.95892        -0.86316
C          1.22372         3.65804        -1.36091
C          2.48110         2.88638        -0.97778
C          3.75249         3.61111        -0.71098
C          4.77660         2.86809         0.10526
C          6.01819         3.58765         0.48171
C          7.26448         2.81221         0.67546
C          8.42331         3.53801         1.13529
C          9.60262         2.80271         1.46526
C         -8.33452         4.76686        -0.23162
C         -7.20386         5.56318        -0.08925
C         -6.00362         5.02884         0.44201
C         -4.76588         5.78336         0.41715
C         -3.49379         5.08496         0.43969
C         -2.30969         5.75799         0.08970
C         -1.12692         5.08047        -0.32444
C          0.10206         5.79159        -0.65766
C          1.26677         5.12620        -0.96891
C          2.55709         5.86121        -1.33166
C          3.83742         5.10357        -0.84259
C          4.97037         5.80256        -0.13622
C          6.07701         5.05932         0.33142
C          7.22363         5.70671         0.87777
C          8.36458         4.93210         1.27316
C         -7.21033         7.00801        -0.55153
C         -6.16289         7.84779         0.20721
C         -4.81809         7.16033         0.22708
C         -3.59445         8.00574         0.49058
C         -2.29406         7.23491         0.26070
C         -1.08757         7.98307        -0.16306
C          0.02074         7.28549        -0.91547
C          1.31426         8.03741        -0.71238
C          2.57626         7.34362        -0.94078
C          3.83206         8.03018        -0.39399
C          4.97827         7.20442         0.03080
C          6.06335         7.84889         0.68923
C          7.19719         7.10651         1.05156
C         -6.08426         9.24535        -0.35967
C         -4.92442         9.91263        -0.53765
C         -3.62308         9.33589        -0.25353
C         -2.47715        10.03940        -0.51589
C         -1.16352         9.45421        -0.38057
C          0.02549        10.12565        -0.44250
C          1.29164         9.39674        -0.41272
C          2.49332        10.06719        -0.00254
C          3.68236         9.38512         0.16914
C          4.83441         9.97632         0.80181
C          5.97727         9.26121         1.00291
C        -11.23297        -0.78959         0.45157
C        -10.14509        -1.76861         0.49999
C         -8.17505        -0.70713         0.67204
C         -7.13010        -1.43857         1.13006
C         -5.87409        -0.73666         1.62446
C         -4.63624        -1.50147         1.04759
C         -3.54242        -0.70534         0.40804
C         -2.64613        -1.44585        -0.57582
C         -1.33204        -0.74198        -0.91142
C         -0.04317        -1.47278        -1.08791
C          1.25079        -0.70896        -1.31005
C          2.55908        -1.41963        -1.05852
C          3.82825        -0.62723        -1.41306
C          5.10500        -1.38951        -1.01953
C          6.24213        -0.63953        -0.38637
C          7.50884        -1.37110        -0.14864
C          8.60936        -0.66942         0.53601
C          9.72350        -1.42662         1.02855
C         10.84933        -0.69997         1.55870
C         -9.95735        -2.94760         1.13301
C         -8.62164        -3.64869         1.15360
C         -7.24771        -2.92690         1.16035
C         -6.05878        -3.68383         0.76073
C         -4.77050        -2.95949         0.66436
C         -3.66141        -3.67368        -0.00882
C         -2.45312        -2.93149        -0.32083
C         -1.27045        -3.59226        -0.51659
C          0.05366        -2.86237        -0.49289
C          1.21713        -3.61225        -1.17337
C          2.54447        -2.90789        -0.92499
C          3.79788        -3.67864        -1.04382
C          5.06829        -2.89969        -0.91947
C          6.10827        -3.55838        -0.03604
C          7.47060        -2.88211        -0.04427
C          8.54062        -3.58054         0.70942
C          9.67298        -2.82933         1.11139
C         -8.58867        -5.05323         0.74252
C         -7.40259        -5.74828         0.55533
C         -6.12524        -5.04670         0.51856
C         -4.94232        -5.78159         0.10697
C         -3.70421        -5.05194        -0.11214
C         -2.48589        -5.80190        -0.39199
C         -1.17763        -5.06731        -0.19003
C          0.04565        -5.75613        -0.75757
C          1.25832        -5.09303        -0.88441
C          2.50971        -5.78011        -1.00624
C          3.76282        -5.07232        -0.99604
C          5.04480        -5.82744        -0.79456
C          6.25735        -5.04574        -0.32058
C          7.31265        -5.72632         0.47202
C          8.40885        -4.94979         0.95897
C         -7.40030        -7.17419         0.36847
C         -6.22974        -7.87059         0.11497
C         -5.00240        -7.14800        -0.10531
C         -3.82997        -7.89853        -0.68749
C         -2.53056        -7.15579        -0.53587
C         -1.30303        -7.94257        -0.80493
C         -0.00086        -7.21658        -0.93238
C          1.24732        -7.97692        -0.81017
C          2.49235        -7.25278        -1.04573
C          3.82031        -8.03912        -0.71602
C          5.00109        -7.24962        -0.39081
C          6.05341        -7.84386         0.31274
C          7.20591        -7.08900         0.70975
C         -6.17786        -9.32070         0.12952
C         -4.99584       -10.00001         0.06143
C         -3.73918        -9.33328        -0.19224
C         -2.53792        -9.99825        -0.11854
C         -1.27076        -9.36961        -0.41790
C         -0.05725       -10.01791        -0.33573
C          1.21532        -9.34777        -0.53530
C          2.43582       -10.03844        -0.21845
C          3.66188        -9.39335        -0.16916
C          4.81946        -9.97292         0.46243
C          5.95199        -9.24088         0.68070
O         -3.18069         1.60531        -1.74736
H         -3.35425         0.69499        -2.09258
O         -1.23872         7.60893         1.24500
O         -0.32326         7.39140        -2.33081
H          0.40431         6.97276        -2.84300
O          5.61815        -3.44105         1.33236
H          4.68995        -3.11996         1.32474
O        -10.30042         1.89102         2.11893
H         -9.53193         1.90961         2.73966
O         -5.27542         3.41196         2.18857
O          5.54353        -2.25232        -2.13358
O         -3.43551        -1.35369        -1.81563
H         -2.83270        -1.65533        -2.53796
O          0.95735        -3.51457        -2.59769
H          1.54972        -4.13556        -3.07144
O         -5.77008        -0.75954         3.05224
H         -5.34530        -1.61529         3.29519
O         -9.03759        -1.30144        -0.24938
O          3.52361         8.03414        -1.83678
O         -0.94637        -5.11007         1.28466
H         -1.76836        -4.78335         1.71424
O         -7.99493         0.96114         2.45012
O         -0.37689         0.96864         0.54842
O         -4.21402        -2.50926         2.01751
O          7.92941        -2.25326        -1.25747
O         -4.07905        -7.98429        -2.13124
H         -3.22541        -8.20375        -2.56452
O          4.34620         4.22623        -1.90827
O          1.19743         0.06485        -2.54473
O         -0.78491        -7.65018        -2.15786
O          6.14073        -5.45258        -1.70402
O         -6.95119         7.06234        -1.96218
H         -6.06331         6.68460        -2.12942
O          1.13846         3.62292        -2.81694
H          1.86226         4.19939        -3.16473
O          0.32229        -2.68912         0.91377
H          0.16448        -3.55812         1.35745
O          3.87987        -0.35852        -2.81532
H          4.38074        -1.09252        -3.23984
O         -2.40431         3.07720         1.51613
O          3.86915         0.63408         0.75391
O         -3.67141         8.35089         1.90976
H         -2.74288         8.32352         2.24628
O          3.33812        -7.84660        -2.07451
O          2.62582        -2.02159         0.26324
O          2.59080         5.86585        -2.78480
H          3.32132         6.47555        -3.04389
O         -7.87307        -3.41113         2.40279
O         -6.61070         7.94776         1.58594
H         -5.83874         8.25784         2.11246
O         -0.92200        -1.23798        -2.22731
O          4.93040         3.27320         1.49048
H         11.73081        -1.26903         1.88851
H         11.69887         1.19800         2.07536
H         10.47524         3.34351         1.86095
H          9.24156         5.46542         1.66924
H          8.05053         7.61224         1.52635
H          6.84789         9.73552         1.47835
H          4.77504        11.02890         1.11497
H          2.41984        11.11465         0.32631
H          0.05314        11.22270        -0.51913
H         -2.55111        11.06401        -0.91390
H         -4.94115        10.93589        -0.94592
H         -7.03802         9.74173        -0.59351
H         -8.22334         7.44941        -0.38841
H         -9.23418         5.20580        -0.68834
H        -10.43299         3.10552        -0.45725
H        -11.90557         1.18005         0.29952
H        -12.26739        -1.15673         0.35035
H        -10.76161        -3.39818         1.73253
H         -9.54508        -5.57658         0.58968
H         -8.34704        -7.72159         0.49025
H         -7.11549        -9.86892         0.30418
H         -4.98410       -11.09212         0.19975
H         -2.52880       -11.05883         0.18029
H         -0.03569       -11.08175        -0.05344
H          2.36362       -11.07218         0.15237
H          4.76496       -11.01971         0.79528
H          6.81260        -9.70282         1.18570
H          7.99546        -7.60206         1.27913
H          9.20298        -5.46786         1.51876
H         10.51331        -3.35801         1.58704
