         300
 CSIRO Nanostructure Databank - Neutral Graphene Oxide Data Set
C         30.48084        31.85711        -1.26548
C         30.55007        33.03678        -0.88085
C         30.40476        36.05646         1.07043
C         30.43619        37.27033         1.27819
C         30.49783        40.47630         1.37632
C         30.07013        41.61634         1.32009
C         32.62898        28.80601        -0.71278
C         31.79137        29.59236        -1.30159
C         32.64711        31.63272         0.43137
C         30.98071        30.60632        -0.81317
C         32.60019        32.99086         0.36602
C         31.23054        33.70134         0.31677
C         32.62913        35.95955         0.09187
C         31.33031        35.20893         0.29394
C         32.78779        37.33783         0.79867
C         31.47614        38.24525         0.72817
C         32.86645        40.36708         1.07989
C         31.63599        39.54771         1.51169
C         33.00293        41.72862         1.26586
C         30.61016        43.00181         1.27533
C         32.84010        44.05606         1.58024
C         32.10636        42.92827         1.40100
C         35.34327        27.24523        -0.65425
C         35.16414        28.54250         0.00543
C         33.82872        29.33842        -0.03038
C         35.16656        31.49401         0.58938
C         33.90945        30.87305        -0.02300
C         35.18796        33.02329         0.49706
C         33.88667        33.76191         0.36663
C         35.22257        35.86191        -0.17471
C         33.88232        35.13625        -0.29824
C         35.30443        37.31921         0.29954
C         33.97044        38.13153         0.20603
C         35.30754        40.30930         0.24720
C         34.15967        39.53083         0.94935
C         35.46951        41.66632         0.89263
C         34.35298        42.30373         1.30337
C         35.28945        44.56209         0.81462
C         34.33642        43.77413         1.72296
C         35.67078        45.95896         1.21533
C         37.70831        27.11681        -0.52270
C         36.39211        26.75811        -1.10380
C         37.70450        28.66292        -0.51289
C         36.43705        29.26401         0.09220
C         37.66385        31.42166         0.00789
C         36.44298        30.68535         0.49119
C         37.61215        32.86428        -0.39055
C         36.52218        33.74280         0.20897
C         37.61107        35.88071        -0.93040
C         36.37999        35.15704        -0.36108
C         37.79739        37.28269        -0.23416
C         36.47787        38.09358        -0.36394
C         37.91798        40.21034         0.12315
C         36.60269        39.49200         0.23983
C         37.87820        41.70931         0.08684
C         36.75292        42.39630         0.79014
C         37.88060        44.67451         0.14050
C         36.72449        43.89252         0.79887
C         38.12951        46.08865         0.86208
C         36.72456        46.57429         1.05680
C         40.44522        24.72313        -1.48220
C         39.35522        25.12525        -1.05174
C         40.29001        27.05382         0.17279
C         38.97998        26.36126        -0.38496
C         40.21738        28.57768         0.00848
C         39.02663        29.24497        -0.00626
C         40.23689        31.49632         0.22889
C         38.97374        30.71654         0.21414
C         40.20614        32.92813        -0.22876
C         38.92318        33.58003        -0.63004
C         40.22859        35.82509        -0.90669
C         38.92532        35.07661        -0.91508
C         40.23497        37.32250        -1.05420
C         38.97393        38.09702        -0.80060
C         40.27784        40.23165        -0.72373
C         39.11073        39.54699        -0.48331
C         40.39465        41.66122        -0.25565
C         39.13981        42.47581        -0.14732
C         40.41979        44.65971        -0.18957
C         39.19151        43.91656         0.15021
C         40.41138        46.16725        -0.31691
C         39.06483        46.97290         0.02143
C         40.62773        48.88028         0.57058
C         39.61219        48.19355         0.66892
C         43.07111        25.02604        -1.51320
C         41.75323        25.00024        -0.80968
C         42.82978        27.13406         0.24544
C         41.62110        26.47003        -0.28512
C         42.79208        28.65024         0.38573
C         41.55445        29.27583        -0.29325
C         42.76862        31.60866        -0.06212
C         41.51089        30.80307        -0.16745
C         42.68636        33.04274         0.39901
C         41.39520        33.77503         0.13784
C         42.73728        35.97134        -0.26480
C         41.43546        35.22797        -0.23773
C         42.79037        37.32160        -0.67195
C         41.56995        38.01125        -1.12039
C         42.85848        40.27420        -1.08103
C         41.54111        39.53602        -1.12813
C         42.89438        41.74765        -0.82720
C         41.69029        42.40882        -0.23135
C         42.91315        44.63184        -0.73884
C         41.76252        43.92957         0.04788
C         43.03850        46.08573        -0.23660
C         41.76595        46.89491        -0.16795
C         43.20230        48.83470        -0.01653
C         41.78009        48.47208        -0.32110
C         44.07811        25.56305        -1.04999
C         45.40311        27.35850         0.15565
C         44.22701        26.42465         0.18200
C         45.36779        28.72726         0.19773
C         44.09499        29.47436         0.59978
C         45.34786        31.69412         0.12199
C         44.09046        30.88606        -0.00120
C         45.25435        33.20582         0.19183
C         43.93191        33.86296         0.46853
C         45.03896        36.12611         0.72352
C         43.89313        35.32938         0.21724
C         44.97378        37.64777         0.54325
C         44.15184        37.99608        -0.73961
C         45.32020        40.18528        -0.80832
C         44.13471        39.51631        -0.89317
C         45.38265        41.61426        -1.30704
C         44.23336        42.41082        -0.70183
C         45.39849        44.58964        -1.37401
C         44.25319        43.89738        -0.66881
C         45.30678        46.17651        -1.42922
C         44.50083        46.68777        -0.23523
C         44.21034        48.15504        -0.20619
C         47.87586        27.42956         0.00380
C         46.75898        26.89141         0.00265
C         47.96174        28.91187        -0.34084
C         46.67174        29.50881         0.30864
C         47.91589        31.83194         0.58359
C         46.64070        30.99774         0.50455
C         47.77030        33.32645         0.68242
C         46.45591        34.01918         0.52615
C         47.60335        36.19725         1.59285
C         46.32175        35.42082         1.10858
C         47.59870        37.67737         1.12701
C         46.37072        38.33396         0.55702
C         47.76811        40.38523        -0.17711
C         46.60820        39.42411        -0.53250
C         47.86713        41.70215        -0.89867
C         46.71119        42.35426        -1.18848
C         47.97548        44.47010        -1.93134
C         46.64748        43.77575        -1.65770
C         47.78684        45.91812        -1.79275
C         46.76874        46.52830        -1.46701
C         50.42271        29.04457         0.67069
C         49.25021        29.64483         0.02613
C         50.41685        31.70254         1.14393
C         49.25334        31.12783         0.37817
C         50.68548        33.01620         1.03152
C         48.89414        34.28338         0.56702
C         50.19346        36.14392         1.47388
C         48.88364        35.50031         1.15065
C         50.24784        37.62776         1.12740
C         48.95517        38.37481         0.99116
C         50.32668        40.54087         0.44606
C         48.97677        39.80806         0.48942
C         50.40518        41.80374        -0.37206
C         49.25337        42.18920        -1.33180
C         50.55866        44.31319        -1.51011
C         49.24655        43.70648        -1.75974
C         51.37160        29.53108         1.29506
C         52.62118        31.69508         2.17077
C         51.40341        30.80167         2.07914
C         52.70741        32.93041         2.17256
C         51.46901        33.80784         2.08516
C         52.58186        36.17467         1.37656
C         51.45760        35.33465         1.83792
C         52.60124        37.35556         1.02553
C         51.53858        38.27866         0.52074
C         52.78582        40.43562         0.25476
C         51.62074        39.75052         0.95240
C         52.80598        41.55454        -0.29966
C         51.77980        42.40683        -0.71487
C         51.61901        43.69659        -1.21623
O         47.89326        32.51619         1.89025
O         31.61723        35.87591        -0.96417
O         37.12737        43.17339         1.98529
O         39.72468        35.24902        -2.13789
O         49.57870        30.65916        -0.96274
O         44.89414        31.14077        -1.17153
O         40.26347        45.37957        -1.52239
O         42.42659        46.42664         1.03658
O         41.60454        38.77657        -2.36793
O         39.63694        31.12829         1.48254
O         50.68310        35.99464         2.85603
O         45.65523        44.05348        -2.69798
O         37.45743        39.62950         1.39785
O         50.19587        41.86120         1.06347
O         37.97720        26.38323         0.67954
O         45.28472        35.61726         2.09432
O         34.55659        33.67279         1.66113
O         38.15342        42.20834        -1.26430
O         44.54264        43.12636         0.52556
O         29.97845        44.02138         1.17375
O         43.28493        33.33987         1.68370
O         35.78335        30.98667         1.78085
O         46.71282        30.07807         1.64221
O         37.34953        31.84639        -1.38534
O         39.36153        37.74391        -2.15049
O         42.09046        31.44609        -1.34641
O         46.74416        38.54693         1.94622
O         45.98244        33.91700        -0.85783
O         46.99605        38.73059        -1.70189
O         41.09448        34.78760         1.12955
O         34.27095        28.66065         1.13691
O         42.55170        27.81527         1.52965
O         42.76033        41.25404        -2.18568
O         48.67621        43.92304        -3.06914
O         41.20756        41.71125         0.97365
O         47.98811        40.59179         1.23996
O         50.08794        33.80253         0.02957
O         31.46555        30.89239         0.56485
O         39.77355        32.92044        -1.61588
O         49.69962        38.35524         2.25288
O         49.57106        41.45001        -2.52336
H         49.01812        41.79436        -3.26031
O         44.34934        25.56707         1.29328
H         43.63271        24.89213         1.24811
O         44.77144        37.40025        -1.88327
H         45.66611        37.86036        -2.04421
O         44.65324        46.54153        -2.61138
H         44.98532        45.97253        -3.34101
O         37.12146        34.02509         1.50412
H         36.42422        34.42028         2.07723
O         34.59483        39.31979         2.29749
H         33.83613        38.94293         2.80374
O         51.46265        38.27573        -0.89597
H         51.71942        37.39936        -1.24954
O         34.75789        43.94485         3.06117
H         34.16761        43.43466         3.65200
O         40.26275        26.80704         1.59756
H         39.32021        26.82504         1.89029
O         34.06848        31.25300        -1.42059
H         33.31567        30.89515        -1.94376
O         30.46987        33.35048         1.45198
H         30.42292        32.36838         1.50298
O         33.76559        34.82910        -1.70508
H         33.49455        35.64210        -2.18273
O         38.45281        47.37920        -1.18196
H         38.09302        46.58008        -1.63467
O         50.86972        30.61882         3.34366
H         50.80639        31.49526         3.78722
O         51.73373        39.87317         2.33165
H         51.47042        40.77878         2.60123
O         37.28229        36.04223        -2.32850
H         38.13995        36.14583        -2.81540
O         44.15172        29.73253         2.01355
H         43.96268        28.89265         2.49080
O         45.13609        46.22717         0.93564
H         44.53346        46.39282         1.69409
O         31.13626        38.56231        -0.58205
H         31.07532        37.72715        -1.10360
O         38.13937        36.98739         1.12295
H         37.83904        37.73199         1.69745
O         41.73625        28.95286        -1.69541
H         41.88967        29.79096        -2.19521
O         34.97806        40.57394        -1.13117
H         34.13580        41.07686        -1.15814
O         41.46356        48.79076        -1.64297
H         41.37191        49.76023        -1.73873
O         33.63391        38.30725        -1.16792
H         34.41304        38.71397        -1.63280
O         42.65392        44.63512        -2.14580
H         41.78847        45.07996        -2.32609
O         35.67144        37.15555         1.67983
H         34.86705        36.91598         2.19768
O         33.05599        37.03710         2.17879
H         32.19962        36.85006         2.62808
O         45.20024        41.52921        -2.73808
H         45.64044        40.71310        -3.05732
O         47.60081        36.18789         3.01750
H         47.05352        36.94110         3.32925
O         42.07320        44.05567         1.43735
H         41.68029        43.29100         1.91571
O         36.21141        38.33406        -1.75232
H         36.42517        37.51101        -2.26918
O         41.91221        24.15349         0.31788
H         41.04489        24.02748         0.75791
O         50.77204        33.56795         3.30416
H         50.55886        34.43845         3.72557
O         44.21134        38.20180         1.62378
H         44.80294        38.25843         2.40851
O         34.78123        44.52999        -0.50053
H         35.38917        45.03945        -1.08244
O         38.75638        45.84773         2.10060
H         38.14341        45.35517         2.68660
O         31.81436        39.21242         2.90491
H         31.60194        40.00517         3.44123
O         37.48068        44.90763        -1.23891
H         37.66353        44.06948        -1.73206
O         47.74873        29.05287        -1.73108
H         48.60022        28.96055        -2.20705
O         37.71329        28.99675        -1.93171
H         37.60254        29.96871        -2.04625
