         300
 CSIRO Nanostructure Databank - Neutral Graphene Oxide Data Set
C         30.37256        32.39747        -0.61103
C         30.19650        33.45727        -0.02198
C         30.03779        36.06177        -0.09058
C         30.24982        37.20723         0.31098
C         30.40446        40.41050         0.89684
C         30.09432        41.65642         0.73138
C         32.40023        29.40745        -1.68049
C         31.40299        30.11564        -1.42968
C         32.81784        32.12080        -1.08133
C         31.36358        31.56244        -1.28596
C         32.94522        33.47117        -0.45966
C         31.97320        34.56136        -0.96177
C         32.67746        35.90889         0.99284
C         30.79326        34.80761         0.07035
C         32.62668        37.24963         0.71701
C         31.42567        38.12127         0.23501
C         32.67543        40.17520         1.19263
C         31.41157        39.47800         0.93559
C         32.80419        41.49925         1.58024
C         30.88467        42.62377         1.33508
C         32.57862        44.40621         1.01455
C         31.45656        43.88379         0.96509
C         35.22565        27.41190        -1.03926
C         34.91143        28.80780        -0.77763
C         33.70323        29.63200        -1.01584
C         35.20053        31.48653        -0.04812
C         34.03821        31.17958        -1.09249
C         35.10378        32.83593         0.72214
C         33.90168        33.74676         0.45905
C         35.22927        35.81420         0.82242
C         33.95141        35.09730         1.20858
C         35.21638        37.29334         0.91498
C         33.90338        38.02569         0.86421
C         35.24167        40.19304         1.08848
C         33.90515        39.54074         0.57326
C         35.27927        41.71299         1.00067
C         33.91458        42.39398         0.98269
C         35.18853        44.61077         1.31372
C         33.88409        43.84709         1.56117
C         35.38663        45.96358         0.77554
C         37.59926        27.35948        -0.82675
C         36.21932        26.76089        -0.67338
C         37.50560        28.76291        -0.11231
C         36.21626        29.61225        -0.32215
C         37.70531        31.63175        -0.32207
C         36.51459        31.06708        -0.69704
C         37.65053        32.84985         0.56600
C         36.36126        33.66041         0.19552
C         37.60494        35.87014         0.05272
C         36.36147        35.13226         0.54140
C         37.61884        37.34630         0.39437
C         36.47012        38.02783         0.60184
C         37.76715        40.19199         0.59786
C         36.42510        39.52418         0.35004
C         37.77648        41.65417         0.87785
C         36.46741        42.38205         0.98792
C         37.77729        44.60151         0.69460
C         36.52208        43.86872         1.12970
C         37.77079        46.08631         0.34438
C         36.37897        46.57879         0.36910
C         40.10428        24.61162        -1.37555
C         39.06687        25.25891        -1.17680
C         40.18689        27.35801        -0.80312
C         38.81310        26.52546        -0.41035
C         40.21646        28.62419         0.11073
C         38.86498        29.42677         0.04596
C         40.27692        31.60116         0.08992
C         39.00185        30.86439        -0.44935
C         40.26509        33.04775         0.45846
C         38.92203        33.69618         0.62938
C         40.15779        35.82565         0.33267
C         38.86828        35.18007         0.51562
C         40.19766        37.29188         0.18701
C         38.92801        38.05115         0.30986
C         40.30789        40.15914         0.13072
C         38.94910        39.51606        -0.10110
C         40.34955        41.63067         0.55187
C         39.00551        42.36033         0.36734
C         40.22083        44.65581        -0.01708
C         38.96317        43.84249         0.18090
C         40.08751        46.03536        -0.59473
C         38.90805        46.71391        -0.38522
C         40.25923        48.17706        -2.77820
C         39.35903        48.31471        -3.65313
C         42.75080        24.51375        -1.17757
C         41.46710        25.18670        -1.60937
C         42.76094        27.37169        -0.89807
C         41.47022        26.48291        -0.63444
C         42.78797        28.56964         0.13204
C         41.52358        29.46907        -0.20551
C         42.71921        31.50909         1.02268
C         41.47565        30.79609         0.54494
C         42.70225        33.01904         1.36490
C         41.46501        33.79278         0.96130
C         42.38193        36.16358         1.07880
C         41.34158        35.18825         0.77084
C         42.62007        37.34726         0.46390
C         41.45856        37.94585        -0.35805
C         42.78248        40.06490        -0.49262
C         41.43301        39.45375        -0.14614
C         42.67980        41.59931        -0.60037
C         41.45299        42.36545        -0.19717
C         42.59345        44.44746        -1.00781
C         41.48257        43.87671        -0.17014
C         42.53431        45.85634        -1.47439
C         41.38765        46.78024        -0.91284
C         42.56850        48.56115        -1.92073
C         41.25783        47.96838        -1.87946
C         43.76871        25.12519        -0.83404
C         45.36215        27.31282        -0.70081
C         44.09902        26.55122        -0.87470
C         45.33868        28.92975        -0.56158
C         44.11081        29.40805         0.23138
C         45.32967        31.68458         0.71581
C         44.07267        30.82615         0.76436
C         45.36784        32.79082         1.78907
C         44.06825        33.64542         1.77946
C         45.31845        35.83641         1.28184
C         44.24404        35.11978         1.72917
C         45.21593        37.30072         0.88487
C         43.88627        38.08756         0.80529
C         45.25474        40.19330         0.10431
C         43.92984        39.53118         0.38469
C         45.27894        41.59258        -0.46247
C         43.99506        42.28221        -1.02179
C         45.14923        44.60579        -0.61891
C         43.91478        43.77298        -0.73140
C         45.08379        46.03921        -1.07662
C         43.92332        46.47863        -1.95188
C         43.64230        47.94828        -2.03218
C         47.71421        27.48075        -0.40813
C         46.68387        26.79405        -0.31134
C         47.87775        28.87691        -0.08131
C         46.63903        29.55846        -0.03616
C         47.88344        31.50642         1.03856
C         46.62804        30.98174         0.37869
C         47.95538        32.97561         1.38845
C         46.67575        33.68103         1.71490
C         47.90803        35.96732         1.35067
C         46.62010        35.22818         1.79056
C         47.84025        37.44029         1.10494
C         46.50132        38.09292         0.79339
C         47.79857        40.31500         0.25423
C         46.47318        39.63830         0.84585
C         47.71226        41.85967         0.49877
C         46.55318        42.43198        -0.34042
C         47.68991        44.78567        -0.08745
C         46.49570        43.91967        -0.49831
C         47.52830        46.15012        -0.61729
C         46.40455        46.45672        -1.12714
C         50.42338        29.00913        -0.15480
C         49.12339        29.49617         0.12237
C         50.50614        31.51511         1.06919
C         49.19049        30.77158         0.88064
C         50.49973        33.02222         1.02102
C         49.16046        33.73215         0.87169
C         50.40187        36.03360         0.63280
C         49.09679        35.22689         0.77576
C         50.17265        37.39565        -0.08689
C         48.98643        38.14881         0.41293
C         50.32943        40.36795         0.47954
C         49.03976        39.62838         0.84235
C         50.22621        41.85811         0.47892
C         49.06457        42.55995         0.26563
C         50.27922        44.63635        -0.31364
C         49.02334        44.06154         0.15194
C         51.55450        29.53526        -0.12982
C         52.88147        31.68979         0.29038
C         52.08399        30.55618         0.78698
C         52.79687        32.91171         0.28773
C         51.80659        33.88600         0.85017
C         52.66678        36.13698        -0.10716
C         51.55351        35.12693        -0.00208
C         52.56303        37.32896        -0.37537
C         51.39994        38.20043        -0.70013
C         52.36279        40.58868        -0.91442
C         51.49639        39.63997        -0.21845
C         52.44756        41.80187        -1.17749
C         51.93891        42.95599        -0.54034
C         51.24556        44.10605        -0.94624
O         34.53935        37.72585         2.14263
O         43.14515        35.82021         2.18257
O         44.37556        29.69273         1.63001
O         47.61199        33.24401         2.76407
O         51.48803        39.84701         1.20941
O         38.03725        40.66558         1.94809
O         38.05259        29.05584         1.19119
O         44.34664        44.23968         0.57729
O         37.59406        35.83230        -1.36281
O         49.04767        37.65156        -0.96670
O         50.56584        32.27395         2.28918
O         40.60615        32.61387        -0.92130
O         48.83763        34.39171        -0.38993
O         41.62051        41.91115        -1.55928
O         39.76317        37.84383         1.49776
O         43.08081        39.67062        -1.82399
O         48.38490        30.66300         2.10478
O         45.96979        31.95695        -0.54213
O         41.20722        44.54765         1.08997
O         38.85300        34.51167         1.83735
O         36.07373        44.38320         2.42954
O         43.68472        39.18059         1.76767
O         33.84996        28.98979         0.23362
O         31.78174        42.09158         2.35262
O         38.18236        45.62302         1.65275
O         46.90156        43.05404        -1.60742
O         43.09825        33.21878         2.76330
O         48.25643        44.68409         1.21314
O         44.94125        26.92546        -2.01634
O         31.57211        35.04393         1.29685
O         35.53819        30.33241         0.86379
O         45.93633        37.49979        -0.40204
O         32.10270        35.10582        -2.02074
O         45.49388        40.40304        -1.30302
O         51.44650        42.53937         0.75212
O         42.16248        44.77634        -2.36519
O         32.08460        32.21254        -2.34962
O         48.22261        36.94847         2.40477
O         38.71559        42.93933        -0.94383
O         41.83485        30.77408         1.93996
O         50.81427        36.47085         1.93417
H         51.44295        35.81398         2.32727
O         41.60735        29.90466        -1.55666
H         41.06866        29.29658        -2.12854
O         48.00541        40.10762        -1.14354
H         47.15122        40.22140        -1.63649
O         33.72223        43.72991         2.95978
H         33.96038        44.57251         3.39761
O         52.51046        30.03695         1.97501
H         52.99515        30.70716         2.49532
O         52.23644        34.26872         2.14883
H         52.06944        33.50974         2.75512
O         44.23164        45.97066        -3.23630
H         43.53649        45.31363        -3.49012
O         40.34799        28.23206         1.47437
H         39.43401        28.14859         1.84992
O         42.65608        27.84605        -2.23057
H         43.50989        28.27740        -2.47759
O         47.37078        42.16976         1.85101
H         47.99936        41.72433         2.45874
O         37.69569        27.69622        -2.20448
H         37.83970        26.87554        -2.72031
O         35.16910        32.53419         2.09816
H         34.86984        33.32314         2.61649
O         45.12587        29.42548        -1.89521
H         45.85589        29.11296        -2.47116
O         41.45345        25.89453         0.65950
H         41.66627        26.59450         1.33040
O         40.67453        41.67516         1.94951
H         39.99336        41.16224         2.44181
O         46.30943        39.97426         2.22187
H         47.03881        39.56896         2.74256
O         31.57803        38.33786        -1.16965
H         32.27526        39.02195        -1.32406
O         33.73752        39.80425        -0.84359
H         34.55186        39.52610        -1.33855
O         37.58955        32.27659         1.88461
H         37.66544        33.00097         2.54434
O         36.23278        33.64595        -1.23180
H         36.72441        34.44715        -1.60018
O         48.96681        39.65126         2.27945
H         49.78711        39.23999         2.63523
O         51.22085        34.68815        -1.29308
H         51.14643        35.45446        -1.89938
O         46.48134        35.47862         3.21526
H         47.27829        35.12056         3.66584
O         38.75573        26.25595         0.96058
H         39.56562        25.74164         1.19611
O         38.73545        48.00376        -0.71250
H         37.80972        48.27704        -0.54368
O         36.20390        39.68611        -1.07650
H         37.02923        39.43469        -1.56842
O         51.24206        38.22419        -2.11303
H         50.27652        38.21722        -2.31474
O         34.64955        31.33618        -2.38369
H         33.96664        31.65262        -3.01684
O         42.70894        27.97387         1.42588
H         42.67281        28.69898         2.09431
O         35.35605        39.96056         2.49865
H         36.25985        40.23108         2.78248
O         34.00524        34.83321         2.63925
H         33.08100        34.72653         2.95396
O         41.54183        37.64428        -1.74855
H         42.22389        38.28262        -2.12705
O         38.74210        39.59443        -1.53441
H         39.52783        39.22010        -1.99250
O         45.39983        32.06834         3.01216
H         45.31302        32.69136         3.76270
O         44.05744        42.14875        -2.44142
H         43.79380        41.20425        -2.62764
O         39.21021        30.67725        -1.86876
H         39.55282        31.52323        -2.23528
O         41.90254        47.28240         0.33264
H         41.79926        46.57440         1.01106
O         33.62717        42.52984        -0.43327
H         33.59155        41.62240        -0.83309
O         41.58230        25.56906        -2.95546
H         41.59695        24.77135        -3.52334
O         40.10961        27.79146        -2.15366
H         40.57212        27.13988        -2.73487
