         621
 CSIRO Nanostructure Databank - Neutral Graphene Oxide Data Set
C          5.76336        31.53346         0.93736
C          5.73310        32.88540         0.79574
C          8.31741        27.38851         1.33390
C          8.25808        28.76453         1.50247
C          7.03649        29.48615         1.25881
C          8.22659        31.70199         1.49365
C          6.98432        30.85540         1.27920
C          7.86923        33.10902         2.10770
C          6.86368        33.74152         1.10994
C          7.81873        36.00727         0.70386
C          6.87580        34.94556         0.45034
C          8.39462        36.89410        -0.15533
C         10.74458        23.08942         1.50307
C         10.71234        24.44051         1.70571
C          9.53137        25.23548         1.43326
C         10.75518        27.35385         1.82599
C          9.50553        26.60996         1.54324
C         10.67768        28.81818         2.13118
C          9.38666        29.54085         2.00015
C         10.46400        31.62691         2.80244
C          9.32278        30.90093         2.18181
C         10.45498        33.12803         2.79653
C          9.18965        33.87414         2.47429
C         10.57469        35.88953         1.77501
C          9.39540        35.29856         2.11013
C         10.57839        37.28063         1.20716
C          9.54004        37.72277         0.21212
C         10.94374        39.65522        -0.49886
C          9.72209        38.88466        -0.49485
C         11.01134        40.88535        -1.12884
C         13.22546        18.97712         0.32595
C         13.18151        20.28710         0.93055
C         11.98059        20.90379         1.24793
C         13.23080        22.99295         1.85926
C         11.92058        22.23751         1.93653
C         13.23918        24.39606         2.30435
C         11.91186        25.13899         2.24390
C         13.15474        27.26927         2.44008
C         11.97196        26.60393         2.20454
C         13.12243        28.69568         2.84069
C         11.82523        29.44371         2.85883
C         13.05229        31.69604         3.02019
C         11.77523        30.93691         3.05759
C         13.07255        33.07649         2.83015
C         11.79344        33.84957         2.78250
C         13.15205        35.87835         1.92053
C         11.84433        35.27457         2.25518
C         13.18352        37.24168         1.50342
C         11.92352        37.96550         1.12622
C         13.30613        39.76612         0.16903
C         12.09737        39.11129         0.19335
C         13.54066        40.84232        -0.79717
C         12.29844        41.50364        -1.43759
C         13.54494        43.65123        -1.82300
C         12.38675        42.91046        -1.87686
C         13.64242        44.98294        -2.37568
C         15.72581        14.97716        -1.03514
C         15.69715        16.31659        -0.70949
C         14.46218        17.01712        -0.50550
C         15.71915        18.89910         0.57317
C         14.42236        18.29727         0.06442
C         15.64065        20.40909         0.58261
C         14.42128        21.01441         1.09312
C         15.71677        23.02433         1.96634
C         14.41927        22.37169         1.52325
C         15.70931        24.54059         1.97041
C         14.48422        25.19068         2.20785
C         15.62723        27.37419         2.33403
C         14.43751        26.60166         2.37920
C         15.56112        28.80693         2.56379
C         14.37468        29.46106         2.82477
C         15.59144        31.68254         3.26780
C         14.31548        30.91216         3.16994
C         15.55115        33.21908         3.36693
C         14.30038        33.83639         2.75294
C         15.61299        35.91146         2.32335
C         14.33984        35.18735         2.32856
C         15.69813        37.29285         1.69871
C         14.36691        37.97719         1.55064
C         15.70166        40.16975         1.16270
C         14.36020        39.38445         1.14061
C         15.89507        41.21003         0.18230
C         14.81705        41.62092        -0.72514
C         15.84978        43.96419        -0.77909
C         14.78640        43.04186        -1.26651
C         15.91068        45.30761        -1.44444
C         14.80315        45.75099        -2.33729
C         16.11924        47.77745        -2.94667
C         14.92025        47.04512        -2.93230
C         16.23416        49.10816        -3.40297
C         18.19093        10.92597        -2.62009
C         18.14628        12.30219        -2.17642
C         16.97549        12.89926        -1.73642
C         18.19269        15.07771        -1.41233
C         17.01824        14.21464        -1.01341
C         18.16860        16.46249        -1.08641
C         16.95572        17.06597        -0.59360
C         18.18851        19.11293        -0.03385
C         16.96300        18.36717        -0.10561
C         18.23293        20.43299         0.49831
C         16.97151        21.17540         0.71181
C         18.21213        23.11837         1.72176
C         16.95955        22.45855         1.35267
C         18.19266        24.59817         1.79628
C         16.91778        25.27491         1.91980
C         18.06777        27.45773         1.86163
C         16.88510        26.71873         2.05112
C         18.03326        28.93472         1.86556
C         16.78158        29.61777         2.34248
C         18.03806        31.69514         2.88079
C         16.85171        31.00723         2.86176
C         18.02372        33.14686         2.90482
C         16.83865        33.85810         2.91133
C         18.05175        36.05966         2.82149
C         16.79554        35.27713         2.63850
C         18.03893        37.55909         2.74031
C         16.82615        38.20906         2.17540
C         18.11529        40.37308         2.01539
C         16.89174        39.50200         1.76320
C         18.31594        41.47995         0.97946
C         17.25108        41.83150        -0.04533
C         18.33035        44.18402        -0.05703
C         17.07631        43.36852        -0.11930
C         18.41147        45.44959        -0.83393
C         17.27134        45.86861        -1.68659
C         18.62452        47.90313        -2.50123
C         17.37108        47.12482        -2.50975
C         18.71510        49.13049        -3.14278
C         17.46066        49.79948        -3.56077
C         18.36315        51.94442        -4.56025
C         17.35448        51.17137        -3.95760
C         18.44044        53.34173        -4.70581
C         20.72677         6.78737        -3.50394
C         20.69731         8.16523        -3.19325
C         19.46808         8.87938        -3.14597
C         20.67036        10.91742        -2.31469
C         19.39320        10.23851        -2.78235
C         20.60837        12.42449        -2.69452
C         19.37406        13.07258        -2.16006
C         20.58181        15.25056        -2.18054
C         19.37193        14.44287        -1.87064
C         20.56782        16.71997        -1.77102
C         19.35852        17.23651        -1.11644
C         20.63543        19.23645        -0.44801
C         19.39545        18.51831        -0.52189
C         20.64551        20.51302         0.14242
C         19.45908        21.10576         0.63692
C         20.69045        23.28648         1.14817
C         19.51156        22.43190         1.30741
C         20.64940        24.64568         1.41245
C         19.38237        25.30837         1.65346
C         20.63124        27.55223         1.33607
C         19.32060        26.77541         1.49613
C         20.63229        29.03245         1.65026
C         19.32592        29.71287         1.93084
C         20.59927        31.72876         2.71630
C         19.33936        30.90756         2.88079
C         20.57464        33.09609         2.73770
C         19.30044        33.83478         2.59663
C         20.61479        36.04751         2.79526
C         19.33573        35.33455         2.56526
C         20.57181        37.50456         2.97642
C         19.34220        38.26655         2.59088
C         20.71598        40.21895         1.82157
C         19.39221        39.55732         2.18003
C         20.65098        41.76061         1.84583
C         19.48196        42.20092         0.97535
C         20.77901        44.18212         0.25482
C         19.59713        43.48724         0.29643
C         20.76518        45.60296        -0.17546
C         19.60380        46.09249        -0.96022
C         21.09798        48.02281        -1.81551
C         19.79827        47.21737        -1.91680
C         21.11787        49.36753        -2.37502
C         20.02373        49.80266        -3.17422
C         21.42940        51.72739        -3.82847
C         20.29321        50.89718        -4.01643
C         21.54933        52.95426        -4.52908
C         19.62728        54.01235        -5.13496
C         21.23075        55.93503        -5.31338
C         19.90814        55.36944        -5.11050
C         21.32235        57.25313        -5.72776
C         23.27337         4.15503        -4.44855
C         22.09848         4.71037        -3.92529
C         23.10988         6.80379        -3.13184
C         21.95077         6.07105        -3.50505
C         23.19033         8.21611        -3.16074
C         21.94627         8.89800        -3.06043
C         23.15211        11.00642        -2.90041
C         21.94395        10.29860        -2.86499
C         23.11347        12.51037        -2.97452
C         21.91496        13.09585        -2.21632
C         23.07937        15.31680        -2.27623
C         21.89390        14.60619        -2.32131
C         23.08702        16.72467        -1.90448
C         21.86307        17.37992        -1.53773
C         23.12847        19.30769        -0.69787
C         21.86697        18.63758        -0.92371
C         23.16022        20.53454        -0.05094
C         21.90821        21.27615         0.14343
C         23.20034        23.33232         1.03852
C         21.93503        22.68225         0.63969
C         23.16335        24.66829         1.34355
C         21.89850        25.40779         1.37970
C         23.17946        27.53370         1.44108
C         21.90011        26.78560         1.45537
C         23.16499        29.01927         1.84001
C         21.87626        29.67826         2.15841
C         23.11601        31.67839         2.93846
C         21.84856        30.97739         2.59657
C         23.12226        33.15245         2.68832
C         21.82209        33.89170         2.56670
C         23.08411        36.07858         2.77622
C         21.81394        35.36692         2.79796
C         23.12537        37.46415         2.71597
C         21.91020        38.24179         2.96669
C         23.18647        40.45143         2.51297
C         21.89341        39.71202         2.63992
C         23.20851        41.72979         1.74415
C         21.99162        42.36051         1.41924
C         23.25350        44.30246         0.64525
C         22.02626        43.61018         0.75232
C         23.36450        45.66130        -0.00209
C         22.04146        46.36270        -0.17447
C         23.30655        48.42549        -0.72400
C         22.15139        47.64195        -0.89112
C         23.37889        49.71097        -1.35568
C         22.28909        50.15599        -2.17334
C         23.48830        52.29168        -2.58814
C         22.39433        51.40766        -2.83781
C         23.48991        53.57794        -3.22636
C         22.48457        53.93110        -4.15680
C         23.74330        56.04565        -4.84928
C         22.49342        55.21581        -4.94004
C         23.73548        57.45944        -5.25698
C         22.54738        58.01705        -5.77184
C         23.76934        60.08615        -6.18047
C         22.58083        59.35653        -6.22969
C         24.52893         4.77227        -4.60755
C         25.79013         6.96067        -4.17154
C         24.89524         5.93289        -3.88379
C         25.69288         8.28748        -3.60411
C         24.44572         8.91764        -3.20435
C         25.61754        11.10914        -3.04186
C         24.40599        10.33791        -3.05748
C         25.60943        12.52651        -2.79246
C         24.38802        13.22741        -2.64705
C         25.59279        15.34399        -2.42003
C         24.36365        14.61496        -2.42920
C         25.56593        16.77277        -2.14397
C         24.31510        17.40129        -1.74607
C         25.57276        19.42421        -1.03851
C         24.35921        18.70661        -1.15915
C         25.65384        20.63024        -0.30297
C         24.43335        21.13306         0.34339
C         25.72905        23.28668         0.83648
C         24.46430        22.56081         0.95145
C         25.76130        24.65193         1.35469
C         24.42806        25.37195         1.65195
C         25.66740        27.52580         1.68375
C         24.45751        26.83209         1.60599
C         25.64150        28.94499         1.99291
C         24.43959        29.58624         2.28137
C         25.71314        31.71205         2.77446
C         24.43008        30.93971         2.87154
C         25.66409        33.21541         2.70835
C         24.36773        33.93124         2.80611
C         25.47639        35.97197         2.10431
C         24.32157        35.30419         2.65453
C         25.60455        37.45414         2.14915
C         24.30422        38.23053         2.13939
C         25.65027        40.33278         2.51240
C         24.45506        39.67601         2.60243
C         25.72956        41.60125         1.68454
C         24.45229        42.33080         1.42399
C         25.69176        44.50629         1.03672
C         24.46611        43.69243         1.02388
C         25.67581        45.91195         0.86441
C         24.33784        46.59937         0.72590
C         25.57077        48.73972         0.16172
C         24.42614        47.94225         0.02390
C         25.62577        50.05567        -0.36145
C         24.52488        50.54332        -1.15337
C         25.70773        52.71464        -1.49573
C         24.53284        51.85144        -1.72600
C         25.77770        54.06563        -2.14891
C         24.58432        54.53301        -2.92900
C         26.08124        56.40168        -3.89527
C         24.75150        55.73707        -3.78796
C         26.12467        57.61229        -4.58831
C         24.94045        58.20592        -5.16060
C         24.93895        59.53081        -5.65540
C         26.85461         9.07715        -3.62569
C         28.07653        11.17698        -3.16871
C         26.85890        10.44800        -3.26675
C         28.08380        12.54850        -2.90098
C         26.83234        13.25272        -2.74502
C         28.09176        15.41106        -2.84167
C         26.82242        14.66281        -2.60707
C         27.95921        16.95334        -2.74584
C         26.72358        17.52237        -2.19805
C         28.08759        19.46021        -1.24522
C         26.76944        18.99306        -1.84497
C         28.10967        20.71498        -0.57266
C         26.87278        21.34702        -0.17826
C         28.14404        23.43554         0.35896
C         26.90132        22.68253         0.35939
C         28.16552        24.81438         0.74563
C         26.96344        25.46421         1.15445
C         28.18483        27.53357         1.53256
C         26.93871        26.83467         1.47372
C         28.16008        28.91218         2.05292
C         26.89877        29.66789         2.08981
C         28.14367        31.83155         2.09404
C         26.92544        31.04089         2.25755
C         28.01404        33.26431         1.81359
C         26.75845        33.85952         1.94744
C         28.18976        36.27079         0.84123
C         26.41524        35.17037         1.48833
C         28.12771        37.53256         1.35357
C         26.86754        38.19924         1.79187
C         28.20177        40.32382         2.04709
C         26.82298        39.71821         1.77862
C         28.24057        41.81426         1.94428
C         26.93069        42.50710         1.84389
C         28.10977        44.65578         1.35458
C         26.91739        43.90247         1.34874
C         28.10533        46.05178         1.19458
C         26.84178        46.68211         1.00260
C         27.99577        48.95133         1.05841
C         26.72657        48.16552         0.90586
C         28.13963        50.33027         0.42364
C         26.84888        50.89031        -0.21069
C         28.18556        52.72789        -1.26245
C         26.95898        52.08052        -1.06408
C         28.24737        53.96571        -1.99334
C         27.11527        54.62265        -2.48420
C         27.20360        55.79110        -3.28640
C         29.30327        13.26302        -2.73435
C         30.65041        15.18876        -2.28153
C         29.38419        14.66014        -2.64184
C         31.04255        16.55271        -2.34732
C         29.16658        17.76013        -2.58712
C         30.60786        19.31525        -1.20434
C         29.28202        18.83582        -1.69152
C         30.60258        20.69278        -0.51731
C         29.33491        21.40353        -0.35860
C         30.59603        23.53045        -0.02677
C         29.35626        22.78782        -0.00482
C         30.59011        24.89965         0.31005
C         29.39583        25.54980         0.73785
C         30.66922        27.65690         1.31062
C         29.40423        26.91745         1.19258
C         30.68706        28.99401         1.69133
C         29.45254        29.70156         2.10775
C         30.64163        31.92961         2.04410
C         29.36720        31.17322         2.01246
C         30.60279        33.40163         1.74480
C         29.26625        34.06387         1.54645
C         30.57855        36.07369         0.76990
C         29.35682        35.40998         0.90790
C         30.43537        37.56546         0.61098
C         29.49890        38.09113         1.70328
C         30.71203        40.36823         1.38624
C         29.50189        39.60908         1.84875
C         30.79592        41.79016         1.55027
C         29.48464        42.49162         1.47224
C         30.64128        44.73780         1.62641
C         29.41643        43.96965         1.31365
C         30.67234        46.16145         1.53072
C         29.36458        46.81233         1.32891
C         31.02349        49.06689         0.65700
C         29.21080        48.18447         1.40924
C         30.66422        50.11874        -0.20076
C         29.42452        50.84130        -0.16998
C         29.38665        52.03877        -0.89030
C         31.96738        17.29193        -1.66631
C         33.12436        19.43923        -1.11678
C         31.94437        18.80562        -1.80741
C         33.10712        20.73340        -0.65701
C         31.84894        21.47023        -0.52306
C         33.13851        23.56870        -0.62717
C         31.83216        22.83553        -0.34924
C         33.13284        25.02354        -0.17449
C         31.83511        25.70355         0.21955
C         33.14534        27.64550         0.99213
C         31.91200        27.00752         0.91410
C         33.24926        28.98590         1.59724
C         31.96046        29.69945         1.93224
C         33.23148        31.96081         1.72162
C         31.95014        31.20547         2.03256
C         33.11675        33.27735         1.00324
C         31.80941        33.98999         1.05458
C         33.07537        36.15824         0.64609
C         31.83877        35.43988         0.80201
C         32.91460        37.55951         0.34418
C         31.74867        38.26339         0.57499
C         33.59140        40.82847         1.06942
C         31.70180        39.68383         0.68204
C         33.33942        42.05126         1.71161
C         31.97184        42.57390         1.69014
C         33.59166        45.01575         2.01191
C         31.72954        43.95252         2.04637
C         33.24127        46.16984         1.30106
C         31.95926        46.81990         1.25188
C         31.98205        48.06102         0.51854
C         34.31377        21.40313        -0.25730
C         35.54736        23.46725         0.15177
C         34.35436        22.79232        -0.15088
C         35.61402        24.88486         0.29965
C         34.39597        25.64257         0.25955
C         35.64416        27.66342         0.84881
C         34.39570        26.98896         0.65975
C         35.67026        29.07892         1.07436
C         34.48943        29.75374         1.38438
C         35.70031        31.95896         1.03847
C         34.50607        31.21156         1.50842
C         35.65836        33.32145         0.89599
C         34.38280        34.04974         0.53857
C         35.59391        36.26680         1.12408
C         34.36239        35.56121         0.82435
C         35.68747        37.70477         1.40585
C         34.79871        38.65408         0.88553
C         35.74894        40.52320         2.18097
C         34.70492        39.99209         1.34563
C         35.70694        41.93213         2.41853
C         34.57002        42.73497         2.14735
C         34.71515        44.15722         1.99087
C         36.83314        25.54380         0.55317
C         38.10790        27.64557         0.93409
C         36.88209        26.94813         0.75880
C         38.15245        29.05639         1.07779
C         36.92540        29.79094         1.07103
C         38.17141        31.89398         1.14028
C         36.94839        31.21153         1.07346
C         38.20182        33.36403         1.04146
C         36.89881        34.11835         0.85104
C         37.98088        36.13594         1.84565
C         36.80938        35.53514         1.28428
C         37.93346        37.44891         2.34672
C         36.80086        38.27170         2.13764
C         36.81238        39.64859         2.50267
C         39.37149        29.77504         1.26682
C         40.58164        31.93585         1.65821
C         39.38445        31.17273         1.34325
C         40.54853        33.28497         1.86245
C         39.34768        34.06644         1.64996
C         39.21640        35.38842         1.99534
O         15.42355        45.16387        -0.07364
O         19.96290        29.88277         0.64948
O         10.97792        38.27677         2.20509
O         17.39765        44.10180         1.08524
O         15.33687        41.96547        -2.08505
O         32.60798        44.54605         2.92601
O         28.89306        29.09193         3.32096
O         32.38235        25.83148        -1.15448
O         23.73524        31.15408         4.15061
O         25.20681        24.76901         2.72170
O         21.14480        46.46233         0.98632
O         19.85225        27.20668         0.16265
O         22.87413        12.86302        -4.42815
O         19.44928        51.18453        -5.06897
O         17.95875        36.86778         4.03652
O         27.03717        35.67027         0.34942
O         33.99003        38.26557        -0.18705
O         24.19567         6.09861        -2.65257
O          8.22796        36.05645         2.04589
O         19.27023        34.58096         1.31032
O         16.16472        21.10699        -0.57649
O         30.05587        34.17074         2.83210
O          9.57091        33.62074         3.86381
O         27.93238        16.24600        -4.03146
O         20.73287        10.72523        -0.93070
O         32.75195        29.06086         2.98865
O         21.21412        37.94723         4.21366
O         26.27981        40.54608         0.58931
O         30.24189        17.29499        -3.29699
O         20.33806        16.30449        -3.16903
O         15.00151        31.10075         4.48999
O         34.14079        31.84655         2.83764
O         22.35919        40.54481         3.72813
O         29.42494        43.08915         0.10823
O         12.43038        24.61109         3.52499
O         32.69943        40.42561         0.05786
O         23.55486        55.11931        -5.96983
O         25.46851        53.96998        -0.72465
O         13.16983        40.54607        -2.16487
O         27.32530        51.27445         1.14654
O         17.58419        45.78371        -3.11840
O         10.83847        31.19829         4.16198
O         32.16546        33.13350        -0.11760
O         19.04154        22.40648         2.70870
O         24.12233        55.85719        -2.46220
O         37.79795        33.87704        -0.28276
O         20.69314        53.19001        -5.59053
O         31.38026        31.65912         3.29622
O         22.53596        33.45651         1.35338
O         30.65545        19.41807         0.23414
O         28.99097        39.91251         3.19951
O         26.54004        37.83626         3.20838
O         24.52427        21.36565         1.79513
O         20.87844        46.96695        -2.86462
O         14.61876        40.39900         2.15388
O         12.28157        28.80007         4.07827
O         23.21286        28.58789         0.43027
O         26.05696        32.52252         3.93994
O         27.01715        48.88507         2.15550
O         17.11839        29.55193         0.88928
O         11.79268        34.96947         3.70495
O         27.62932        42.42318         3.13167
O         30.25064        48.97733         1.84799
O         11.07607        28.36467         0.77809
O         21.86912        22.43085        -0.83396
O         20.38103        42.17977         3.20535
H         20.46526        43.15520         3.25389
O         20.47978        12.43373        -4.13498
H         20.37632        13.36279        -4.43186
O         23.81940        46.81230         2.05858
H         24.38197        47.47744         2.50826
O         23.92188        45.46987        -1.32830
H         23.31231        44.91101        -1.85396
O         29.95762        37.53731         2.94574
H         29.44623        37.97278         3.66506
O          8.78441        32.02598         0.17928
H          8.89459        31.18719        -0.31805
O         23.95304        38.41094         0.72721
H         24.60557        39.02944         0.32412
O         32.03044        19.22891        -3.18361
H         31.49763        18.60425        -3.72783
O         15.82151        22.64707         3.39163
H         14.95593        22.84004         3.81462
O         15.82854        18.52315         1.97911
H         15.81408        17.54425         2.03478
O         17.87013        41.03858         3.27910
H         18.70366        41.50748         3.53985
O         24.01498        12.38251        -5.18388
H         23.60736        11.70809        -5.77967
O         26.68773        19.72134        -3.12841
H         25.86372        19.43585        -3.57831
O         22.08937        12.87147        -0.80815
H         21.65949        11.98529        -0.57055
O         19.41653        30.28553         4.20297
H         19.37176        30.98842         4.88551
O         17.80893        41.40184        -1.31873
H         17.08028        41.45560        -1.98831
O         15.48033        33.56164         4.77848
H         14.95468        32.85067         5.21768
O         34.39778        33.99880        -0.91902
H         33.46575        33.85313        -1.21143
O         11.69433        21.96215         3.37036
H         11.76878        22.83634         3.82818
O          7.15049        32.90292         3.32264
H          7.79625        32.97354         4.06576
O         21.00478        39.82414         0.45550
H         20.25476        40.09780        -0.11645
O         16.10268        37.01742         0.29443
H         15.52731        36.30262        -0.05352
O         33.27744        23.58762        -2.07637
H         32.77445        24.37213        -2.39572
O         17.25558        13.85906         0.41814
H         18.02903        13.25422         0.44525
O         29.80179        37.87345        -0.66515
H         30.42302        37.63465        -1.38472
H          4.87381        30.92766         0.71061
H          4.82386        33.36873         0.40727
H          7.40323        26.85891         1.02460
H          6.12593        28.91391         1.02377
H          6.11164        35.10693        -0.32806
H          8.01667        36.97547        -1.18530
H          9.84447        22.57999         1.12464
H          8.60833        24.70082         1.16135
H          8.92786        39.20630        -1.18532
H         10.08804        41.37962        -1.46540
H         12.27092        18.49452         0.06467
H         11.03370        20.37094         1.07108
H         11.46822        43.37932        -2.26174
H         12.76808        45.36641        -2.92307
H         14.78359        14.42111        -1.15347
H         13.51900        16.50458        -0.75006
H         14.02608        47.48787        -3.39666
H         15.31263        49.63413        -3.69519
H         17.23566        10.38520        -2.72008
H         16.03896        12.32128        -1.71614
H         16.36469        51.63819        -3.83406
H         17.60522        53.95357        -4.33709
H         19.78583         6.25902        -3.71540
H         18.54551         8.34905        -3.43586
H         19.07894        56.07723        -4.95911
H         20.39477        57.77690        -6.00542
H         23.15426         3.17636        -4.94092
H         21.17443         4.12670        -4.05582
H         23.78408        61.12029        -6.55261
H         21.66679        59.81741        -6.63054
H         25.21383         4.37844        -5.37217
H         26.58866         6.78838        -4.90934
H         27.07283        58.16780        -4.64881
H         25.86199        60.12650        -5.61531
H         27.80811         8.60770        -3.91096
H         29.02976        10.64659        -3.31005
H         29.24032        54.39021        -2.20516
H         28.19513        56.24532        -3.43684
H         30.23851        12.68374        -2.70060
H         31.41665        14.45400        -1.98949
H         31.39396        50.42732        -0.96522
H         30.33966        52.44935        -1.25639
H         32.52956        16.84181        -0.83739
H         34.08863        18.91292        -1.18605
H         34.03889        46.64833         0.71233
H         32.81133        48.21671        -0.18787
H         35.22768        20.81175        -0.09611
H         36.46210        22.87835         0.31906
H         36.60943        42.42619         2.80785
H         35.71903        44.55257         1.77413
H         37.76697        24.96288         0.55969
H         39.04990        27.07737         0.92267
H         38.81928        37.86685         2.84751
H         37.69321        40.03878         3.03369
H         40.31332        29.21531         1.36735
H         41.52051        31.38371         1.81216
H         41.45795        33.81164         2.18852
H         40.07038        35.91482         2.44898
