         318
 CSIRO Nanostructure Databank - Neutral Graphene Oxide Data Set
C         30.18030        31.64021         1.01720
C         30.36317        32.86642         1.14319
C         30.29200        35.96699         0.41843
C         30.26758        37.13839        -0.02123
C         30.21785        40.48339         0.00005
C         30.22465        41.70400        -0.17165
C         32.63686        28.90611         0.38214
C         31.55038        29.44085         0.60292
C         32.65224        31.56809         0.98878
C         31.35306        30.73165         1.34861
C         32.75490        33.04022         1.46187
C         31.42776        33.80379         1.11519
C         32.65948        35.89376         0.41934
C         31.39510        35.10723         0.74888
C         32.57420        37.40867         0.76467
C         31.28532        38.13501         0.42196
C         32.60069        40.34065         0.18638
C         31.34471        39.50224        -0.21304
C         32.67451        41.77408        -0.31921
C         31.36755        42.55973        -0.50675
C         32.72730        44.47675        -0.52319
C         31.58696        44.00559        -0.33263
C         35.32892        27.60979        -0.74673
C         35.09622        29.04848        -0.43667
C         34.04962        29.33023         0.62987
C         35.24493        31.58089         1.07667
C         33.94062        30.87721         0.69941
C         35.19622        33.07892         0.81175
C         34.00190        33.73192         0.84392
C         35.19602        35.90866         0.28967
C         33.95619        35.24508         0.97374
C         35.14026        37.41192         0.43606
C         33.91197        38.13829         0.92297
C         35.19837        40.29380         0.26685
C         33.88198        39.63094         0.54127
C         35.19075        41.66212        -0.40988
C         33.98875        42.51293         0.04819
C         35.23182        44.54053        -0.84257
C         34.05820        43.95658        -0.49387
C         35.53391        45.90357        -1.13519
C         37.72458        27.35322        -0.52957
C         36.37833        27.02978        -1.02055
C         37.73744        28.76907         0.03689
C         36.47972        29.60039         0.08875
C         37.82862        31.61187         0.79299
C         36.50518        30.88425         0.54499
C         37.73852        33.13429         0.44466
C         36.51168        33.80054         1.10193
C         37.65952        35.94575         0.77199
C         36.48110        35.27676         0.76219
C         37.66876        37.44145         0.82789
C         36.36427        38.16616         0.75842
C         37.67129        40.40017         0.61763
C         36.36768        39.62666         0.45990
C         37.75493        41.56771        -0.38072
C         36.49833        42.40792        -0.34000
C         37.83889        44.47457        -0.61923
C         36.53980        43.73825        -1.05476
C         37.93831        46.01025        -0.97051
C         36.59077        46.54387        -1.21578
C         40.22581        24.76188        -1.58276
C         39.14332        25.30904        -1.24437
C         40.28001        27.34919        -0.66181
C         38.91632        26.81352        -1.27342
C         40.22645        28.84300        -0.52011
C         39.09184        29.46907         0.26976
C         40.31577        31.68281         0.32223
C         38.99487        30.98281        -0.01264
C         40.33320        33.08707         0.79598
C         39.05909        33.84987         0.83931
C         39.97539        36.15203         1.35216
C         38.91779        35.22951         1.01332
C         40.12897        37.43803         0.88614
C         38.92822        38.20715         0.62308
C         40.22822        40.35795         0.77587
C         38.93782        39.57344         0.56645
C         40.22727        41.71029         0.07231
C         39.08013        42.32450        -0.30249
C         40.36612        44.49791        -0.77647
C         39.10558        43.65368        -1.05819
C         40.47043        45.78557        -1.60323
C         39.21550        46.66007        -1.36058
C         40.53807        48.47693        -2.31546
C         39.45588        47.93849        -2.05056
C         42.83798        24.82029        -1.64194
C         41.53886        25.25811        -1.57354
C         42.78764        27.40608        -0.85689
C         41.51881        26.85240        -1.47042
C         42.72663        28.77390        -0.19568
C         41.49691        29.62582        -0.66899
C         42.80265        31.50628         0.36413
C         41.46389        30.96834         0.06132
C         42.87149        32.94256         0.77771
C         41.60261        33.66626         0.98968
C         42.86670        35.82102         0.83888
C         41.86074        35.04634         1.33711
C         42.73807        37.32355         0.61633
C         41.46155        38.14078         1.08828
C         42.76454        40.29019         0.55943
C         41.46210        39.52550         0.35808
C         42.80002        41.62445         0.30602
C         41.57813        42.31573        -0.30627
C         42.94953        44.59629        -0.25912
C         41.59908        43.84394        -0.25144
C         43.02645        45.78164        -1.28819
C         41.75341        46.58019        -1.45990
C         43.16814        48.40244        -2.21780
C         41.85397        47.78663        -2.54121
C         43.96373        25.41401        -1.45903
C         45.15407        27.30544        -0.08708
C         43.97103        26.69871        -0.79933
C         45.22708        28.81999        -0.41628
C         44.05183        29.49802        -0.41375
C         45.34696        31.52893         0.21332
C         44.01144        31.01338        -0.41710
C         45.31734        33.04268         0.31893
C         44.14041        33.69056         0.52270
C         45.32771        35.95190         0.54819
C         44.07185        35.16716         0.23117
C         45.28460        37.28086         0.83724
C         44.00930        38.05115         1.14099
C         45.25206        40.26278         1.13796
C         44.07126        39.49317         0.53350
C         45.36218        41.67166         0.59853
C         44.06008        42.46412         0.57925
C         45.50022        44.38472        -0.40293
C         44.15794        43.61369        -0.44747
C         45.53135        45.89949        -0.73997
C         44.26928        46.72171        -0.83078
C         44.20256        47.81108        -1.86906
C         47.56450        27.36302        -0.53662
C         46.50091        26.75415        -0.43283
C         47.84437        28.76073        -0.88484
C         46.52762        29.51408        -0.74360
C         47.86147        31.62824        -0.09060
C         46.54457        31.04383        -0.63971
C         47.88315        33.16010        -0.05964
C         46.62602        33.74198         0.66778
C         47.78567        35.96448         0.44887
C         46.61717        35.25567         0.50307
C         47.74864        37.46801         0.45729
C         46.56323        37.97966         1.28463
C         47.77859        40.19771         1.48050
C         46.56409        39.46677         0.88756
C         47.88990        41.59924         0.84133
C         46.57321        42.33774         0.60792
C         47.91495        44.42769         0.45137
C         46.67860        43.72472         0.22827
C         47.80149        45.80173         0.04413
C         46.79261        46.46546        -0.23886
C         50.04447        29.51519        -1.98261
C         49.21294        29.38787        -0.70147
C         50.46733        31.68695        -0.23062
C         49.15700        30.88652        -0.21672
C         50.49482        33.14138         0.19155
C         49.17360        33.83740         0.53875
C         50.27748        36.13070        -0.25751
C         49.07667        35.30118         0.09537
C         50.26023        37.56059         0.17568
C         49.08087        38.16013         0.68214
C         50.32947        40.16210         1.65612
C         49.06714        39.46969         1.18892
C         50.21487        41.65720         1.85312
C         48.92468        42.41539         1.62871
C         50.31640        44.33066         1.33750
C         49.05046        43.81657         0.98267
C         51.18342        30.07960        -1.85963
C         52.67423        32.08511        -1.04564
C         51.59947        31.18222        -1.11731
C         52.85274        33.12357        -0.36353
C         51.78821        34.05799         0.16494
C         52.67538        36.37491        -0.41971
C         51.62945        35.33503        -0.65988
C         52.61193        37.59904        -0.32458
C         51.46690        38.43127         0.04835
C         52.65788        40.59688         1.11657
C         51.50809        39.77258         0.70591
C         52.62368        41.73825         1.59774
C         51.50114        42.40178         2.36517
C         51.24343        43.83485         2.01175
O         43.05646        31.83568         1.75630
O         44.02742        35.17767        -1.31654
O         48.44863        30.98282         1.05834
O         50.82202        32.05792         1.13950
O         33.13852        31.44649        -0.37133
O         33.04049        33.11581         2.81933
O         32.10115        42.00426        -1.64188
O         37.72252        27.54740         0.88795
O         40.97080        35.67480         2.20640
O         49.31844        35.71758        -1.29410
O         51.20543        39.69127        -0.68246
O         33.04531        40.30121         1.55271
O         36.99896        37.86997         2.08551
O         47.09071        29.12745        -2.06188
O         47.29316        37.98151        -0.89850
O         38.76877        46.70194         0.00480
O         40.66083        44.51412         0.65171
O         41.42387        39.42816        -1.13317
O         45.78697        44.92827        -1.75731
O         31.65378        37.89599         1.78818
O         34.97588        41.35692        -1.82879
H         35.79511        40.88869        -2.13056
O         43.90824        42.97197         1.91792
H         43.96010        42.20293         2.53014
O         42.52136        28.56616         1.22328
H         43.34773        28.15535         1.58813
O         34.76918        29.75767        -1.61522
H         35.33661        29.44543        -2.34871
O         36.67856        33.74925         2.53750
H         35.89554        34.18375         2.94390
O         40.40572        45.35815        -2.99796
H         41.24681        44.87871        -3.18421
O         45.02672        40.39152         2.55261
H         45.85781        40.74980         2.96105
O         41.53843        38.41825         2.50021
H         41.24884        37.60874         2.97797
O         43.81999        31.58906        -1.73036
H         44.62963        31.40611        -2.26799
O         37.54835        33.30514        -0.98508
H         36.90547        34.03658        -1.14583
O         49.87996        28.61954         0.26796
H         50.77591        28.98379         0.42159
O         38.17126        31.50535         2.17675
H         37.35555        31.69553         2.70023
O         39.07740        43.29372        -2.45168
H         39.94067        42.85076        -2.63734
O         34.51360        28.79936         1.85247
H         33.87073        29.00507         2.56205
O         40.39364        26.79625         0.66710
H         41.06040        27.34160         1.15971
O         34.08963        42.61407         1.46891
H         33.31007        43.09293         1.81898
O         45.53984        30.92018         1.49090
H         44.84544        31.27027         2.09932
O         44.11727        42.93412        -1.70337
H         44.25576        43.60716        -2.41182
O         31.44829        39.26880        -1.61303
H         31.47058        40.14775        -2.06472
O         42.69661        37.41395        -0.83346
H         43.22919        36.67632        -1.23427
O         41.69595        29.90099        -2.08160
H         40.87368        30.33066        -2.40757
O         34.19295        38.16280         2.34975
H         34.11232        37.23213         2.68873
O         38.78272        31.04762        -1.43903
H         38.37851        31.92491        -1.65630
O         48.43285        41.34118        -0.49618
H         48.54335        42.19434        -0.97291
O         32.72012        35.87398        -1.03582
H         31.82878        36.12112        -1.37431
O         35.25471        35.52825        -1.12338
H         34.34362        35.58601        -1.50865
O         49.16774        33.87811         1.97883
H         49.54083        33.01498         2.28279
O         41.39691        27.32281        -2.82266
H         42.26971        27.25179        -3.26411
O         42.91964        34.33796        -1.72278
H         43.33113        33.43151        -1.84523
O         40.41074        38.50044        -1.58834
H         40.93993        37.66186        -1.67209
O         48.33652        42.72886         2.91895
H         49.01237        43.20604         3.44789
O         46.81090        39.35571        -0.59531
H         47.57186        40.00523        -0.84974
O         44.38647        39.36734        -0.87015
H         43.59852        38.95707        -1.30837
O         40.33310        40.65374         2.18560
H         39.46653        41.04900         2.45255
O         50.71476        39.58287         2.95676
H         49.96172        39.73166         3.56902
O         52.02577        34.44526         1.49999
H         52.12424        33.63352         2.04207
O         47.86514        33.61715        -1.41889
H         47.17261        33.12161        -1.91880
O         51.67464        42.23169         3.75042
H         51.85867        41.28057         3.91453
O         47.60215        40.31242         2.90619
H         47.50680        39.38560         3.24550
O         37.80125        44.40755         0.80911
H         38.50871        44.99219         1.16580
O         37.72742        40.97642        -1.72695
H         37.96842        41.71969        -2.34369
O         36.58082        43.48639        -2.47819
H         35.75862        42.99481        -2.71250
O         35.32109        31.46787         2.53171
H         34.55397        32.00548         2.88906
O         37.61340        40.98943         1.94817
H         37.23947        40.31413         2.55677
O         46.72588        37.80863         2.69047
H         45.80987        37.82359         3.07555
O         44.06536        47.31833         0.42451
H         43.26866        47.88647         0.38615
O         46.64551        33.48462         2.08811
H         47.52355        33.76489         2.44942
O         43.31333        45.24220        -2.60382
H         43.32387        46.00093        -3.23883
O         46.40301        31.53103        -2.00072
H         46.84557        30.85713        -2.58077
O         39.48547        29.26814         1.63845
H         39.11409        28.39661         1.91806
O         34.03236        35.48681         2.39214
H         33.57361        34.69762         2.84433
O         44.92362        27.20342         1.33055
H         44.97541        26.25785         1.58519
O         41.92194        47.29713        -3.85908
H         41.06158        46.86273        -4.06698
O         51.55547        34.95916        -2.00879
H         51.39527        35.74988        -2.56312
O         38.74063        27.23156        -2.60418
H         39.55294        27.02933        -3.12422
O         43.11024        45.15309         1.04310
H         42.21708        45.29798         1.42964
O         41.64724        42.06957        -1.75658
H         41.67314        41.08760        -1.88357
O         44.03005        38.08022         2.58208
H         43.21327        38.55496         2.89272
O         31.37168        30.47433         2.72378
H         30.49859        30.13544         3.00721
