         576
 CSIRO Nanostructure Databank - Neutral Graphene Oxide Data Set
C          5.90403        18.71552         0.90531
C          5.92487        20.06996         0.52069
C          4.79052        20.69851        -0.11200
C          6.01746        22.80674        -0.37656
C          4.83558        21.99661        -0.54104
C          6.08105        24.13952        -0.78410
C          8.36809        14.56689         1.70252
C          8.28025        15.93408         1.88815
C          7.09101        16.65225         1.54337
C          8.20601        18.85380         1.84896
C          7.02711        18.04348         1.46453
C          8.26174        20.27116         1.39546
C          7.10586        20.85840         0.68035
C          8.33965        22.98919         0.46633
C          7.15826        22.19253         0.25687
C          8.39577        24.29983         0.03675
C          7.26360        24.92842        -0.61581
C          8.47249        27.10556        -0.86939
C          7.31515        26.27060        -1.03243
C          8.51222        28.45300        -1.15422
C         10.83240        10.27444         1.17540
C         10.80926        11.69371         1.44921
C          9.63438        12.41417         1.54586
C         10.80534        14.53959         1.96271
C          9.62292        13.84821         1.76622
C         10.80213        15.92791         2.55605
C          9.47702        16.67961         2.37949
C         10.76385        18.94814         2.18710
C          9.48581        18.17759         2.25303
C         10.79626        20.25988         1.80748
C          9.61242        20.87479         1.08049
C         10.74320        23.15704         1.42212
C          9.48796        22.37993         1.19551
C         10.82031        24.50977         0.85589
C          9.68677        25.02056         0.07007
C         10.95166        27.23446        -0.21242
C          9.72500        26.43634        -0.43598
C         11.00508        28.53536        -0.76142
C          9.69274        29.30806        -0.71355
C         10.74453        31.34358        -1.94375
C          9.73612        30.73973        -1.23035
C         11.13174        32.70615        -1.98478
C         13.30269         6.09605         0.23161
C         13.23071         7.54075         0.37646
C         12.06008         8.17702         0.73098
C         13.33398        10.30274         1.16308
C         12.01079         9.59401         0.97152
C         13.23030        11.80132         1.04746
C         12.07468        12.41977         1.41938
C         13.29393        14.63915         1.53339
C         12.11842        13.81131         2.00351
C         13.25887        16.10630         1.69837
C         11.98477        16.78815         2.08799
C         13.30548        18.95368         2.21398
C         12.03289        18.22374         2.62193
C         13.29692        20.34098         2.12119
C         12.03221        21.05122         1.90690
C         13.19209        23.26487         1.91155
C         11.99815        22.41882         1.70228
C         13.21513        24.63671         1.39466
C         12.03981        25.21490         0.86902
C         13.36344        27.12576         0.06836
C         12.09792        26.55476         0.28996
C         13.37231        28.15045        -0.86591
C         12.29753        29.04077        -1.12801
C         13.92243        30.94547        -2.12108
C         12.61293        30.16198        -1.96848
C         13.74434        32.49305        -2.06984
C         12.45564        33.22897        -2.21410
C         13.70968        35.45234        -2.25864
C         12.47407        34.61415        -2.38985
C         13.75974        36.73724        -3.06323
C         15.53484         6.23124        -0.89040
C         14.38383         5.47480        -0.28375
C         15.58306         7.67751        -0.44077
C         14.44474         8.31107         0.11459
C         15.63843        10.44702         0.12463
C         14.47557         9.68771         0.39831
C         15.67785        11.86981         0.36502
C         14.38064        12.62112         0.51865
C         15.71025        14.68981         1.15521
C         14.46918        14.01502         1.11972
C         15.78571        16.05249         1.73048
C         14.53490        16.83890         1.87259
C         15.85661        18.93456         2.32863
C         14.54458        18.19898         2.10155
C         15.76293        20.41962         2.06423
C         14.56281        21.08148         2.07826
C         15.75198        23.36253         1.94373
C         14.51866        22.56897         2.15562
C         15.74089        24.71652         1.75693
C         14.44565        25.48633         1.63416
C         15.72966        27.56894         0.99407
C         14.67837        26.51446         0.50880
C         16.16770        28.61023        -0.02637
C         15.29240        29.15392        -0.99683
C         16.12744        31.43063        -0.72795
C         15.03641        30.50098        -1.20223
C         16.19508        32.67532        -1.56841
C         14.92925        33.22857        -2.01105
C         16.16749        35.46795        -2.27918
C         14.94429        34.62998        -2.59354
C         16.21972        36.80516        -2.92964
C         14.93517        37.35723        -3.33585
C         18.02684         6.24433        -0.95839
C         16.87809         5.55964        -0.69163
C         17.91691         7.70877        -1.36683
C         16.75470         8.41285        -0.67759
C         17.92938        10.62693        -0.84578
C         16.78487         9.79553        -0.40519
C         18.03232        12.02888        -0.36893
C         16.86433        12.59152         0.24442
C         18.23630        14.74877         0.57443
C         16.92736        13.95078         0.82775
C         18.12118        16.22502         0.67702
C         17.08423        16.83800         1.56379
C         18.22003        19.03735         1.42306
C         17.06582        18.31905         1.64136
C         18.29613        20.47709         1.59570
C         17.05640        21.15171         2.07419
C         18.23419        23.38239         1.66574
C         17.03116        22.64581         2.03653
C         18.23730        24.76921         1.81105
C         16.97766        25.50435         1.75455
C         18.19817        27.68264         1.84020
C         16.98881        26.86995         1.50524
C         18.33062        29.11581         1.30835
C         17.27042        29.52477         0.32213
C         18.79068        31.30359        -0.85344
C         17.42660        30.56677        -0.79884
C         18.64862        32.79977        -1.08536
C         17.40802        33.35700        -1.57455
C         18.73501        35.40736        -2.36046
C         17.43163        34.80416        -1.90309
C         18.66335        36.91026        -2.53101
C         17.41333        37.48378        -2.99196
C         20.50951         6.27199        -1.24950
C         19.32977         5.61794        -0.93512
C         20.45235         7.70994        -1.73738
C         19.24843         8.41798        -1.05920
C         20.43113        10.66420        -1.48399
C         19.14932         9.90391        -1.36774
C         20.39677        12.13410        -1.18751
C         19.20003        12.79274        -0.60063
C         20.45074        14.99986        -0.56302
C         19.30353        14.17243        -0.24483
C         20.51785        16.35310        -0.22558
C         19.32924        17.04106         0.30272
C         20.76873        19.08078         0.97881
C         19.47492        18.33542         1.03398
C         20.73888        20.55998         1.10926
C         19.45281        21.19563         1.34228
C         20.70794        23.42627         1.33356
C         19.42088        22.68853         1.10733
C         20.73061        24.77509         1.64808
C         19.48007        25.44578         1.88688
C         20.79674        27.45644         2.40758
C         19.47252        26.85325         2.23042
C         20.76901        29.57028         1.93342
C         19.62013        29.88426         1.17916
C         20.97656        31.65787         0.19729
C         19.74332        30.97213         0.28140
C         21.12744        32.87183        -0.70406
C         19.81150        33.56338        -1.02018
C         20.97230        35.72955        -1.28962
C         19.86951        34.92333        -1.49508
C         21.01887        37.08912        -1.79572
C         19.80654        37.65193        -2.36012
C         22.98638         6.33756        -1.29281
C         21.78419         5.63981        -1.13826
C         22.96974         7.78605        -1.47540
C         21.76073         8.44841        -1.55024
C         22.92617        10.67923        -1.77579
C         21.72996         9.91310        -1.19658
C         22.97078        12.07130        -1.14374
C         21.69958        12.80728        -0.88926
C         22.99271        15.02050        -1.08145
C         21.67912        14.30037        -1.03578
C         22.99924        16.50022        -0.85895
C         21.72711        17.19038        -0.44289
C         23.08729        19.21850         0.13010
C         21.90533        18.51118         0.21466
C         23.22597        20.50919         0.93055
C         21.90706        21.26014         0.96204
C         23.22323        23.34715         1.44140
C         21.94910        22.76224         0.82057
C         23.20662        24.87145         1.41895
C         22.01116        25.51649         1.66447
C         23.29829        27.66780         2.37088
C         21.99745        26.92666         2.03121
C         23.25560        29.21742         2.10100
C         22.05940        29.96224         1.56913
C         23.42709        31.80170         0.54497
C         22.14121        31.10061         0.74158
C         23.33766        33.27266         0.35859
C         22.19988        33.80788        -0.16562
C         23.31213        36.12462        -0.28712
C         22.07055        35.25879        -0.41608
C         23.40873        37.32476        -1.14801
C         22.19827        37.82660        -1.73506
C         25.47004         6.37041        -1.18831
C         24.24651         5.71204        -1.05860
C         25.46524         7.77685        -1.56012
C         24.25499         8.48982        -1.56034
C         25.42389        10.66828        -1.80860
C         24.24778         9.93712        -1.68010
C         25.44874        12.15212        -1.77463
C         24.19290        12.88234        -1.42612
C         25.53566        14.97782        -1.03031
C         24.25991        14.22856        -0.73298
C         25.55848        16.40537        -0.61976
C         24.27561        17.15330        -0.46597
C         25.48852        19.33814        -0.58153
C         24.29975        18.62722        -0.39547
C         25.43977        20.77837        -0.34365
C         24.37791        21.37762         0.45758
C         25.40803        23.67096         0.10432
C         24.40344        22.71799         0.73229
C         25.59835        24.93821         0.89861
C         24.47611        25.59901         1.38455
C         25.76508        27.69296         1.62846
C         24.53906        27.00513         1.74394
C         25.83114        29.12063         1.77201
C         24.56449        29.88290         1.86430
C         25.79550        32.05709         1.58268
C         24.63591        31.19853         1.15168
C         25.82900        33.36600         0.84005
C         24.55051        34.05906         0.67361
C         25.88083        36.09962        -0.12195
C         24.57318        35.52016         0.25744
C         25.87994        37.35674        -0.84493
C         24.64375        37.91687        -1.33993
C         27.93668         5.74490        -1.22395
C         26.65722         5.62228        -0.74626
C         28.02257         7.88038        -1.97760
C         26.67201         8.51666        -2.15265
C         27.86685        10.70840        -1.67539
C         26.68890         9.99697        -1.83779
C         27.91715        12.15430        -1.57249
C         26.72656        12.87244        -1.59224
C         27.95542        15.06471        -1.46352
C         26.68515        14.30091        -1.35274
C         28.00302        16.33087        -0.61702
C         26.77659        17.20631        -0.78079
C         28.04387        19.28512        -0.86013
C         26.75580        18.59739        -0.80671
C         28.19798        20.61391        -1.19797
C         26.40145        21.65681        -0.83181
C         27.96290        23.53362        -0.31271
C         26.68525        22.96805        -0.31364
C         28.01342        25.03196         0.03243
C         26.99231        25.46786         1.11745
C         28.19885        27.64398         1.23987
C         27.00424        26.97968         1.29127
C         28.28804        29.06227         1.67615
C         27.03553        29.85655         1.69169
C         28.29941        32.01185         1.41330
C         27.08797        31.27353         1.54996
C         28.31812        33.37901         1.07383
C         27.04590        34.21156         1.08683
C         28.33003        36.07720        -0.08737
C         27.06486        35.46650         0.22676
C         28.33980        37.41256        -0.67799
C         27.08931        38.00549        -1.05051
C         30.39936         5.71035        -0.92953
C         29.14606         5.22477        -0.61465
C         30.46038         7.88980        -1.51621
C         29.16351         8.53616        -1.61280
C         30.34224        10.70858        -0.96990
C         29.08009         9.97054        -1.27847
C         30.39314        12.14459        -1.31588
C         29.21545        12.82725        -1.53377
C         30.52973        15.02263        -1.49722
C         29.22571        14.30555        -1.67547
C         30.56560        16.38582        -0.95863
C         29.31683        17.07920        -0.60246
C         30.57019        19.30068        -0.84093
C         29.30905        18.57594        -0.60200
C         30.59059        20.68326        -0.76951
C         29.33272        21.43053        -0.84685
C         30.49421        23.56724        -0.57943
C         29.20537        22.81208        -0.60182
C         30.51380        24.96078        -0.07176
C         29.39487        25.57525         0.37545
C         30.70947        27.71821         0.80645
C         29.50033        26.86950         1.17237
C         30.77950        29.09606         1.12179
C         29.59663        29.79286         1.70478
C         30.83489        32.03069         1.42085
C         29.57426        31.33652         1.91228
C         30.77416        33.42392         0.95354
C         29.55437        34.08869         0.82360
C         30.79382        36.06728        -0.10838
C         29.52110        35.43743         0.27213
C         30.81718        37.48123        -0.71009
C         29.52218        38.12871        -0.84627
C         32.74662         6.30994        -0.31059
C         31.66208         5.46724        -0.26473
C         32.81179         7.71537        -0.69202
C         31.58630         8.46312        -0.97314
C         32.92730        10.61356        -0.73918
C         31.60441         9.92715        -0.73099
C         33.00866        12.01101        -1.25956
C         31.73486        12.76162        -1.54386
C         33.02856        14.92018        -1.00592
C         31.82259        14.25560        -1.53460
C         33.00408        16.28264        -0.82319
C         31.77333        17.03845        -0.84383
C         33.02414        19.18590        -0.36266
C         31.85616        18.53842        -1.05313
C         32.99411        20.63161        -0.19070
C         31.84755        21.35240        -0.51003
C         33.04738        23.52273        -0.00482
C         31.83644        22.82657        -0.53022
C         33.03695        24.87562         0.17438
C         31.83116        25.68809        -0.23368
C         33.10280        27.74401         0.28152
C         31.86980        27.07254         0.34797
C         33.15627        29.11445         0.53288
C         31.97807        29.79597         0.89005
C         33.04693        31.98515         0.10751
C         32.05170        31.26820         1.01327
C         33.32468        33.39899         0.61369
C         32.07877        34.11641         0.87464
C         33.33322        36.24405         0.15319
C         32.05913        35.60146         0.50226
C         33.26260        37.62680        -0.28209
C         32.08804        38.23061        -0.60666
C         34.03089         8.38607        -0.58960
C         35.36031        10.51891        -0.62537
C         34.17730         9.81352        -0.72534
C         35.40585        11.98177        -0.64325
C         34.27504        12.72652        -1.01578
C         35.49446        14.85909        -0.47585
C         34.35635        14.21775        -1.22184
C         35.48691        16.24768        -0.29419
C         34.30030        17.05826        -0.80187
C         35.33995        19.08393         0.39948
C         34.15421        18.43524        -0.17128
C         35.37779        20.55679         0.39805
C         34.23644        21.31198         0.15313
C         35.43688        23.43251         0.62100
C         34.25620        22.75387         0.26793
C         35.50340        24.84957         0.72563
C         34.22701        25.63812         0.71017
C         35.63731        27.72875         0.39866
C         34.37380        26.98856        -0.02462
C         35.68085        29.13576         0.33369
C         34.40314        29.83807         0.26166
C         36.14106        32.21245         0.32496
C         34.26812        31.14695        -0.10724
C         35.85141        33.51391         0.75541
C         34.54064        34.12153         0.59247
C         34.49892        35.56126         0.44178
C         36.60360        12.67158        -0.29632
C         37.83119        14.76244         0.28566
C         36.65347        14.08673        -0.14719
C         37.85615        16.15971         0.42094
C         36.65298        16.88263         0.17197
C         37.92458        19.07567         0.47597
C         36.61654        18.31186         0.54256
C         37.81750        20.41261         1.23556
C         36.68021        21.19904         0.60123
C         37.87844        23.31424         1.37820
C         36.70204        22.68898         0.71409
C         37.91909        24.81576         1.35232
C         36.71119        25.54124         0.89196
C         38.04926        27.63677         0.92832
C         36.78205        26.96643         0.74092
C         38.07369        29.05154         0.87364
C         36.92963        29.83375         0.61190
C         37.05079        31.25748         0.80122
C         39.05795        16.88197         0.83030
C         40.32856        19.00938         1.15910
C         39.12383        18.25447         0.89838
C         40.35167        20.39263         1.24486
C         39.12506        21.17749         1.21858
C         40.37351        23.27374         1.84791
C         39.13758        22.53318         1.39205
C         40.39789        24.72649         1.41995
C         39.24396        25.48352         1.30634
C         39.24020        26.89644         1.12646
C         41.59550        21.14887         1.34034
C         41.62193        22.48446         1.54913
O         17.24380        21.90677         3.32657
O         28.09492         6.54421        -2.38595
O         18.54157        27.38625         3.22370
O         16.65218        35.53576        -0.89451
O         18.16285        10.37134        -2.30070
O          7.94927        19.97300         2.78106
O         20.42330        18.26826         2.16530
O         30.52276         6.58397        -2.02567
O         35.77075        18.50472         1.73536
O         17.22892        29.99650         1.72652
O          9.24857        17.51526         3.55630
O         30.94602        36.26356        -1.54818
O         16.77690        16.20339         2.83423
O         24.43857        31.10478        -0.28725
O         12.30018        16.72682         0.67917
O         31.30287        23.36772        -1.80081
O         24.90285        16.56242         0.73457
O         23.93171        29.94302         3.19143
O         17.99842        14.06642         1.82974
O         22.29924        14.68147        -2.31037
O         34.53370        17.29458        -2.20076
O         22.22946        17.22719        -1.84030
O         10.09198        25.32507        -1.34537
O         32.47492        12.12563        -2.63855
O         20.37221        11.63142        -2.56112
O         28.50649        14.95729        -2.79523
O         31.31444        14.89358        -2.74299
O         29.41216        17.81492         0.68094
O         29.10683        29.13058         2.92483
O         35.31588        31.78681        -0.75508
O         24.42412        35.18467         1.67389
O          9.71710        22.95658         2.50659
O         20.71108        28.70101         3.02891
O         22.26195        36.16433         0.72268
O         14.48069        28.24435        -1.69408
O         24.59492        12.83036        -2.81328
O         13.74338        23.09878         3.28525
O         32.06122        35.19457         1.88713
O         37.10046        22.02869        -0.53868
O         18.16221        16.94924        -0.59046
O         22.46300        12.24231         0.21444
O         37.62634        24.05910         2.61066
O         27.17686        21.23626        -1.91617
O         11.62988        30.57190        -2.79016
O         19.50112        30.82951        -2.00734
O         32.20983        10.40951         0.52727
O         31.97148        31.80734         2.36061
O         29.39953        10.35463         0.11400
O         29.76016        26.45271         2.55245
H         29.71278        27.27728         3.09705
O         17.59755         7.74870        -2.77749
H         18.43876         7.68484        -3.29238
O         31.95469        25.91308        -1.68823
H         31.83452        25.02227        -2.11593
O         27.44441        24.85208         2.35808
H         27.12693        25.39133         3.11203
O         18.94694        34.84785        -3.69787
H         19.89153        34.96579        -3.93230
O         15.10394        28.34327         2.03258
H         15.74837        29.03761         2.32085
O         22.02193        23.04825        -0.61571
H         21.12996        22.83288        -0.98643
O         24.26233        13.97050         0.68828
H         24.52762        14.80980         1.14085
O         14.35471        30.65662        -3.49565
H         15.30917        30.42278        -3.46836
O         21.61219        32.39967        -1.99056
H         20.93087        31.70961        -2.26713
O         13.69475        10.08751         2.57952
H         13.06948        10.61223         3.12573
O         27.61735        25.74611        -1.16817
H         28.10777        25.37583        -1.93160
O         23.49598        27.49233         3.79265
H         23.83223        28.35347         4.14375
O         15.29449         6.24186        -2.33412
H         16.02086         6.78115        -2.74231
O          9.82232        20.57710        -0.33193
H         10.71554        20.88582        -0.59187
O         14.19289        26.16404         2.88484
H         14.07623        25.47249         3.57247
O         26.44569         8.43883        -3.60576
H         26.61854         7.50845        -3.87010
O         13.78278        35.80914        -0.84809
H         13.05800        36.43748        -0.65046
O         17.30967        29.85429        -2.05488
H         18.21929        29.96298        -2.48210
O         22.69213        10.83279        -3.19098
H         23.32269        11.51529        -3.52557
O         20.21396         7.69721        -3.17879
H         21.05552         7.47652        -3.63086
O         14.01196        12.88452        -0.89015
H         13.20949        13.45056        -0.88758
O         32.37096        32.15322        -1.17858
H         33.04240        32.44493        -1.83245
O         10.97869        15.71329         3.98345
H         10.72399        16.56001         4.42913
O         12.41589        13.53244         3.42535
H         12.01361        14.26371         3.96100
O         40.26670        23.34516         3.31525
H         39.34282        23.63864         3.50981
O         19.23461        22.75657        -0.40880
H         18.93160        23.66862        -0.61615
O         38.09891        19.38114        -0.92852
H         38.84039        20.01515        -1.02292
O         23.21746        22.94903         2.83093
H         24.05826        23.23466         3.24363
O         27.85861        15.76640         0.72508
H         28.07783        16.48964         1.35795
O         21.79105         9.86932         0.26705
H         22.69840         9.61359         0.53869
O         25.56258        32.39983         2.97878
H         26.24257        33.07413         3.23055
O         24.75578        24.09092        -1.14845
H         23.79477        23.86691        -1.09261
O         14.93172        34.44925        -4.03384
H         15.67543        33.86143        -4.28289
O         15.23804        25.78841        -0.60530
H         15.23887        26.39551        -1.38139
O         19.44131         8.30633         0.36809
H         20.27809         8.77878         0.60645
O         29.51737        31.57676         3.33449
H         30.42496        31.44366         3.68827
O         32.15978        18.62666        -2.48504
H         33.04987        18.16643        -2.60658
O          9.48583        29.46300         0.73877
H          8.59613        29.85169         0.87671
O         34.67294        14.48224        -2.62978
H         34.65216        15.48110        -2.72886
O         33.94322        25.98377         2.10101
H         33.93666        25.15832         2.62963
O         34.51158        26.77423        -1.44124
H         33.62109        26.50631        -1.79405
O         15.83144        31.86583         0.61595
H         16.36206        32.66409         0.81916
O         23.53478        20.10824         2.29315
H         22.76108        19.62816         2.65835
O         26.94845        34.69589         2.48777
H         26.06885        35.15480         2.54497
O         16.14391        18.80928         3.75568
H         16.40619        17.87042         3.91287
O         37.54110        20.20725         2.63297
H         36.78338        19.57254         2.70324
O         12.06109        18.14815         4.07054
H         12.08782        19.06193         4.42580
H          5.00040        18.12366         0.69219
H          3.87315        20.10694        -0.24764
H          3.95401        22.44758        -1.01999
H          5.20289        24.59985        -1.26189
H          7.47081        14.01242         1.38762
H          6.22192        16.06486         1.20823
H          6.40932        26.71905        -1.46854
H          7.60320        28.96130        -1.51234
H          9.87254         9.73929         1.10542
H          8.66758        11.89738         1.45470
H          9.13726        31.43536        -0.61928
H         10.34381        33.45692        -1.81440
H         12.44288         5.50549         0.58428
H         11.13155         7.59313         0.82875
H         11.50591        35.14221        -2.41151
H         12.81134        37.20272        -3.37522
H         14.39741         4.37740        -0.36947
H         14.93438        38.31961        -3.87160
H         16.91314         4.48525        -0.44811
H         17.42885        38.52173        -3.36166
H         19.37587         4.55474        -0.64648
H         19.79576        38.73122        -2.57935
H         21.81945         4.57830        -0.84744
H         22.22856        38.81929        -2.20994
H         24.24817         4.64915        -0.77320
H         24.70909        38.83274        -1.94673
H         26.47952         4.89154         0.05856
H         27.10170        38.98537        -1.55006
H         29.03363         4.55202         0.24755
H         29.47926        39.19559        -1.11158
H         33.67496         5.92543         0.14464
H         31.77616         4.51643         0.27990
H         34.19726        38.20727        -0.30048
H         32.07306        39.30186        -0.85655
H         34.93642         7.79720        -0.37369
H         36.31253         9.98061        -0.50312
H         36.60429        34.08982         1.31521
H         35.46333        36.07989         0.32880
H         37.51039        12.08408        -0.08475
H         38.73281        14.17438         0.51347
H         39.02923        29.56395         1.06129
H         37.87611        31.60304         1.44303
H         39.95334        16.28498         1.06588
H         41.27706        18.45663         1.25150
H         41.37176        25.24130         1.40457
H         40.19858        27.43650         1.16081
H         42.53949        20.59770         1.20727
H         42.58739        23.01002         1.60741
