         272
 CSIRO Nanostructure Databank - Neutral Graphene Oxide Data Set
C        -11.33883         0.72501         0.47532
C        -10.24839         1.47089        -0.18438
C         -8.99115         0.65658        -0.47145
C         -7.72729         1.39783        -0.82051
C         -6.42879         0.67847        -0.78095
C         -5.12969         1.41550        -1.04386
C         -3.82745         0.69469        -0.91770
C         -2.50756         1.39034        -1.12815
C         -1.22081         0.61630        -1.13104
C          0.09671         1.37090        -1.26152
C          1.37268         0.58434        -1.04827
C          2.64683         1.39971        -1.01134
C          3.81983         0.77256        -0.30829
C          5.07760         1.56421        -0.17934
C          6.33620         0.86284         0.23518
C          7.60167         1.61530         0.02724
C          8.84736         0.87810        -0.26228
C         10.10674         1.48790         0.33170
C         11.31938         0.72698        -0.16285
C        -10.11633         2.96121        -0.17615
C         -8.94734         3.61871        -0.38373
C         -7.66534         2.86255        -0.46721
C         -6.34124         3.56930        -0.43903
C         -5.18117         2.93651        -1.25613
C         -3.82942         3.59852        -0.88025
C         -2.51739         2.85680        -0.81961
C         -1.15695         3.53974        -0.58489
C          0.07476         2.87741        -1.23246
C          1.35502         3.67907        -1.09882
C          2.65278         2.89975        -1.10297
C          3.91547         3.71294        -0.86085
C          5.22144         2.97138        -0.70003
C          6.45629         3.72256        -0.29550
C          7.56781         3.05156         0.49334
C          8.90218         3.74329         0.24550
C         10.06010         2.98144         0.08317
C         -8.92998         5.10572        -0.73831
C         -7.61782         5.83928        -0.47986
C         -6.33524         5.08438        -0.13586
C         -5.09198         5.80324        -0.67931
C         -3.81236         5.09790        -0.97175
C         -2.48523         5.81259        -0.86810
C         -1.20178         5.05201        -0.79360
C          0.01437         5.76463        -0.26132
C          1.32423         5.08970        -0.57985
C          2.53098         5.63743         0.17872
C          3.85328         5.13557        -0.40643
C          5.12007         5.83265         0.03812
C          6.35158         5.04597         0.41307
C          7.62483         5.87811         0.40645
C          8.85454         5.16294         0.22095
C         -7.58535         7.19053        -0.35649
C         -6.34505         7.88927         0.07562
C         -5.04785         7.17714        -0.08475
C         -3.74301         7.91307        -0.01069
C         -2.46961         7.21620        -0.31833
C         -1.21120         8.07484        -0.49581
C          0.00521         7.24619        -0.09350
C          1.32303         8.01998        -0.19357
C          2.49036         7.16506         0.35172
C          3.74312         7.93034         0.55964
C          5.06764         7.25180         0.45979
C          6.23837         7.83816         1.23014
C          7.54153         7.22242         0.72697
C         -6.23912         9.35407         0.31808
C         -5.06916        10.02302         0.29215
C         -3.74724         9.43284        -0.16582
C         -2.49285         9.97564         0.49863
C         -1.30649         9.34406         0.35904
C         -0.06970         9.81594         1.12499
C          1.26726         9.34460         0.56984
C          2.42457        10.01013         0.78116
C          3.74262         9.42968         0.27044
C          5.01636        10.03378         0.84308
C          6.12354         9.35235         1.18944
C        -11.33421        -0.63487         0.51423
C        -10.14558        -1.43892         0.23078
C         -8.94129        -0.74345        -0.05930
C         -7.64772        -1.37026         0.27281
C         -6.38133        -0.62551        -0.04171
C         -5.05012        -1.30385         0.12203
C         -3.77472        -0.62385        -0.21611
C         -2.56303        -1.48463        -0.48737
C         -1.23947        -0.75778        -0.51216
C          0.02968        -1.46847        -0.16091
C          1.35243        -0.82365        -0.49951
C          2.55178        -1.38325         0.25759
C          3.85909        -0.72521        -0.10238
C          5.13669        -1.41031         0.23984
C          6.38805        -0.60312         0.47501
C          7.76235        -1.30042         0.48636
C          8.70235        -0.63292        -0.56256
C         10.02973        -1.37262        -0.57803
C         11.26102        -0.58430        -0.49843
C        -10.13312        -2.83657         0.35922
C         -8.88127        -3.63257         0.35481
C         -7.59564        -2.87334         0.44889
C         -6.32233        -3.49948        -0.10585
C         -5.05975        -2.78412         0.42722
C         -3.77057        -3.53344         0.54091
C         -2.55982        -2.94484        -0.14245
C         -1.25038        -3.76180        -0.31727
C          0.07552        -2.97849        -0.06453
C          1.32965        -3.62542         0.48227
C          2.53553        -2.76866         0.87138
C          3.85550        -3.50750         1.13980
C          5.18243        -2.70807         1.03212
C          6.38035        -3.53163         0.49883
C          7.65660        -2.80616         0.21273
C          8.62214        -3.41309        -0.82032
C          9.97702        -2.72736        -0.69317
C         -8.85800        -5.03910        -0.26746
C         -7.55869        -5.80931        -0.04588
C         -6.28070        -5.03886        -0.12608
C         -4.99226        -5.76992         0.07914
C         -3.89484        -5.03885         0.82776
C         -2.53163        -5.77592         0.89004
C         -1.25675        -5.16277         0.36763
C          0.02164        -5.86606         0.72856
C          1.27671        -5.06075         0.95727
C          2.56655        -5.79297         1.21355
C          3.87902        -5.01885         1.12256
C          5.01788        -5.69944         0.38580
C          6.18583        -4.89217        -0.10621
C          7.41823        -5.59341        -0.57970
C          8.58267        -4.93052        -0.76521
C         -7.54518        -7.16294         0.08422
C         -6.31256        -7.96163         0.36192
C         -5.02500        -7.22449         0.47208
C         -3.67854        -7.96011         0.27357
C         -2.53914        -7.27041         1.06062
C         -1.25137        -8.05648         1.22819
C          0.02229        -7.28417         1.26787
C          1.29567        -8.04774         1.02862
C          2.59238        -7.30541         1.08701
C          3.87261        -7.99079         0.67400
C          5.12719        -7.20431         0.44336
C          6.38394        -7.89726        -0.12191
C          7.21927        -7.01620        -1.06405
C         -6.20897        -9.42667         0.15499
C         -5.03000       -10.09558         0.24218
C         -3.73257        -9.45923         0.47481
C         -2.57101       -10.15581         0.61964
C         -1.21765        -9.57745         1.02147
C         -0.02057        -9.94225         0.12779
C          1.16591        -9.29942         0.22507
C          2.40454        -9.63439        -0.58493
C          3.72338        -9.45441         0.24157
C          4.89922        -9.90454        -0.59808
C          6.02989        -9.21417        -0.78888
O         -9.99770         0.91483        -1.51712
O          1.10883        -3.51882        -0.95326
O         -4.67704         5.64037        -2.03723
O         -5.71795        -7.53062         1.68109
O         -3.34231         3.09026         0.38782
O          2.28552        -1.58870         1.67665
O          0.02138         2.18367        -2.48251
O         -4.38836        -2.90018         1.70841
O          8.18710         1.64026        -1.31421
O          6.25025         0.32072         1.58831
O          2.09761        -8.06594         2.25394
O          5.44884         6.90978        -0.90078
O         -6.79841         2.88508         0.74513
O         -4.25847        -0.56349         1.13456
O         -0.51764        -6.01127        -0.60757
O          1.75205        -5.28558         2.30629
O         -0.12985         6.37903         1.06122
O         -0.61366        -7.65563         2.50236
O         -8.14909        -3.46416         1.63932
O          7.50513        -3.57864         1.43791
O         -5.38837        -5.45076        -1.26098
O          2.88267         2.05465        -2.28164
O         -6.99442        -0.53134         1.29344
O          1.53488        -0.59072        -1.91305
O          1.41760         4.83528        -1.99709
O          2.91155         7.54073         1.70194
O         -2.58442        -6.40770         2.21591
O         -4.53974         0.71737        -2.19371
O          4.03435        -4.29740         2.36988
O          1.52522         8.27785        -1.56661
O         -6.20376         5.23679         1.27343
O          6.22693         4.52308         1.80132
O         -0.70233        -0.75202         0.86811
O          8.06845        -0.65939        -1.80680
O         -1.96722         0.83308        -2.35847
O         -1.66775         5.58054        -2.05776
O         -2.93788         7.32755         1.05901
O          4.83879        -7.75589         1.76038
O          3.94635         4.81603        -1.81186
O         -2.91093        -2.44454        -1.49513
O          4.62526        -1.46762        -1.11130
O          5.03336        -5.11916        -0.97048
O          7.11793         3.28950         1.86202
O         -7.19374         0.80652        -2.03699
O         -5.68568         7.13878         1.22999
O          4.09357         1.53193         0.91298
O          6.24874         3.37132        -1.66270
O         -3.33453        -7.75035        -1.06366
O         -1.07514         8.44831        -1.87217
H         -0.08658         8.49645        -2.07084
O          7.24801        -8.19421         0.99103
H          6.67392        -8.52423         1.72044
O         -9.25575         5.21322        -2.13448
H         -8.57607         4.74462        -2.66218
O          5.51737        -2.27179         2.35713
H          5.33489        -3.01878         2.97216
O          8.09477        -3.17367        -2.14748
H          8.08155        -2.18265        -2.32063
O          2.44390        -8.71294        -1.68324
H          3.18267        -8.96345        -2.27628
O          3.64890       -10.28168         1.41300
H          3.18779        -9.76156         2.11269
O         -5.48976         3.18188        -2.62799
H         -5.13330         2.43344        -3.16030
O          8.37737        -1.09626         1.76643
H          7.82402        -1.57170         2.42871
O         -6.35518        -3.08922        -1.50280
H         -5.71682        -3.66267        -1.99395
O          3.80056         9.61904        -1.15646
H          2.99295         9.17424        -1.55299
O         10.00262         1.29038         1.76979
H          9.56747         0.41598         1.93803
O         -0.93845       -10.20012         2.29926
H         -0.54826        -9.50473         2.88213
O          6.16803         7.44207         2.62479
H          6.22065         6.46035         2.68004
O         -1.24397        -4.01166        -1.72673
H         -0.46295        -4.57206        -1.93619
O         -9.04664        -4.86917        -1.68089
H         -8.23350        -4.46836        -2.05878
O         -3.67605         9.70374        -1.58913
H         -2.77792         9.44188        -1.91236
O          6.54208        -6.96496        -2.32523
H          6.78554        -6.13501        -2.78539
O         -4.49572        -5.14700         2.13812
H         -3.88728        -4.79169         2.81969
O          2.45489         5.03143         1.48761
H          2.55990         5.74728         2.15954
O         -0.19177         9.31865         2.47063
H         -0.18181         8.33794         2.44171
O         -0.84672         3.34788         0.81606
H         -1.65646         3.52869         1.34744
H         12.19832        -1.10679        -0.74931
H         12.29715         1.23181        -0.13191
H         10.97898         3.48837        -0.25793
H          9.79537         5.73398         0.16958
H          8.46975         7.81184         0.80853
H          6.99900         9.91384         1.55412
H          5.05039        11.13445         0.89106
H          2.42540        10.98022         1.30397
H         -0.07944        10.93304         1.19420
H         -2.56360        10.89565         1.10032
H         -5.07814        11.10215         0.51122
H         -7.16449         9.88509         0.58960
H         -8.49284         7.79408        -0.50693
H         -9.75072         5.62597        -0.18343
H        -11.05331         3.53943        -0.12311
H        -12.20355         1.28391         0.86189
H        -12.20763        -1.16548         0.92100
H        -11.08619        -3.36925         0.50397
H         -9.72429        -5.63616         0.11155
H         -8.50343        -7.70780         0.07057
H         -7.13575        -9.98355        -0.04973
H         -5.03497       -11.19075         0.12447
H         -2.62206       -11.25657         0.66183
H         -0.09766       -10.83943        -0.50655
H          2.34534       -10.68874        -0.96837
H          4.79314       -10.89466        -1.07133
H          6.82315        -9.65978        -1.40950
H          8.22659        -7.50564        -1.19385
H          9.45463        -5.47848        -1.15831
H         10.89954        -3.32886        -0.72636
