         349
 CSIRO Nanostructure Databank - Neutral Graphene Oxide Data Set
C          1.35665         2.45554         1.97974
C          1.30550         3.78990         1.57228
C          2.50455         1.68916         1.79743
C          2.41666         4.40574         0.93921
C          1.17142         6.52723         0.44646
C          1.07641         7.76307        -0.16783
C          2.35103         5.75632         0.41947
C          2.25010         8.44146        -0.71279
C          1.04080        10.79243        -0.51427
C          1.09617        12.11079        -0.14857
C          2.21900        10.00390        -0.88268
C          2.30840        12.87518        -0.11240
C          1.16761        15.02459         0.52459
C          1.16033        16.37572         0.53544
C          2.35241        14.25760         0.14800
C          2.33430        17.14425        -0.02306
C          2.39357        18.59738         0.36908
C          3.65785         2.26452         1.20366
C          3.59424         3.61456         0.76834
C          4.88550         1.52221         1.13825
C          4.78847         4.21502         0.15109
C          3.51365         6.27384        -0.41519
C          3.55545         7.78456        -0.55509
C          4.83573         5.72984         0.16128
C          4.77184         8.49991        -0.56887
C          3.55182        10.70052        -0.82874
C          3.56555        12.18937        -0.48851
C          4.76963         9.91897        -0.60404
C          4.84249        12.83552        -0.09524
C          3.60469        14.96972         0.10048
C          3.62351        16.39963         0.23067
C          4.83710        14.26082         0.08402
C          4.80768        17.08077         0.44384
C          3.52111        19.22296         0.72437
C          4.81607        18.49673         0.97020
C          6.09581         2.08983         0.73194
C          6.08487         3.45402         0.15875
C          7.34030         1.43272         0.86120
C          7.35324         4.21605         0.10748
C          6.05916         6.28797        -0.58154
C          6.07017         7.79560        -0.45782
C          7.34204         5.60618        -0.14114
C          7.26064         8.46966        -0.37465
C          5.96193        10.59580         0.03363
C          6.01631        12.10856        -0.04581
C          7.25892         9.98545        -0.51253
C          7.28101        12.79284         0.07412
C          6.07033        14.95101         0.23002
C          6.07108        16.39178         0.39637
C          7.28894        14.22900         0.16385
C          7.26308        17.11114         0.43528
C          6.06513        19.24931         0.60635
C          7.28362        18.57203         0.47161
C          8.56775         2.10003         0.61751
C          8.56443         3.52008         0.31960
C          9.80385         1.42650         0.70695
C          9.80058         4.21855         0.20490
C          8.55264         6.32636        -0.13110
C          8.54182         7.77703        -0.24006
C          9.78703         5.62684        -0.00600
C          9.74470         8.46661        -0.14078
C          8.48248        10.59260         0.19315
C          8.50390        12.10025         0.08746
C          9.78534         9.96320        -0.32266
C          9.74800        12.80231        -0.04646
C          8.53389        14.92282         0.18139
C          8.56087        16.37437         0.60093
C          9.73325        14.25177        -0.05763
C          9.73151        17.09937        -0.00988
C          8.51788        19.27467         0.38748
C          9.76156        18.61311        -0.00312
C         11.03671         2.09934         0.52706
C         11.03990         3.51528         0.30435
C         12.28545         1.41913         0.58266
C         12.27471         4.21223         0.16000
C         11.03256         6.32371        -0.10734
C         11.01511         7.78009        -0.14490
C         12.24205         5.62696        -0.02998
C         12.20965         8.48052        -0.20492
C         10.99520        10.66649         0.33537
C         10.97219        12.11560        -0.10552
C         12.29715         9.91965         0.07075
C         12.18922        12.78384        -0.59380
C         10.98927        14.98340        -0.13384
C         11.00812        16.34755        -0.01015
C         12.21896        14.30338        -0.70580
C         12.26451        17.09751         0.15303
C         11.08145        19.27413        -0.00611
C         12.27864        18.57512         0.00931
C         13.48885         2.09113         0.39301
C         13.51060         3.49269         0.17191
C         14.80238         1.35195         0.54198
C         14.77060         4.14971        -0.14568
C         13.51528         6.37818        -0.13058
C         13.41721         7.75917        -0.74408
C         14.80448         5.62797        -0.24701
C         14.72155         8.51390        -0.71439
C         13.57250        10.63094        -0.22644
C         13.49999        12.06496        -0.61908
C         14.77317         9.88439        -0.69258
C         14.78035        12.80108        -0.61071
C         13.54248        14.90186        -0.27298
C         13.56006        16.32740         0.05441
C         14.76218        14.22504        -0.45137
C         14.80978        17.07056        -0.10058
C         13.56241        19.21161         0.00295
C         14.78225        18.51270        -0.02067
C         15.94358         1.92591        -0.31747
C         15.91439         3.44016        -0.40665
C         17.26844         1.47607         0.24035
C         17.12914         4.10640        -0.94049
C         15.98065         6.28558        -0.87904
C         15.89956         7.74114        -1.14665
C         17.12361         5.58109        -1.13207
C         17.17706         8.51748        -1.40702
C         16.00421        10.63662        -0.87373
C         15.98639        12.09416        -0.73564
C         17.20098         9.95721        -1.09530
C         17.20814        12.82121        -0.81084
C         16.01986        14.92923        -0.36169
C         15.99838        16.34828        -0.22367
C         17.25499        14.21572        -0.55488
C         17.25806        17.05109         0.07471
C         16.04076        19.20474        -0.04744
C         17.25862        18.53127        -0.00405
C         18.46789         2.12570        -0.03330
C         18.45781         3.38938        -0.83408
C         19.68137         1.65538         0.49926
C         19.71223         4.19808        -0.93877
C         18.40992         6.25844        -1.45815
C         18.47144         7.76769        -1.49050
C         19.68157         5.54460        -1.17179
C         19.72745         8.46510        -0.96758
C         18.47123        10.64089        -1.16528
C         18.42230        12.11456        -1.25414
C         19.68692         9.96968        -1.19388
C         19.72966        12.87574        -1.31955
C         18.52953        14.89647        -0.48031
C         18.54439        16.27512         0.06433
C         19.74300        14.28758        -0.85774
C         19.86142        17.02989         0.19102
C         18.50918        19.19482        -0.09046
C         19.73903        18.52144        -0.10619
C         20.96657         2.13514         0.00080
C         20.99120         3.46024        -0.82128
C         22.19640         1.80421         0.71818
C         22.25966         4.20559        -0.85445
C         20.92117         6.28777        -1.57284
C         20.99502         7.77746        -1.45917
C         22.23413         5.52427        -1.52104
C         22.17426         8.47379        -1.51768
C         20.93305        10.70458        -1.24279
C         20.97197        12.08286        -1.25396
C         22.20783         9.92502        -1.14665
C         22.25211        12.81250        -1.60020
C         20.97653        15.00468        -0.90813
C         21.02918        16.38281        -0.52799
C         22.20926        14.33553        -1.37934
C         22.19981        17.12561        -0.51982
C         20.94858        19.22847        -0.16520
C         22.18248        18.52948        -0.17676
C         23.35417         2.50838         0.53986
C         23.40578         3.69851        -0.28331
C         24.54965         2.20254         1.40800
C         24.67059         4.53583        -0.21161
C         23.51402         6.29056        -1.68997
C         23.47379         7.80343        -1.80744
C         24.78565         5.57703        -1.31801
C         24.78379         8.55847        -1.71489
C         23.51257        10.66776        -1.06552
C         23.52894        12.15192        -1.11493
C         24.80177         9.96832        -1.30125
C         24.72087        12.84808        -1.01440
C         23.54480        15.06634        -1.16826
C         23.56025        16.56056        -0.86750
C         24.75683        14.28221        -0.89042
C         24.52359        16.94979         0.25004
C         23.39748        19.18591         0.12008
C         24.58405        18.46324         0.33434
C         25.86777         2.53918         0.75883
C         25.93286         3.71889        -0.05127
C         26.99268         1.85077         1.15710
C         27.17234         4.30206        -0.36212
C         26.09862         6.29743        -1.42341
C         26.11377         7.78405        -1.66343
C         27.28728         5.66418        -0.78926
C         27.29276         8.51805        -1.16217
C         25.99683        10.62587        -1.10556
C         26.05368        12.13985        -1.18256
C         27.24430         9.88799        -1.00391
C         27.20557        12.78556        -0.44398
C         25.92276        14.92338        -0.33255
C         25.86630        16.27642         0.11216
C         27.14219        14.19027        -0.14867
C         27.01119        16.93952         0.61353
C         25.76645        19.09437         0.71331
C         26.96849        18.36965         0.91739
C         28.30915         2.16795         0.62553
C         28.40673         3.53866        -0.17067
C         29.52749         1.72187         1.30186
C         29.69245         4.23901        -0.14357
C         28.54564         6.29125        -0.86461
C         28.57906         7.76029        -1.10311
C         29.74366         5.59674        -0.54277
C         29.84172         8.48436        -0.73343
C         28.40733        10.60046        -0.39555
C         28.36990        12.07176        -0.25000
C         29.70399         9.87491        -0.19692
C         29.60284        12.76615         0.16804
C         28.28470        14.83364         0.45303
C         28.22632        16.23810         0.74692
C         29.45900        14.11016         0.73142
C         29.43947        16.96043         1.13396
C         28.11009        19.03012         1.38873
C         29.33849        18.35737         1.57590
C         30.72711         2.33661         1.06929
C         30.84068         3.57243         0.35409
C         32.11487         4.25004         0.31553
C         31.09117         6.26301        -0.77481
C         31.04601         7.72002        -0.32853
C         32.24434         5.49840        -0.18642
C         32.08526         8.38369         0.24463
C         30.96537        10.57201         0.16526
C         30.92413        12.05207         0.29637
C         32.06851         9.81857         0.42933
C         31.98928        12.72612         1.08730
C         30.47123        14.62458         1.73339
C         30.65360        16.13378         1.66318
C         31.79800        13.90552         1.68915
C         31.50728        16.80591         2.62405
C         30.42862        18.95904         2.22142
C         31.46812        18.17859         2.76982
O         25.60518         8.31237        -2.90768
O         13.26976        10.28459         1.16690
O         28.41402         2.24120        -0.81887
O         28.73721         9.95185         0.92198
O         17.79527        16.44741         1.32661
O         16.28919         8.15258        -2.51000
O         30.62683        16.66665         0.32638
O         18.56654         7.01455        -2.71552
O          5.26662         3.57325        -1.07913
O         29.49777         8.27278        -2.15165
O         18.93996        12.64312        -2.53433
O         23.51139         6.94370        -2.97825
O         30.64982        12.72760        -0.97652
O         14.40081         6.28627         1.02628
O          9.50257        17.77509        -1.25531
O         12.93030        16.64902         1.39374
O         12.70849        12.17597        -1.87171
O         17.69938         3.34831        -2.08491
O         21.46016         5.61910        -2.75169
O         25.62665         5.36293        -2.46961
O         22.84562        10.13069         0.17961
O         22.92511        14.94962        -2.51350
O         21.04295         2.16504        -1.46581
O          2.03928         9.11987        -2.00417
O          3.62432        11.73014        -1.88772
O         29.90582        14.37703         3.06454
H         29.79703        13.40891         3.17548
O          3.30494         5.74763        -1.74773
H          4.10331         5.98639        -2.28137
O          8.83359        16.35621         2.04894
H          8.19009        15.74605         2.46741
O         13.13773         7.56760        -2.17745
H         13.98098         7.62852        -2.67866
O         14.65644        -0.03311         0.24595
H         14.83964        -0.12945        -0.71587
O          8.33309        10.21686         1.58713
H          9.16179        10.46667         2.06723
O         12.15031        14.64692        -2.12624
H         12.48994        13.85972        -2.61913
O         23.95464        16.45041         1.49348
H         24.48096        16.80974         2.23768
O         26.38737        12.38780        -2.59383
H         25.71619        11.93861        -3.15106
O          9.90579        10.22219        -1.74775
H         10.64255         9.68072        -2.10402
O          4.89933        18.35515         2.44586
H          5.76798        17.94574         2.64840
O          2.14840        17.14889        -1.47882
H          2.14926        16.21541        -1.78032
O          4.96114         6.16524         1.53270
H          4.14121         5.91990         2.01249
O         24.53019         5.34892         1.00497
H         24.53952         4.71595         1.76991
O          5.74814        10.28868         1.44275
H          6.63798        10.22853         1.87625
O         19.68727         8.26311         0.48214
H         20.42721         8.77305         0.87808
O         20.25394        16.96426         1.59497
H         19.41544        16.98105         2.11495
O          5.93176         5.99227        -2.00327
H          5.90722         5.00292        -2.07775
O         24.04629        17.22781        -2.05483
H         23.60580        16.80118        -2.82370
O         22.33803        12.57726        -3.04493
H         22.72844        13.39605        -3.43875
O         31.32441         6.28548        -2.21420
H         30.66751         6.91386        -2.60598
O         24.44592         3.03325         2.59758
H         23.59454         2.82651         3.03664
O          7.25571        10.31605        -1.90950
H          8.17062        10.19560        -2.26126
O         10.84370        10.66850         1.78343
H         11.75716        10.70165         2.15878
O         15.78364         1.38846        -1.66181
H         16.49125         1.80494        -2.21259
H          0.47201         2.00443         2.45080
H          0.37479         4.35224         1.72447
H          2.53136         0.64169         2.12909
H          0.26391         6.11401         0.91000
H          0.09656         8.25049        -0.25379
H          0.05680        10.31402        -0.61751
H          0.14876        12.62082         0.07675
H          0.26840        14.47600         0.84139
H          0.25231        16.92239         0.83127
H          1.46376        19.17479         0.24534
H          4.88788         0.49548         1.53482
H          3.50310        20.30010         0.95368
H          7.36014         0.38506         1.19724
H          6.05495        20.34947         0.64003
H          9.81025         0.34591         0.91400
H          8.52289        20.36168         0.55885
H         12.30667         0.33331         0.75662
H         11.10474        20.37477         0.00841
H         15.10265         1.43997         1.62559
H         13.59268        20.31185        -0.00336
H         17.29628         0.54031         0.81895
H         16.03831        20.30413        -0.09697
H         19.66906         0.81635         1.21047
H         18.51222        20.29221        -0.18379
H         22.15215         1.01046         1.48076
H         20.94653        20.32898        -0.14392
H         24.53202         1.12522         1.72612
H         23.39332        20.27359         0.29088
H         26.91575         1.10251         1.96043
H         25.78141        20.18841         0.83365
H         29.45846         0.89004         2.01818
H         28.03786        20.09466         1.65765
H         31.63556         1.94439         1.55065
H         32.99484         3.71774         0.70740
H         33.24286         5.95253        -0.26056
H         33.00259         7.84902         0.52722
H         33.00346        10.29208         0.75919
H         32.98039        12.25069         1.13588
H         32.62693        14.36503         2.24919
H         32.14084        16.20205         3.28936
H         30.37759        20.02951         2.46714
H         32.19066        18.66674         3.43970
