         210
 CSIRO Nanostructure Databank - Neutral Graphene Oxide Data Set
C         30.47781        31.66094        -0.26522
C         30.51626        32.91036        -0.18104
C         30.51582        36.06060        -0.22940
C         30.40513        37.26120        -0.50410
C         30.46976        40.39731        -0.42671
C         30.37539        41.66182        -0.34967
C         32.95176        28.90893        -0.22135
C         31.81923        29.44529        -0.29225
C         32.86742        31.59227         0.01886
C         31.63412        30.84468        -0.19125
C         32.84910        33.03341         0.11156
C         31.62081        33.77244         0.00614
C         32.80342        35.91753         0.24041
C         31.61427        35.18165         0.06512
C         32.66508        37.43920         0.39923
C         31.68324        38.08463        -0.63016
C         32.77666        40.32327        -0.22205
C         31.57190        39.55781        -0.36604
C         32.77588        41.76189        -0.24247
C         31.50449        42.48627        -0.26842
C         32.78937        44.46357        -0.19494
C         31.67529        43.90308        -0.22285
C         35.68601        27.42120        -0.10388
C         35.46498        28.80538         0.10419
C         34.22115        29.47902         0.00680
C         35.35635        31.63465         0.30500
C         34.12984        30.90477         0.12662
C         35.31673        33.07369         0.31747
C         34.06823        33.77776         0.25213
C         35.28659        35.93475         0.41416
C         34.04516        35.21478         0.32056
C         35.28881        37.42864         0.48490
C         33.99035        38.19384         0.39454
C         35.23771        40.29179        -0.15104
C         34.01652        39.61625        -0.03693
C         35.27002        41.73018        -0.30509
C         34.03987        42.45568        -0.27190
C         35.30433        44.60265        -0.35267
C         34.09871        43.91171        -0.27417
C         35.50692        45.99902        -0.15506
C         38.06516        27.42877         0.27307
C         36.82091        26.88848        -0.11514
C         37.92926        28.81186         0.61650
C         36.67319        29.50719         0.42674
C         37.81713        31.70171         0.53372
C         36.59781        30.94778         0.46000
C         37.78692        33.11487         0.43959
C         36.53083        33.80835         0.37557
C         37.77979        35.97174         0.51043
C         36.49568        35.23754         0.41180
C         37.79316        37.46764         0.27501
C         36.50793        38.17588         0.10344
C         37.71482        40.22958        -0.55871
C         36.47378        39.52807        -0.14719
C         37.74937        41.70243        -0.49797
C         36.52480        42.42300        -0.41720
C         37.77815        44.49556        -0.79697
C         36.55817        43.87757        -0.52516
C         37.79101        46.62758        -0.04866
C         36.39122        46.79948         0.22137
C         40.71329        25.44705        -1.51276
C         39.67606        25.81727        -0.88780
C         40.34248        26.76819         1.13304
C         39.30404        26.65776         0.18484
C         40.24713        29.05423         1.57221
C         39.09449        29.60142         1.01265
C         40.25784        31.76907         0.81198
C         39.06942        31.03540         0.76434
C         40.26058        33.15404         0.50312
C         39.02412        33.84032         0.38402
C         40.26322        35.94803         0.12881
C         39.04605        35.25339         0.29541
C         40.25305        37.38331        -0.07536
C         39.05669        38.08002        -0.13731
C         40.29660        40.23322        -0.48579
C         39.03128        39.48312        -0.57731
C         40.24068        41.64559        -0.46975
C         39.00756        42.33816        -0.54969
C         40.14155        44.44497         0.16344
C         39.10955        43.82145        -0.79781
C         40.09649        45.80254         0.82201
C         38.86397        46.72024         0.80274
C         40.03523        48.01186         2.51112
C         39.03381        47.65442         1.85888
C         43.26356        25.45893        -1.12958
C         41.92991        25.07101        -0.90824
C         42.78633        26.75385         1.51127
C         41.59992        26.09768         1.10127
C         42.73561        29.09101         1.74532
C         41.52388        29.73458         1.56449
C         42.78058        31.77997         0.77568
C         41.52602        31.22449         1.40629
C         42.73833        33.07878         0.30825
C         41.50081        33.83875         0.30825
C         42.74378        35.92438        -0.22820
C         41.49667        35.22462         0.04923
C         42.70211        37.34483        -0.40967
C         41.50635        38.07187        -0.32607
C         42.76279        40.21210        -0.52781
C         41.51414        39.50691        -0.44960
C         42.74731        41.68356        -0.52494
C         41.47388        42.41820        -0.30660
C         42.75244        44.55458         0.10030
C         41.46607        43.75176         0.00122
C         42.63798        45.79116         0.99164
C         41.40188        46.39374         1.32808
C         42.62610        48.02665         2.57900
C         41.36206        47.55273         2.19846
C         44.05516        25.83002        -0.20509
C         45.18708        27.36783         1.63561
C         44.07414        26.60257         0.95995
C         45.21744        28.89873         1.21712
C         44.01866        29.65453         1.29323
C         45.23126        31.67050         0.44298
C         44.01221        31.01685         0.81885
C         45.23985        33.04451         0.04025
C         43.93728        33.69773        -0.35249
C         45.21534        35.85005        -0.50760
C         43.95535        35.20737        -0.29020
C         45.23501        37.30480        -0.79201
C         43.94238        38.06693        -0.75305
C         45.24666        40.19821        -0.38681
C         43.98040        39.53136        -0.55811
C         45.27867        41.57492        -0.08828
C         44.03918        42.37330        -0.20151
C         45.23279        44.37457         0.69063
C         43.91151        43.64385         0.61062
C         45.16192        45.72426         1.09524
C         43.89106        46.34894         1.40139
C         43.70206        47.50327         2.17207
C         47.52366        27.46029         0.99363
C         46.53035        26.78701         1.27110
C         47.68589        28.85003         0.72036
C         46.43410        29.55334         0.81323
C         47.70105        31.63566         0.20366
C         46.46797        30.95725         0.50229
C         47.70158        33.03433        -0.11055
C         46.44686        33.73136        -0.19682
C         47.66382        35.84411        -1.03475
C         46.41946        35.14770        -0.50784
C         47.70709        37.33621        -0.70824
C         46.49918        38.04800        -0.59711
C         47.72664        40.15026        -0.25314
C         46.48748        39.45505        -0.40603
C         47.73502        41.55682         0.03938
C         46.49874        42.25849         0.17430
C         47.71977        44.33950         0.68679
C         46.46406        43.66999         0.50815
C         47.54037        45.69572         1.04501
C         46.45317        46.28845         1.24779
C         50.18367        28.92033         0.42717
C         48.89135        29.50024         0.46227
C         50.19620        31.59135         0.01499
C         48.94435        30.92107         0.22424
C         50.17669        33.01004        -0.23766
C         48.93789        33.72656        -0.34499
C         50.14997        35.82558        -0.83879
C         48.95414        35.12605        -0.68049
C         50.12984        37.30201        -1.24967
C         48.92225        38.04514        -0.72354
C         50.20958        40.16611        -0.37801
C         48.95651        39.44229        -0.45230
C         50.23602        41.55963        -0.03279
C         48.98659        42.25226         0.17371
C         50.24538        44.18551         0.60847
C         48.94704        43.64925         0.50473
C         51.30083        29.46125         0.27302
C         52.60448        31.65536        -0.13956
C         51.45778        30.85387         0.05154
C         52.52351        32.89494        -0.32558
C         51.40110        33.73805        -0.43621
C         52.56911        35.90025        -0.95140
C         51.39820        35.12054        -0.71415
C         52.48191        37.16584        -0.95186
C         51.43135        38.06178        -0.91360
C         52.56613        40.25118        -0.42423
C         51.42871        39.42753        -0.60414
C         52.64494        41.46638        -0.13226
C         51.50663        42.27606         0.10372
C         51.36417        43.63828         0.44284
O         42.64880        27.84416         2.38316
O         38.26700        39.70266        -1.82805
O         40.19426        27.75772         2.11927
O         44.54236        37.64416        -2.05061
O         41.70143        24.80773         0.52152
O         43.54685        42.36954        -1.57847
O         39.74804        44.55369         1.55987
O         37.86102        36.89577         1.64780
O         37.93749        45.82570        -1.21705
O         34.65854        37.99770         1.69319
O         43.57233        43.18776         1.94598
H         43.50286        43.96969         2.53438
O         39.69271        44.00819        -2.12091
H         39.10044        43.59448        -2.78286
O         43.07782        45.03133        -1.21939
H         43.16164        44.23886        -1.80418
O         47.56381        35.74391        -2.49243
H         46.87801        36.37902        -2.79213
O         50.00711        37.34042        -2.69578
H         50.66552        36.72100        -3.07526
O         45.00600        27.28922         3.03378
H         45.75246        27.73875         3.47889
O         43.77989        33.38368        -1.79439
H         44.51279        33.83024        -2.27108
O         32.06397        37.67023         1.68894
H         32.78086        37.59934         2.35912
O         41.53253        31.72462         2.80200
H         41.41020        32.69767         2.76640
O         32.22084        37.89511        -1.93299
H         31.61775        38.29871        -2.59112
