         429
 CSIRO Nanostructure Databank - Neutral Graphene Oxide Data Set
C          1.20405         3.31126         1.05753
C         -0.02066         4.01576         0.92882
C          1.09313         6.20696         1.14767
C         -0.08971         5.38831         0.88449
C          1.09155         7.67307         0.89936
C         -0.04391         8.45588         1.14962
C          1.08779        10.60771         0.43522
C         -0.07271         9.82536         0.94228
C          1.34451        11.94180         1.22875
C          0.15566        12.79833         1.47362
C          1.21521        14.87295         0.70390
C          0.16284        14.17870         1.30840
C          1.25782        16.38654         0.68838
C         -0.05638        17.03154         0.31326
C          1.08761        19.06728        -0.49909
C         -0.12219        18.29075        -0.14619
C          1.07390        20.60556        -0.61132
C         -0.12649        21.37478        -0.28005
C          1.17229        23.45166        -0.16812
C         -0.05189        22.71933        -0.04923
C          1.20947        24.88657         0.01587
C         -0.00024        25.65602         0.24273
C          1.24569        27.77735         0.44143
C         -0.00226        27.01030         0.33448
C          1.28958        29.25356         0.30374
C          0.07348        30.01282         0.37346
C          1.25339        32.12715         0.01519
C          0.04915        31.37110         0.18287
C          1.23875        33.49463        -0.25075
C          0.03175        34.27451        -0.27322
C          1.27362        36.38973        -0.41035
C          0.04305        35.64233        -0.37701
C          1.27537        37.81500        -0.34577
C          3.67583         3.30686         0.97189
C          2.43308         3.98062         1.06453
C          3.68311         6.15821         0.87934
C          2.42842         5.45315         1.18971
C          3.64064         7.58890         0.47885
C          2.32962         8.34180         0.46524
C          3.60278        10.48519         0.36395
C          2.39324         9.81833         0.44986
C          3.58924        11.94364         0.18960
C          2.46615        12.66206         0.49667
C          3.55174        14.82405        -0.36751
C          2.32643        14.09184         0.14194
C          3.61917        16.29861        -0.25862
C          2.42886        17.00866        -0.05630
C          3.57436        19.13579        -0.57869
C          2.40340        18.41930        -0.32422
C          3.57644        20.57446        -0.63825
C          2.36834        21.30087        -0.53370
C          3.61961        23.40322        -0.61444
C          2.38688        22.72311        -0.42276
C          3.57208        24.87150        -0.73324
C          2.40675        25.57597        -0.18280
C          3.73366        27.77053        -0.29109
C          2.53349        27.00425         0.12155
C          3.72824        29.20102        -0.17777
C          2.50482        29.90580         0.12798
C          3.78681        32.07523        -0.13796
C          2.54575        31.39677         0.38450
C          3.76117        33.58211        -0.05351
C          2.50956        34.19450        -0.69184
C          3.71462        36.41018        -0.45502
C          2.49778        35.69611        -0.46694
C          3.71209        37.84383        -0.42965
C          2.45589        38.52198        -0.36277
C          6.13874         3.30629         0.78904
C          4.90504         3.99947         0.91682
C          6.12564         6.20410         0.77291
C          4.85951         5.45512         0.84822
C          6.08797         7.65507         0.48905
C          4.90721         8.36346         0.49380
C          6.09484        10.55041         0.37247
C          4.88518         9.80556         0.39547
C          6.11421        11.92049         0.00383
C          4.83377        12.57529        -0.31278
C          6.09552        14.81744        -0.41061
C          4.83339        14.07837        -0.54422
C          6.08002        16.24645        -0.43904
C          4.85598        16.95795        -0.47840
C          6.09858        19.15874        -0.41107
C          4.86838        18.41334        -0.86412
C          6.05464        20.55036        -0.41463
C          4.82961        21.27417        -0.62216
C          6.10892        23.40956        -0.81064
C          4.85109        22.70289        -0.69690
C          6.11296        24.86067        -1.12744
C          4.83389        25.63703        -0.98375
C          6.13436        27.78321        -0.77455
C          4.89156        27.08802        -0.67696
C          6.14075        29.21112        -0.69198
C          4.91310        29.92090        -0.47810
C          6.05962        32.11140        -1.15595
C          4.90909        31.37633        -0.48635
C          6.18390        33.56160        -0.72919
C          5.00491        34.27771        -0.53939
C          6.15962        36.44836        -0.67272
C          4.97905        35.71868        -0.54096
C          6.16885        37.87521        -0.58567
C          4.93432        38.55030        -0.47279
C          8.61222         3.30270         0.44906
C          7.38664         3.95423         0.61401
C          8.57711         6.13232         0.07142
C          7.40535         5.43786         0.67826
C          8.56611         7.62829         0.01227
C          7.37831         8.36485         0.54831
C          8.72065        10.60977         0.42256
C          7.38846         9.86718         0.60889
C          8.58711        12.00331        -0.16314
C          7.32658        12.65476        -0.18882
C          8.53724        14.80482        -0.46573
C          7.29931        14.08741        -0.38885
C          8.52274        16.23832        -0.36345
C          7.33197        16.96378        -0.35154
C          8.53136        19.11734        -0.08861
C          7.33283        18.42628        -0.24059
C          8.56899        20.57820         0.03886
C          7.26288        21.34197        -0.10840
C          8.59054        23.41670        -0.52871
C          7.32712        22.76396        -0.52019
C          8.73038        24.84525        -1.03336
C          7.40877        25.61336        -1.11639
C          8.54922        27.76112        -0.51366
C          7.37432        27.07301        -0.82351
C          8.58373        29.19174        -0.53572
C          7.38433        29.90105        -0.76090
C          8.56551        32.05207        -0.41137
C          7.43460        31.35271        -1.20469
C          8.62831        33.56097        -0.59646
C          7.43133        34.25466        -0.77505
C          8.56082        36.40188        -0.11731
C          7.46872        35.75599        -0.96184
C          8.63283        37.89729        -0.34766
C          7.42223        38.57529        -0.54150
C         11.10267         3.34223         0.26838
C          9.86283         4.00829         0.27039
C         11.05117         6.15208        -0.14506
C          9.86165         5.42294         0.06526
C         11.00985         7.61573        -0.24179
C          9.85279         8.33721        -0.11353
C         11.04890        10.57479        -0.42342
C          9.74039         9.81671        -0.42774
C         11.04100        11.94186        -0.60247
C          9.77123        12.68422        -0.51694
C         10.98789        14.85155        -0.94093
C          9.74834        14.09935        -0.62927
C         11.05912        16.28001        -0.57603
C          9.81528        16.91141        -0.12304
C         11.07947        19.14447        -0.21997
C          9.82070        18.41977         0.02086
C         11.05497        20.57537        -0.22662
C          9.83893        21.29480        -0.17226
C         11.07263        23.42416        -0.28176
C          9.81646        22.71413        -0.30603
C         11.04612        24.88069        -0.15501
C          9.80975        25.56298        -0.26541
C         10.97556        27.77718         0.34589
C          9.72853        27.00651        -0.03939
C         11.01538        29.22343         0.02008
C          9.86040        29.87676        -0.36886
C         11.06591        32.04799        -0.01468
C          9.91952        31.35747        -0.72035
C         11.07460        33.53832        -0.04190
C          9.84487        34.27343        -0.36592
C         11.07496        36.38170        -0.00236
C          9.87818        35.67938        -0.24805
C         11.08144        37.82727         0.03965
C          9.86766        38.54532        -0.18175
C         13.57813         3.37708         0.04310
C         12.31965         4.04446         0.04618
C         13.52851         6.13938        -0.56844
C         12.28126         5.45194        -0.19160
C         13.54109         7.65626        -0.63801
C         12.30161         8.35067        -0.21167
C         13.58401        10.53239        -0.60070
C         12.31770         9.85520        -0.26521
C         13.51529        11.95473        -0.80297
C         12.30440        12.63237        -0.78600
C         13.53949        14.85566        -0.88770
C         12.30428        14.09268        -1.01161
C         13.48548        16.29199        -0.99652
C         12.23966        17.00166        -0.63385
C         13.54513        19.13881        -0.31250
C         12.28158        18.43260        -0.39065
C         13.50791        20.55764        -0.13737
C         12.30404        21.27900        -0.21433
C         13.54431        23.43122        -0.14817
C         12.29255        22.72299        -0.18799
C         13.51165        24.89724        -0.23764
C         12.24578        25.60024        -0.02195
C         13.55201        27.78080         0.30341
C         12.27781        26.99889         0.55430
C         13.55028        29.20046         0.32525
C         12.29914        29.92501         0.13028
C         13.60957        32.02912        -0.03526
C         12.33811        31.29473         0.01510
C         13.60230        33.55013        -0.01342
C         12.32984        34.27571         0.04546
C         13.55399        36.37854         0.33273
C         12.32250        35.66664         0.11469
C         13.52883        37.79684         0.42295
C         12.30323        38.49577         0.25069
C         16.05054         3.38746        -0.05718
C         14.80991         4.06588        -0.11317
C         16.01701         6.21904        -0.42510
C         14.81567         5.47843        -0.37201
C         16.02575         7.66623        -0.53247
C         14.81932         8.38645        -0.54929
C         16.06741        10.51692        -0.99275
C         14.78403         9.81748        -0.61624
C         16.07035        11.98095        -0.62324
C         14.78884        12.72146        -0.73245
C         16.07853        14.87886        -0.74588
C         14.82983        14.15424        -1.21676
C         16.05568        16.23931        -0.55493
C         14.84408        17.04554        -0.79927
C         16.04142        19.09154        -0.11222
C         14.78946        18.43979        -0.34230
C         16.04757        20.55108         0.15799
C         14.75474        21.29900         0.13216
C         16.01333        23.47134         0.15200
C         14.77334        22.77252        -0.03153
C         16.02763        24.88710         0.27773
C         14.81227        25.65387        -0.02957
C         16.00370        27.76318         0.50390
C         14.76957        27.08808         0.31532
C         16.00463        29.18454         0.64241
C         14.77211        29.90301         0.49376
C         15.98995        32.06603         0.66536
C         14.83183        31.34510         0.41006
C         16.01177        33.51621         0.64389
C         14.82358        34.24552         0.40116
C         15.98326        36.37419         0.79387
C         14.78007        35.66268         0.51922
C         15.93620        37.79958         0.90750
C         14.74904        38.48263         0.71422
C         18.52083         3.40383        -0.17023
C         17.26657         4.08832        -0.18579
C         18.49247         6.23222        -0.32335
C         17.25843         5.51601        -0.31567
C         18.49677         7.65791        -0.32760
C         17.29466         8.38004        -0.46922
C         18.54789        10.53570        -0.56081
C         17.32485         9.80078        -0.57744
C         18.56209        11.98103        -0.68101
C         17.34680        12.72458        -0.73921
C         18.56381        14.84488        -0.50844
C         17.32117        14.12440        -0.64567
C         18.55144        16.24103        -0.24685
C         17.24553        16.91736         0.09164
C         18.51302        19.11761         0.07586
C         17.25934        18.41427        -0.10099
C         18.54191        20.53555         0.19340
C         17.30969        21.31132        -0.19921
C         18.41511        23.38270         0.67378
C         17.26782        22.74417         0.28412
C         18.41715        24.83890         0.90865
C         17.19349        25.59805         0.62549
C         18.46546        27.74429         0.64289
C         17.22561        27.02722         0.61659
C         18.45433        29.18059         0.67597
C         17.22617        29.87629         0.79811
C         18.48849        32.05638         0.89816
C         17.20653        31.32892         1.19885
C         18.50269        33.52747         1.22787
C         17.21290        34.24504         0.90446
C         18.46606        36.39078         0.98472
C         17.21084        35.64811         0.93025
C         18.45474        37.80019         1.06968
C         17.17276        38.55270         1.33530
C         19.70961         4.09801        -0.29645
C         20.95146         6.24613        -0.57527
C         19.72352         5.51075        -0.36454
C         20.98583         7.59832        -0.51774
C         19.78955         8.37538        -0.02273
C         20.97958        10.56564        -0.39584
C         19.78167         9.84578        -0.38329
C         20.99806        11.95249        -0.54517
C         19.80168        12.68986        -0.64689
C         20.99647        14.89331        -0.51889
C         19.79827        14.14148        -0.59021
C         20.97488        16.25817        -0.30097
C         19.75311        16.95151        -0.10630
C         20.89960        19.07210         0.56739
C         19.72985        18.38687         0.19314
C         20.87819        20.44039         0.81585
C         19.71061        21.19247         0.59002
C         20.86834        23.42710         0.31578
C         19.72207        22.66186         0.95516
C         20.89112        24.77090         0.28991
C         19.75126        25.58699         0.76931
C         20.88942        27.79217         0.40876
C         19.71212        27.05489         0.56007
C         20.87305        29.19421         0.39459
C         19.68378        29.91001         0.55519
C         20.84829        32.13593         0.32335
C         19.66128        31.37880         0.59891
C         20.84765        33.52630         0.35422
C         19.71629        34.26480         0.72807
C         20.89338        36.46699         0.66707
C         19.70504        35.70450         0.79002
C         20.86314        37.85235         0.75403
C         19.64982        38.52038         0.96440
O          2.12679        27.30019         1.50818
O         14.29305        25.42285        -1.39070
O          8.22961         6.83204        -1.18343
O          4.80081        13.14192        -1.66568
O          2.52236        14.38462        -1.30318
O         15.41674        20.90033         1.41764
O         11.54699        14.50568        -2.24734
O          7.49487         9.06098         1.83893
O         10.80257        32.69490         1.27156
O         19.20111        25.24895         2.09110
O          7.82308        21.08212         1.21687
O         10.01015        27.42812         1.38943
O         14.25382        16.85344        -2.13178
O         15.37700        12.42989         0.59007
O          1.78134         5.91775         2.42877
O          2.89018         7.73612        -0.78700
O         13.39726         6.87958        -1.86086
O          0.95000        19.73282        -1.79461
O          5.62685        32.37259        -2.48607
O          6.99381         5.96031         1.97705
O          9.90072        17.53312         1.20433
O         12.43916         9.10148         1.02974
O          3.92262        25.35748        -2.10750
O         13.76367        32.79476        -1.28621
O          6.75750        25.26105        -2.39608
O          2.58249        31.50843         1.85356
H          2.73285        32.46614         2.05055
O         18.59956        33.58611         2.73117
H         19.49407        33.25755         2.96899
O         17.34364        21.38520        -1.66308
H         16.66285        22.02910        -1.95314
O          8.25006        31.82273         0.98163
H          9.00939        32.17318         1.51090
O         19.94222        22.68482         2.39291
H         19.80547        23.61974         2.68727
O         17.05737        16.73467         1.54296
H         17.10068        15.77179         1.72739
O          0.80208        11.03058        -0.92343
H          0.76713        10.23203        -1.49039
O         17.20906        39.85719         0.74637
H         17.26889        39.75224        -0.22508
O          7.79183        36.00878        -2.35580
H          7.15432        35.50773        -2.90763
O          9.29191        10.83202         1.72652
H          8.93854        10.13258         2.32602
O          9.19891         9.86011        -1.78016
H          9.70975         9.24693        -2.34941
O         19.90014         8.36311         1.45547
H         19.87057         7.42364         1.73748
O         10.29370        31.48458        -2.10631
H          9.49700        31.27635        -2.66020
O          9.25055        24.74021        -2.39913
H          8.46323        24.71700        -2.99400
O         16.10435        10.52754        -2.46396
H         16.08538         9.59629        -2.77168
O          8.16091        36.21955         1.27499
H          8.85829        36.61062         1.84201
O          4.96529        18.40824        -2.34525
H          4.14343        17.99850        -2.69229
O         12.36507        26.69631         1.99086
H         11.43258        26.70198         2.32485
O          1.83178        11.49306         2.52752
H          1.88629        12.27205         3.11951
O         14.88923        14.09332        -2.67537
H         14.71841        15.00815        -3.00204
O          1.49200        16.75937         2.10180
H          1.49719        17.73893         2.15380
O          2.62695        33.98306        -2.12192
H          1.82678        34.34888        -2.55216
O         17.05627        31.32413         2.66648
H         17.40322        32.19513         2.98935
O          7.78854        31.27560        -2.60178
H          6.99379        31.67996        -3.07764
O          3.67966        33.93848         1.37149
H          4.55272        33.75163         1.77914
H          1.19086         2.21209         1.03580
H         -0.94035         3.43162         0.77913
H         -1.03026         5.88444         0.60510
H         -0.96146         7.95704         1.49676
H         -1.02952        10.35497         1.05921
H         -0.69707        12.33944         1.99620
H         -0.70342        14.74660         1.68082
H         -0.98553        16.47464         0.50492
H         -1.09823        18.73571        -0.39038
H         -1.09923        20.86505        -0.25528
H         -0.97935        23.25480         0.19297
H         -0.96825        25.13800         0.21967
H         -0.96427        27.54145         0.34498
H         -0.88002        29.48362         0.50563
H         -0.92677        31.87068         0.10862
H         -0.93792        33.77136        -0.15109
H         -0.90603        36.19763        -0.36075
H          0.31340        38.34519        -0.29221
H          3.67886         2.20713         0.92947
H          2.44468        39.62122        -0.33354
H          6.11442         2.20574         0.78849
H          4.92194        39.64879        -0.40316
H          8.64196         2.20293         0.47618
H          7.41542        39.67577        -0.57767
H         11.13639         2.25537         0.43362
H          9.91168        39.64377        -0.24452
H         13.60000         2.28964         0.20700
H         12.31042        39.59542         0.29246
H         16.06571         2.29696         0.08477
H         14.74115        39.57886         0.80676
H         18.52649         2.30781        -0.08510
H         17.10020        38.71720         2.44912
H         20.66445         3.55331        -0.32809
H         21.85943         5.67708        -0.82684
H         21.93476         8.12302        -0.69728
H         21.93550        10.04522        -0.24792
H         21.96761        12.46713        -0.52205
H         21.96868        14.39448        -0.62824
H         21.92814        16.80192        -0.25868
H         21.83896        18.52170         0.71267
H         21.78580        20.94347         1.17676
H         21.72858        22.86228        -0.07455
H         21.74279        25.29411        -0.17062
H         21.85663        27.27563         0.33887
H         21.83191        29.71921         0.29354
H         21.77058        31.62094         0.02667
H         21.76662        34.05114         0.05679
H         21.85797        35.96201         0.52214
H         21.79594        38.42684         0.66801
H         19.62247        39.61662         1.03655
