         621
 CSIRO Nanostructure Databank - Neutral Graphene Oxide Data Set
C          6.11021        31.72881         0.63828
C          6.09357        33.07930         0.66852
C          8.35216        27.48373        -0.28001
C          8.27640        28.83207        -0.53580
C          7.17832        29.61042        -0.01738
C          8.23086        31.74922        -0.71440
C          7.13999        30.98005        -0.06016
C          8.37877        33.17073        -0.34950
C          7.08138        33.90650        -0.12534
C          8.50400        35.90807         0.40164
C          7.27518        35.28292         0.42214
C          8.63309        37.27244         0.82357
C         10.56427        23.10591         0.34077
C         10.24426        24.25269        -0.35074
C          9.33786        25.31554        -0.08253
C         10.71266        27.26582        -1.04370
C          9.49274        26.63907        -0.56034
C         10.68970        28.72098        -1.35570
C          9.40205        29.50364        -1.21974
C         10.74385        31.69563        -1.23802
C          9.43713        31.00758        -1.22641
C         10.80199        33.09015        -0.88543
C          9.59954        33.80484        -0.43028
C         10.93933        35.83629         0.07456
C          9.70349        35.19878        -0.02033
C         11.06075        37.21778         0.43948
C          9.85249        37.93689         0.81111
C         11.09370        40.05404         1.02518
C          9.90850        39.33763         1.10205
C         11.11346        41.46837         1.14915
C         13.28439        18.93309         0.21492
C         13.18982        20.34977         0.75207
C         11.92713        21.09042         0.40940
C         13.15365        23.25401         0.12661
C         11.85712        22.42390         0.15525
C         13.22205        24.54353        -0.68675
C         12.10025        25.20851        -1.12368
C         13.20413        27.38421        -1.22334
C         11.97560        26.64003        -1.17514
C         13.19352        28.81112        -1.33147
C         11.95282        29.50045        -1.37726
C         13.19063        31.63248        -1.63541
C         11.92218        30.92445        -1.39786
C         13.23938        33.15039        -1.35620
C         12.03388        33.75258        -0.81368
C         13.51088        35.80083        -0.23181
C         12.16631        35.05565        -0.15407
C         13.49904        37.26152        -0.07350
C         12.29571        37.89156         0.36425
C         13.57558        40.10180         0.41631
C         12.35109        39.31762         0.75522
C         13.48645        41.59721         0.38534
C         12.24245        42.25445         0.87719
C         13.35460        44.47040         0.90910
C         12.19514        43.65881         0.99233
C         13.30391        45.86181         1.17159
C         15.66832        14.61577         0.57277
C         15.70132        16.05892         0.78077
C         14.59056        16.79542         0.33071
C         15.60912        18.94702         0.94091
C         14.46796        18.22519         0.42717
C         15.70917        20.42203         0.81995
C         14.44773        21.12274         0.42120
C         15.66492        23.08758        -0.44804
C         14.41388        22.41543         0.00751
C         15.65835        24.53299        -0.78564
C         14.46962        25.25355        -0.83775
C         15.65715        27.38982        -1.31916
C         14.44572        26.67385        -1.16882
C         15.68510        28.81026        -1.37906
C         14.44641        29.52422        -1.38619
C         15.68707        31.64063        -1.68071
C         14.46859        30.92453        -1.55260
C         15.71529        33.08121        -1.63543
C         14.55674        33.80397        -1.23354
C         15.84061        35.90884        -1.19100
C         14.65081        35.16296        -0.91921
C         15.82719        37.31544        -0.91090
C         14.68286        37.96809        -0.39078
C         16.01469        40.12337        -0.14863
C         14.65469        39.48772        -0.45945
C         16.10610        41.56494         0.34181
C         14.78523        42.35358         0.43569
C         15.73121        44.56477         1.07279
C         14.64842        43.78343         0.84226
C         15.71477        45.99716         0.78395
C         14.46594        46.70294         1.17876
C         15.81394        48.79189         1.24772
C         14.51639        48.07908         1.25069
C         15.85954        50.24679         1.24725
C         18.11830        10.39057         1.58022
C         17.96322        11.78934         1.55217
C         16.70537        12.33198         1.17890
C         18.25976        14.87686         1.86406
C         16.42837        13.72552         1.31015
C         18.16645        16.26528         1.59090
C         16.82558        16.79121         1.35756
C         18.52827        19.22483         1.26648
C         16.63027        18.18871         1.49527
C         18.37896        20.46130         0.56735
C         17.05479        21.14259         0.60640
C         18.26734        23.14908        -0.37760
C         16.97850        22.39548        -0.22173
C         18.20177        24.51475        -0.97667
C         16.88633        25.13971        -1.30707
C         18.18176        27.39535        -1.48105
C         16.90819        26.66277        -1.53795
C         18.17832        28.79232        -1.51036
C         16.92290        29.51411        -1.51512
C         18.14150        31.61636        -2.03862
C         16.92985        30.92369        -1.69486
C         17.97065        32.96726        -2.48549
C         16.91121        33.79325        -1.93354
C         18.23694        35.97058        -1.82732
C         17.00820        35.22398        -1.70794
C         18.18408        37.43724        -1.95831
C         16.95603        38.15260        -1.38696
C         18.35707        40.22495        -1.07345
C         17.15270        39.52322        -0.88019
C         18.42560        41.62572        -0.70589
C         17.39714        42.23773         0.01121
C         18.41307        44.49068        -0.25106
C         17.62385        43.60055         0.41090
C         18.21957        45.96777        -0.19738
C         16.95605        46.66958         0.29331
C         18.30347        48.89507         0.40612
C         17.10085        48.09419         0.75954
C         18.29617        50.30595         0.70814
C         17.05926        50.95750         1.11377
C         18.23161        53.12128         1.20564
C         17.05412        52.36454         1.30743
C         18.24164        54.51697         1.47646
C         20.56358         6.08564         2.29363
C         20.21336         7.43204         2.46052
C         19.24228         8.24471         1.85402
C         20.58291        10.40259         1.77531
C         19.34090         9.68095         1.80017
C         20.52669        11.81633         1.33670
C         19.23322        12.59405         1.44543
C         20.62775        14.74629         1.53467
C         19.37137        14.06793         1.63564
C         20.62103        16.15248         1.47419
C         19.43295        16.94502         1.40724
C         20.87915        19.03253         0.69825
C         19.56953        18.33486         1.06265
C         20.68530        20.05828        -0.45799
C         19.48911        20.97635        -0.12239
C         20.70396        23.00030        -0.84844
C         19.51593        22.35182        -0.51318
C         20.72037        24.37441        -1.38783
C         19.43134        25.12154        -1.57308
C         20.71133        27.32095        -1.29686
C         19.43889        26.63040        -1.65571
C         20.67484        28.85074        -1.27243
C         19.40943        29.54664        -1.58609
C         20.69606        31.61284        -1.75599
C         19.41840        30.92266        -1.85702
C         20.71071        33.09065        -1.93766
C         19.70240        33.96954        -1.24845
C         20.71540        36.04358        -2.08074
C         19.53587        35.36263        -1.78620
C         20.76857        37.50095        -2.28272
C         19.45819        38.23835        -2.10892
C         20.77806        40.32476        -1.65336
C         19.53233        39.62622        -1.62852
C         20.77310        41.76756        -1.42357
C         19.58975        42.40948        -1.06126
C         20.71474        44.71535        -1.18979
C         19.39624        43.91868        -1.25040
C         20.72120        46.05687        -0.48528
C         19.43769        46.82366        -0.41986
C         20.72168        48.96336        -0.14995
C         19.46825        48.24871        -0.00714
C         20.64773        50.46276        -0.19989
C         19.45873        51.07320         0.51033
C         20.64421        53.24509         0.73222
C         19.45366        52.46640         0.80753
C         20.66611        54.60648         1.09537
C         19.42538        55.26903         1.44900
C         20.60344        57.40010         1.94213
C         19.42688        56.64098         1.83971
C         20.62052        58.72452         2.38937
C         23.15290         3.47349         2.98473
C         21.93557         4.13352         2.78520
C         23.08648         6.29090         2.68274
C         21.85036         5.54083         2.65101
C         23.15641         7.70549         2.44888
C         22.01488         8.53507         2.57763
C         23.11035        10.40141         1.54536
C         21.88342         9.80411         1.95696
C         23.10950        11.81248         1.13038
C         21.82232        12.57785         1.18553
C         23.12782        14.64925         1.60852
C         21.88911        14.02530         1.47779
C         23.18525        16.11148         1.84717
C         21.91160        16.86801         1.58133
C         23.19795        18.20639        -0.00355
C         22.02802        18.05556         0.70416
C         23.19412        20.25618        -0.84102
C         21.95395        20.88482        -0.69951
C         23.21743        22.97228        -0.80411
C         21.96653        22.29321        -0.77690
C         23.20159        24.45227        -0.77325
C         22.02023        25.14804        -1.36512
C         23.19435        27.35801        -1.27644
C         22.00925        26.63255        -1.36467
C         23.17470        28.80649        -1.41460
C         21.96358        29.52252        -1.47614
C         23.20915        31.68213        -1.60120
C         21.91548        30.93965        -1.67689
C         23.25257        33.15641        -1.87336
C         21.97770        33.82750        -2.23445
C         23.28757        36.06822        -2.40742
C         21.97688        35.32574        -2.31409
C         23.26747        37.53154        -2.14511
C         22.05983        38.21962        -2.07819
C         23.27112        40.39117        -1.83987
C         22.01467        39.65406        -1.89923
C         23.22295        41.84026        -1.65237
C         22.02437        42.50954        -1.51349
C         23.28288        44.70413        -0.99716
C         22.01614        44.00029        -1.36548
C         23.26764        46.13784        -0.69333
C         21.99453        46.82776        -0.36018
C         23.17721        49.11700        -0.67211
C         21.92696        48.31512        -0.32362
C         23.17287        50.50043        -0.01785
C         21.95345        51.13395         0.11230
C         23.19382        53.30086         0.67885
C         21.88975        52.58786         0.31629
C         23.12343        54.64492         1.26668
C         21.91096        55.30966         1.28739
C         23.04571        57.25355         2.41614
C         21.92127        56.80974         1.47943
C         23.08599        58.75059         2.53356
C         21.85450        59.44740         2.57500
C         23.08787        61.50586         3.02346
C         21.87303        60.84101         2.83039
C         24.34714         4.17884         2.95440
C         25.56104         6.26756         2.51810
C         24.33781         5.58669         2.74007
C         25.60544         7.62334         2.13016
C         24.37236         8.34521         2.07707
C         25.59485        10.34822         1.33808
C         24.35788         9.72327         1.69207
C         25.59131        11.76464         0.90603
C         24.37639        12.55736         1.20969
C         25.63411        14.67390         1.16899
C         24.36818        13.91881         1.37047
C         25.74939        16.06569         1.69117
C         24.49087        16.92673         1.70899
C         25.62357        18.65864         0.29858
C         24.48773        17.84924         0.49045
C         25.67728        20.02249        -0.38760
C         24.44869        20.86124        -0.64130
C         25.71489        23.02108        -0.60987
C         24.44937        22.28305        -0.64936
C         25.73905        24.43082        -0.83834
C         24.50456        25.21606        -0.78371
C         25.66201        27.32772        -1.27075
C         24.47842        26.65444        -1.16137
C         25.67659        28.75712        -1.61951
C         24.42420        29.52016        -1.59710
C         25.71463        31.63692        -1.62553
C         24.47022        30.90745        -1.68562
C         25.75832        33.10035        -1.93485
C         24.51934        33.90284        -2.08174
C         25.83629        36.00547        -2.20078
C         24.54501        35.26473        -2.23213
C         25.83906        37.53244        -2.24151
C         24.52172        38.31244        -2.50671
C         25.83844        40.41181        -2.00116
C         24.48531        39.73104        -1.97642
C         25.81665        41.90631        -1.65217
C         24.49114        42.61760        -1.61847
C         25.76650        44.70128        -0.99133
C         24.46243        44.01897        -1.12926
C         25.73822        46.17153        -0.67744
C         24.42784        46.84178        -0.53054
C         25.73822        49.01063        -0.01188
C         24.47458        48.32911        -0.46356
C         25.78716        50.53082         0.27641
C         24.39383        51.15637         0.42143
C         25.50503        53.09197         1.58451
C         24.36473        52.45615         0.88549
C         25.57972        54.55834         1.67558
C         24.37453        55.29414         1.64475
C         25.59740        57.30714         2.35359
C         24.37125        56.63401         2.06604
C         25.55014        58.68939         2.69202
C         24.32330        59.41670         2.73545
C         24.29885        60.82005         2.97651
C         26.81512         8.28984         1.77433
C         28.10993        10.23762         0.84801
C         26.81164         9.62650         1.36564
C         28.16725        11.75597         0.85093
C         26.89164        12.47928         0.65216
C         28.21138        14.67077         0.92098
C         26.90136        13.97931         0.75492
C         28.26911        16.05299         1.09708
C         27.00955        16.81253         1.43973
C         27.87994        19.09711         1.19316
C         26.80846        18.23070         0.99480
C         28.10685        20.32828         0.56611
C         26.95742        20.86273        -0.21756
C         28.12900        23.10477        -0.09296
C         26.90832        22.31907        -0.40710
C         28.32032        24.37864        -0.89409
C         26.99515        25.09775        -1.17164
C         28.18367        27.36027        -0.90869
C         26.97572        26.63117        -1.27036
C         28.07908        28.83482        -0.60692
C         26.97335        29.52168        -1.38948
C         28.10017        31.68887        -0.83180
C         26.89136        30.97828        -1.30740
C         28.14007        33.17175        -0.95882
C         27.02251        33.86178        -1.65895
C         28.16450        36.01903        -1.25912
C         27.00961        35.33306        -1.61534
C         28.13288        37.47656        -1.18670
C         26.98083        38.17356        -1.55775
C         28.11018        40.31031        -0.77497
C         26.85412        39.59573        -1.21721
C         28.13650        41.77688        -0.72482
C         27.00140        42.53465        -0.97565
C         28.08670        44.57847        -0.03092
C         26.97322        43.92287        -0.64202
C         28.07238        45.93257         0.30699
C         26.83733        46.70865         0.17262
C         28.08160        48.76017         1.06182
C         26.81056        48.14517         0.59868
C         27.94034        50.07572         1.71631
C         26.69797        50.85590         1.47631
C         28.03759        52.99108         2.02303
C         26.72503        52.29778         1.89338
C         28.02237        54.41047         2.08499
C         26.82039        55.18465         2.01935
C         26.81373        56.57814         2.28003
C         29.34196        12.44164         0.83252
C         30.62361        14.55223         0.51477
C         29.41677        13.90010         0.75621
C         30.70534        15.97924         0.53337
C         29.54769        16.69803         0.99440
C         30.75723        18.86061         0.74001
C         29.73197        18.06850         1.28455
C         30.64410        20.29524         0.65033
C         29.37603        20.97028         0.63646
C         30.66115        23.18023         0.70624
C         29.34796        22.44277         0.48115
C         30.58182        24.65535         0.27589
C         29.39108        25.27528        -0.30858
C         30.60836        27.43828        -0.50590
C         29.37719        26.67271        -0.55487
C         30.62047        28.84703        -0.64136
C         29.39400        29.58000        -0.71546
C         30.62115        31.72253        -0.68907
C         29.39427        30.96881        -0.74670
C         30.63974        33.14938        -0.75273
C         29.42801        33.88905        -0.92509
C         30.62386        35.99625        -0.63447
C         29.38316        35.27952        -0.96972
C         30.61053        37.48217        -0.58155
C         29.34391        38.20768        -0.84255
C         30.65296        40.36244        -0.91923
C         29.36803        39.57614        -0.76468
C         30.62705        41.70458        -0.23690
C         29.32019        42.33918        -0.05115
C         30.58293        44.46533         0.53529
C         29.28748        43.79400         0.34600
C         30.53978        45.84488         1.03965
C         29.21998        46.57456         0.97996
C         30.48397        48.69788         1.59049
C         29.23517        48.04325         1.17105
C         30.44225        50.00949         2.02500
C         29.15440        50.72923         2.37414
C         29.19458        52.22802         2.12057
C         31.87798        16.71037         0.23389
C         33.06326        18.87522        -0.07677
C         31.91164        18.13129         0.25990
C         33.07863        20.28580         0.00197
C         31.85407        21.03050         0.29570
C         33.10665        23.14317        -0.04161
C         31.87941        22.42368         0.21418
C         33.14089        24.52717        -0.15329
C         31.91891        25.33226        -0.05636
C         33.20187        27.42945        -0.63111
C         31.85483        26.68248        -0.65647
C         33.08130        28.84787        -0.24145
C         31.84531        29.59624        -0.54356
C         33.10269        31.75440        -0.32977
C         31.84370        30.99260        -0.52783
C         33.13104        33.18365        -0.70870
C         31.89861        33.87615        -0.75327
C         33.12831        36.00978        -0.73712
C         31.91137        35.28974        -0.75996
C         33.12946        37.46817        -0.63565
C         31.90383        38.19937        -0.64497
C         33.10692        40.30261        -0.32456
C         31.90319        39.59034        -0.59192
C         33.07780        41.70246        -0.03978
C         31.80378        42.38187         0.05199
C         33.03407        44.49457         0.68581
C         31.77866        43.78336         0.44896
C         33.00507        45.88510         0.99272
C         31.80081        46.61170         1.15395
C         31.72791        47.97667         1.46365
C         34.29006        20.98381        -0.18632
C         35.59376        23.07360        -0.17104
C         34.36085        22.39626        -0.16745
C         35.67324        24.50480        -0.15959
C         34.42046        25.22167        -0.61226
C         35.59072        27.39802        -0.00080
C         34.40963        26.69461        -0.27393
C         35.62791        28.80106        -0.11143
C         34.40361        29.56547         0.03003
C         35.68906        31.70355        -0.46193
C         34.40751        31.05288        -0.09307
C         35.64549        33.12378        -1.02283
C         34.35243        33.87791        -0.76948
C         35.63482        36.01307        -0.86028
C         34.34904        35.28527        -0.80135
C         35.63243        37.50674        -0.68287
C         34.33545        38.18899        -0.51858
C         35.56333        40.28305         0.02427
C         34.33490        39.58348        -0.27231
C         35.51350        41.65758         0.27705
C         34.28529        42.38905         0.26913
C         34.24182        43.78079         0.58947
C         36.83215        25.20044         0.09894
C         38.10117        27.46457         0.27355
C         36.82622        26.66810         0.47235
C         38.12508        28.79864        -0.01750
C         36.88444        29.47231        -0.57144
C         38.15423        31.66762        -0.64831
C         36.84627        30.98682        -0.46445
C         38.16662        33.17313        -0.67257
C         36.88785        33.90683        -0.66744
C         38.09842        36.01746        -0.26172
C         36.88388        35.26912        -0.57066
C         38.05722        37.39826        -0.07791
C         36.85928        38.18106        -0.19617
C         36.79415        39.53021         0.10926
C         39.33294        29.59655         0.07416
C         40.56129        31.74468         0.00836
C         39.36897        30.95085        -0.18383
C         40.56798        33.11502        -0.02040
C         39.38025        33.90027        -0.25172
C         39.31840        35.26834        -0.07512
O         19.23913        33.65519        -0.16039
O         16.92404        44.03130         1.54077
O         21.38569        46.11129         0.81123
O         26.20493        36.74916        -3.42106
O         26.06444        45.73975        -2.01900
O         21.57972        24.48331        -2.58546
O         15.90297        46.35780        -0.66692
O         22.66559        53.30927        -0.69096
O         16.79578        25.67915        -2.64371
O          9.79164        28.96710        -2.51690
O         18.54129        46.54326        -1.52223
O         29.66308        45.91295         2.22530
O         23.70767        25.00670         0.46798
O         26.74979        49.96552         2.62156
O         27.05762        25.75677        -2.48117
O         26.10932        11.96313        -0.46902
O         38.33547        32.36936        -1.93371
O         33.70728        31.66663         1.03627
O         25.76710        52.54730         2.96622
O         20.57654        28.05885        -0.03635
O         26.60677        16.37291         2.82818
O         22.41952        16.69792         2.95574
O         23.20776        32.65792        -0.47818
O         13.10257        35.06390         0.97868
O         13.43898        39.56556         1.74928
O         14.02945        42.19711        -0.82403
O         13.08693        32.60560        -2.71397
O         20.34311        50.89075        -1.67542
O         26.74149        33.35169        -3.01014
O         26.67594        20.08856        -1.45271
O         26.38710        51.15905        -0.81653
O         35.78116        36.90099        -2.02338
O          8.41928        31.52946        -2.16221
O         25.32795        42.60767        -2.84414
O         22.55489        35.71415        -3.62890
O         32.57228        26.99940        -1.88999
O         28.82099        18.68403         2.14860
O         16.31282        22.24348        -1.51077
O         17.14688        37.96541        -2.84177
O         16.23695        40.44104         1.26605
O         11.00001        24.45990        -1.51740
O         31.28348        25.46699         1.26767
O         16.38300        21.17428         1.89475
O         25.52416        48.75777        -1.42072
O         18.38458        24.33755         0.47654
O         27.04982        39.85362         0.19175
O         26.06038        14.63689        -0.24633
O         19.74598        12.14137         0.12587
O         28.34592        23.13847         1.35324
O         17.11838        14.28667         2.40390
O         17.58844        18.88426         2.24126
O         27.79798        32.56523         0.33016
O         21.01217         8.11945         3.42812
O         30.51050        36.70504         0.67716
O         21.14509        33.35020        -3.32623
O         16.81207        48.19319         2.18311
O         21.36209        44.72921        -2.49368
O         23.18363        18.91507        -1.20184
O         26.29363        47.12295         1.50073
O         19.38664        25.78331        -2.85605
O         20.03361        38.01667        -3.44176
O         22.40465        12.17994        -0.11111
O         33.55778        29.06514         1.11950
O         29.02315        42.74712         1.33911
O         26.63591        29.01845        -2.70686
O         36.69479        26.63246         1.94351
H         35.81089        26.26501         2.15968
O         35.67200        32.92596        -2.47191
H         36.60169        32.68076        -2.70642
O         34.45487        25.10411        -2.07058
H         33.74993        25.69768        -2.42916
O         18.85124        44.04831        -2.57883
H         19.60460        44.22858        -3.18755
O         26.34093        40.30790        -3.35664
H         25.80022        40.91506        -3.91147
O         29.23537         9.68848         1.53485
H         29.19477         9.96544         2.47267
O         21.18202        19.88033         1.85211
H         21.40356        19.30133         2.61375
O         13.24124        23.78171         1.50166
H         13.25756        23.01188         2.11221
O         30.72080        40.64475        -2.36906
H         31.58630        41.07064        -2.54846
O         22.70551        56.72615         3.73834
H         23.40641        57.00366         4.36509
O         30.84011        23.16863         2.14712
H         30.01641        23.53396         2.54015
O         27.64380        28.95227         0.78931
H         28.38479        28.67308         1.36822
O         20.42115        49.75228        -2.53285
H         21.40293        49.65027        -2.68940
O         22.21759        57.38217         0.17746
H         21.60170        56.99264        -0.47774
O          6.48983        34.06789        -1.46720
H          6.67855        33.24869        -1.97567
O         13.13186        20.22032         2.21832
H         13.97218        19.80476         2.51206
O         24.56228        17.82258         2.83043
H         25.36865        17.57482         3.34666
O         20.32518        19.32431        -1.64164
H         20.34326        19.93004        -2.41096
O         36.93811        29.24987        -2.02660
H         37.71867        29.73396        -2.37312
O         18.68563        33.42244        -3.52417
H         18.45636        34.34835        -3.74662
O         24.40809        38.45910        -3.95055
H         24.86117        37.68182        -4.35700
O         14.30564        39.80210        -1.82796
H         15.01730        39.47677        -2.41991
O         28.84972        23.92340        -2.17284
H         28.55013        24.57847        -2.84831
O         29.01040        50.60111         3.81957
H         28.05311        50.42947         3.99198
O         23.10184        49.36110        -2.10812
H         24.01509        49.60872        -2.39382
H          5.34092        31.15274         1.17567
H          5.29033        33.60673         1.20453
H          7.49494        27.00666         0.22039
H          6.37404        29.06830         0.50378
H          6.38796        35.83752         0.76311
H          7.72449        37.81714         1.11991
H          9.91434        22.75019         1.15516
H          8.46379        25.11283         0.55614
H          8.96708        39.86731         1.31104
H         10.17709        41.97463         1.42982
H         12.36866        18.40258        -0.08587
H         10.99021        20.53365         0.57048
H         11.23430        44.13210         1.24619
H         12.32248        46.31918         1.36678
H         15.00097        14.23434        -0.21417
H         13.73398        16.23987        -0.07972
H         13.59679        48.67869         1.31765
H         14.91955        50.80448         1.37387
H         17.20165         9.78414         1.50987
H         15.94850        11.65098         0.75896
H         16.11362        52.85964         1.59049
H         17.29902        55.00756         1.76195
H         19.84170         5.40100         1.82383
H         18.37271         7.77601         1.36994
H         18.47058        57.09662         2.14162
H         19.67103        59.23637         2.61117
H         23.16211         2.38347         3.12302
H         21.00761         3.54504         2.74425
H         23.08635        62.58831         3.21414
H         20.92694        61.39949         2.86659
H         25.30935         3.65479         3.04155
H         26.50008         5.69608         2.57914
H         26.49158        59.22467         2.88530
H         25.24583        61.35776         3.12628
H         27.76583         7.73785         1.79987
H         28.20767         9.91136        -0.22549
H         28.97166        54.93870         2.26240
H         27.76033        57.08968         2.50730
H         30.28854        11.88227         0.89039
H         31.52709        13.96314         0.29888
H         31.38094        50.50045         2.32612
H         30.16202        52.74158         2.23887
H         32.78982        16.16642        -0.05292
H         33.97891        18.34797        -0.38369
H         33.96292        46.41380         1.11507
H         32.66208        48.53073         1.64341
H         35.21562        20.40587        -0.33001
H         36.52155        22.48655        -0.08471
H         36.44377        42.19318         0.52015
H         35.18860        44.30381         0.79252
H         37.74665        24.63309         0.33935
H         39.03254        26.97658         0.60532
H         38.98578        37.91878         0.20432
H         37.70371        40.05491         0.44047
H         40.24904        29.09895         0.43033
H         41.49398        31.21047         0.24387
H         41.50582        33.65090         0.18875
H         40.22416        35.81518         0.22932
