         280
 CSIRO Nanostructure Databank - Neutral Graphene Oxide Data Set
C        -10.69678         0.67767        -1.68452
C         -9.42826         1.48141        -1.85926
C         -8.29544         0.72333        -1.17239
C         -7.09203         1.45332        -0.69733
C         -5.76260         0.72895        -0.61809
C         -4.58180         1.48893        -0.11124
C         -3.30057         0.74683         0.26092
C         -2.41077         1.29031         1.39343
C         -0.93724         0.71416         1.25603
C          0.02566         1.34343         2.28219
C          1.34114         0.63240         2.73196
C          2.67255         1.36898         2.38839
C          3.93534         0.63539         1.96450
C          5.03787         1.39931         1.24390
C          6.07479         0.63360         0.43505
C          6.87753         1.40613        -0.54484
C          7.75454         0.77173        -1.38374
C          8.59274         1.53492        -2.30617
C          9.29286         0.85679        -3.38474
C         -9.45842         2.95535        -1.49877
C         -8.32274         3.64774        -1.24820
C         -7.04650         2.93389        -0.97839
C         -5.83515         3.66925        -0.50522
C         -4.94233         2.86609         0.46049
C         -3.73494         3.60855         1.07283
C         -2.49970         2.84501         1.53777
C         -1.26445         3.62572         2.00212
C         -0.02545         2.84289         2.42760
C          1.28248         3.62077         2.65988
C          2.60939         2.89599         2.44470
C          3.80545         3.64703         1.86650
C          4.83652         2.87639         1.04387
C          5.43856         3.51020        -0.21596
C          6.91514         2.91172        -0.31735
C          7.77229         3.64810        -1.33471
C          8.62288         2.90730        -2.22637
C         -8.19761         5.14279        -1.51098
C         -7.20473         5.89641        -0.59798
C         -5.84923         5.16823        -0.46345
C         -4.70162         5.89447         0.14156
C         -3.71066         5.13018         0.98709
C         -2.48556         5.87711         1.41894
C         -1.28500         5.13292         1.97884
C          0.00837         5.89463         2.18118
C          1.26566         5.14701         2.51904
C          2.64118         5.86806         2.55895
C          3.77600         5.14507         1.79204
C          4.30258         5.82835         0.52529
C          5.42792         5.05666        -0.22035
C          6.65137         5.76279        -0.71128
C          7.75034         5.00726        -1.34352
C         -6.91822         7.27883        -1.10523
C         -5.89510         8.07987        -0.47173
C         -4.79502         7.40113         0.33348
C         -3.47564         8.13094         0.50692
C         -2.30866         7.29914         0.93883
C         -0.92585         7.69756         0.54431
C          0.19316         7.12994         1.35076
C          1.39597         7.99586         1.55271
C          2.61386         7.38542         2.21842
C          3.90071         8.08015         1.84542
C          4.59773         7.38156         0.67616
C          5.99525         7.86828         0.40053
C          6.91617         7.13595        -0.26892
C         -5.59180         9.41483        -1.03867
C         -4.37654         9.97880        -1.00710
C         -3.18486         9.45862        -0.23821
C         -1.93714         9.28017        -1.14555
C         -0.72973         8.90702        -0.30534
C          0.52638         9.37548        -0.48616
C          1.62287         9.02434         0.46276
C          3.08584         9.31306         0.10807
C          3.87653         9.56111         1.39405
C          5.27350        10.06969         1.14383
C          6.26251         9.26226         0.72389
C        -10.67649        -0.67190        -1.60130
C         -9.45617        -1.47945        -1.51170
C         -8.14562        -0.72939        -1.57875
C         -7.00403        -1.47195        -0.88495
C         -5.74431        -0.76433        -0.50262
C         -4.42963        -1.49674        -0.44461
C         -3.17545        -0.71797        -0.11732
C         -1.83199        -1.47441         0.17612
C         -1.00800        -0.87690         1.35409
C          0.41430        -1.51916         1.36515
C          1.39101        -0.89521         2.40669
C          2.70706        -1.61585         2.30982
C          3.82936        -0.84539         1.66385
C          4.87289        -1.59281         0.88330
C          6.07911        -0.86819         0.36087
C          6.86538        -1.52929        -0.71547
C          7.88310        -0.70767        -1.39304
C          8.64708        -1.36669        -2.54475
C          9.25487        -0.48368        -3.55974
C         -9.48430        -2.82797        -1.33740
C         -8.28683        -3.61126        -0.81940
C         -6.95346        -2.94254        -1.21948
C         -5.75678        -3.66898        -0.55411
C         -4.45392        -2.86385        -0.49450
C         -3.23480        -3.67439        -0.19235
C         -1.97743        -3.00399         0.25756
C         -0.90626        -3.80856         0.97393
C          0.31304        -3.07074         1.42534
C          1.29381        -3.77096         2.35499
C          2.66811        -3.12036         2.12214
C          3.76310        -3.86325         1.44044
C          4.93304        -3.10103         0.86292
C          5.81938        -3.71531        -0.18045
C          6.73788        -2.87133        -0.99681
C          7.49921        -3.50653        -2.05997
C          8.31642        -2.75812        -2.86224
C         -8.20976        -5.07577        -1.15637
C         -7.00127        -5.78398        -1.18590
C         -5.63488        -5.06925        -1.22178
C         -4.53276        -5.87701        -0.53249
C         -3.35161        -5.16348         0.04654
C         -2.46985        -5.87341         1.06175
C         -1.28648        -5.12054         1.73786
C         -0.03188        -6.01849         1.98771
C          1.30075        -5.31613         2.15593
C          2.47833        -5.99949         1.54454
C          3.53991        -5.28381         1.06606
C          4.39772        -5.85681        -0.00214
C          5.41429        -5.04503        -0.73032
C          6.29668        -5.75028        -1.70769
C          7.50108        -5.01474        -2.25740
C         -7.01765        -7.18475        -1.24673
C         -5.72593        -7.95694        -1.23184
C         -4.84161        -7.30989        -0.13063
C         -3.51158        -8.02764         0.03002
C         -2.52908        -7.37814         0.97354
C         -1.35584        -8.22388         1.39697
C         -0.08065        -7.53599         1.80690
C          1.27636        -8.33212         1.90353
C          2.50552        -7.49961         1.45218
C          3.61070        -8.17629         0.68644
C          4.62744        -7.35805        -0.09736
C          4.79148        -7.76798        -1.57877
C          5.97602        -6.99156        -2.13501
C         -5.84484        -9.44059        -0.96825
C         -4.78922       -10.14868        -0.53136
C         -3.49112        -9.50460        -0.20141
C         -2.36867       -10.27401         0.37837
C         -1.33504        -9.66306         0.99667
C         -0.11676       -10.43690         1.44385
C          1.14987        -9.65528         1.12021
C          2.14656       -10.20705         0.40994
C          3.56979        -9.68775         0.40090
C          4.33029       -10.09784        -0.83842
C          4.94547        -9.26461        -1.68266
O          3.74617        -7.94771         2.11959
O         -5.15720        -7.80295        -2.54829
H         -4.88025        -6.86240        -2.68560
O         -2.72143         0.36775        -1.00645
O          3.14074         5.69553        -0.32437
H          3.39194         6.06929        -1.20092
O          5.78654         2.37927         2.02569
O         -1.76905        -4.66899         3.00626
H         -1.05026        -4.80877         3.66908
O          1.13787        -1.16879         0.18183
H          0.64873        -1.52079        -0.60204
O         -4.72106         5.62564        -1.29670
O          1.46926        -8.75841         3.20380
O          4.01846        -5.09915        -1.23406
O         -6.73197        -1.20671         0.51221
O          1.25884         0.71418         4.15970
H          2.14561         0.50466         4.52870
O         -5.90601         7.94910         1.06219
O          9.24575        -1.19599        -1.21297
O          3.67962        -1.08171         0.20779
O          3.72625        -3.72521         2.91721
O          0.60356        -5.87902         3.29792
O          3.72441         0.95155         3.34732
O         -5.85298         2.61328         1.55442
H         -5.31815         2.49661         2.37703
O         -3.21389        -6.65838         2.04609
O          4.63084         4.49563         2.74301
O          0.30562        -3.78304         0.14972
O          3.27578        10.43899         2.32576
H          3.03638         9.90983         3.12231
O         -3.59296         3.16739         2.44466
O         -0.07292         6.63189        -0.02695
O         -1.01860        -8.05604         2.80062
O          7.51968         3.11557         0.92218
O          3.73480         8.07239        -0.40634
O         -3.00247         0.77758         2.59036
H         -2.54974         1.20103         3.35644
O         -4.80783         1.28795        -1.53948
O         -2.12707        -3.47252        -1.12871
O         -6.82905        -3.09256        -2.64641
H         -5.82527        -4.43905        -3.09574
O         -2.97618        -8.53896        -1.21000
O          3.52872         7.98792         3.22386
O         -2.97182         8.21998         1.87325
O         -5.96430         3.28340        -1.90889
O          0.45130         5.84229         3.53991
O         -3.63949         5.75828         2.29275
O          0.84436        -3.52655         3.68987
H          1.53940        -3.83708         4.30922
O         -0.09842       -11.73562         0.87251
H         -0.13951       -11.65451        -0.10205
O          1.15284         9.38209         1.82658
O         -3.27912        -5.82342        -1.26267
O         -7.69518        -0.65377        -3.02650
H         -7.17957        -2.29105        -3.10886
O         -7.77913         5.93955         0.72485
H         -7.30800         6.64268         1.23658
O         -8.79931        -1.02971        -3.89086
H         -9.25641        -0.14801        -4.01489
O         -5.20624        -5.01779        -2.58983
O         -0.56309         1.94412         3.45764
O          6.89146        -0.19078         1.35376
O         -1.05206        -1.27039        -1.02669
H         -1.42050        -1.88744        -1.70641
O         -5.60747        -7.36750         1.07976
H         -5.03400        -7.03627         1.81432
O          2.05842        -1.44334         3.59357
O          5.41562         5.58058        -1.59155
O         -1.63460         4.42295         3.17702
O          8.69079        -5.53025        -1.63161
H          8.63828        -5.35366        -0.66940
O          2.13717         3.25947         3.77718
O          6.19962        -3.70514         1.24266
O          3.59780        -7.45194        -2.32757
H          3.51540        -6.46833        -2.35340
O         -6.01819        -3.94917         0.83378
H         -6.38168        -3.12949         1.24569
O          4.66063         3.05874        -1.32528
H          4.72509         3.75589        -2.02028
O          2.99118         5.83271         3.94659
H          2.91573         4.90254         4.26549
O         -8.12700         1.03297         0.23390
O         -8.46488        -3.51887         0.62571
H         -9.21014        -4.10073         0.88243
O         -9.18536         1.51610        -3.30640
H         -8.39925         2.07877        -3.47720
O          4.22612       -10.36834         1.49472
H          3.91573        -9.93250         2.32280
O         -1.65178        -1.30169         2.55221
H         -1.12824        -1.02244         3.33365
O         -2.22777         8.20536        -2.04383
H         -1.42395         7.99574        -2.56216
O         -0.38962         1.13549         0.00556
H         -0.79854         0.60029        -0.72318
O          5.90675        -7.60346         0.53154
H          5.74232        -7.73398         1.49234
O         -7.74015         5.26393        -2.86627
H         -6.88179         4.78106        -2.93005
O         -2.85631        10.47775         0.71900
H         -2.81226        10.05545         1.60981
H          9.72169        -0.94634        -4.44194
H          9.80627         1.49045        -4.12343
H          9.23947         3.48055        -2.93584
H          8.42598         5.57027        -2.00598
H          7.90190         7.56907        -0.49260
H          7.28062         9.64391         0.55950
H          5.46328        11.12924         1.36508
H          3.17343        10.08932        -0.68831
H          0.72818        10.16494        -1.22777
H         -1.73484        10.22795        -1.71549
H         -4.22758        10.95494        -1.49334
H         -6.40374         9.90877        -1.59423
H         -7.34157         7.60827        -2.06470
H         -9.19921         5.63107        -1.44479
H        -10.38241         3.50547        -1.73932
H        -11.66039         1.20858        -1.70269
H        -11.62994        -1.21773        -1.52467
H        -10.46375        -3.33398        -1.29378
H         -9.15064        -5.65200        -1.18343
H         -7.98527        -7.70845        -1.32302
H         -6.79705        -9.94486        -1.19333
H         -4.87365       -11.23387        -0.36861
H         -2.32503       -11.35946         0.19729
H         -0.14328       -10.55258         2.55879
H          1.98945       -11.21091        -0.01902
H          4.43296       -11.18541        -0.97660
H          5.50888        -9.66484        -2.53994
H          6.59651        -7.47088        -2.90910
H          7.60258        -5.23890        -3.35048
H          8.79762        -3.22349        -3.73647
