         661
 CSIRO Nanostructure Databank - Neutral Graphene Oxide Data Set
C          6.04147        31.40555         1.02932
C          6.00169        32.75278         0.96619
C          8.36907        27.24541         2.30666
C          8.36728        28.63302         2.20667
C          7.19903        29.32931         1.72631
C          8.40687        31.46006         1.81882
C          7.19692        30.69209         1.56147
C          8.39204        32.82732         1.66819
C          7.08882        33.59074         1.59060
C          8.36182        35.72734         1.12449
C          7.20740        34.98048         1.01884
C          8.44616        37.08652         0.70403
C         10.84911        23.13040         2.06861
C         10.67969        24.25606         3.03593
C          9.55172        25.13565         2.56708
C         10.67168        27.22446         3.31256
C          9.51947        26.49377         2.71951
C         10.70843        28.71426         3.12013
C          9.55791        29.38977         2.48988
C         10.82294        31.49052         2.53054
C          9.61460        30.76320         2.24405
C         10.85290        32.91733         2.33833
C          9.65511        33.57115         1.75212
C         10.73092        35.87633         2.10895
C          9.62821        35.04532         1.53585
C         10.76817        37.29386         1.64760
C          9.60414        37.88335         0.91254
C         10.82394        40.05039         1.23465
C          9.66969        39.24092         0.66447
C         10.89707        41.42016         0.63401
C         13.30615        19.41521         0.13743
C         13.25910        20.32539         1.32598
C         12.07407        21.22205         1.26381
C         13.31255        23.05546         2.40530
C         12.06919        22.46981         1.90095
C         13.29147        24.38018         2.95399
C         11.98998        25.01111         3.29559
C         13.25096        27.27131         3.45939
C         11.97797        26.50339         3.50518
C         13.22344        28.68101         3.44956
C         12.00610        29.41610         3.18196
C         13.20051        31.59951         3.39076
C         11.98925        30.80212         2.97366
C         13.26677        32.99199         2.78771
C         12.01859        33.65873         2.47254
C         13.28574        35.85990         2.15622
C         11.99156        35.17940         2.64229
C         13.22394        36.99586         1.14397
C         12.08270        37.94297         1.42611
C         13.36175        39.90777         0.70589
C         12.12533        39.27024         1.11263
C         13.33801        41.24825         0.30899
C         12.08696        42.00438         0.24518
C         13.31466        44.00297        -0.55991
C         12.11722        43.36425        -0.20379
C         13.35178        45.36365        -0.97294
C         15.80051        16.21375        -2.65821
C         15.74571        17.21728        -1.66839
C         14.54936        17.87003        -1.30626
C         15.74967        19.28868         0.36021
C         14.50639        18.86558        -0.28373
C         15.75778        20.45440         1.23242
C         14.54740        21.08224         1.54592
C         15.77589        22.95798         2.58164
C         14.53361        22.36038         2.18764
C         15.73854        24.27074         3.33553
C         14.47144        25.09074         3.20640
C         15.72601        27.18278         3.71584
C         14.49347        26.51819         3.49281
C         15.71287        28.69066         4.05702
C         14.47922        29.42489         3.50879
C         15.71137        31.53046         3.00070
C         14.47246        30.78142         3.27634
C         15.72835        33.04070         3.17476
C         14.45658        33.65740         2.66890
C         15.72778        35.46234         1.33890
C         14.53273        35.06312         2.19326
C         15.71668        36.94665         0.99602
C         14.56392        37.67811         0.95046
C         15.78161        39.70867         0.27790
C         14.59215        39.11296         0.63161
C         15.82150        41.16420         0.06098
C         14.54829        41.91137        -0.09022
C         15.75213        43.85813        -1.08754
C         14.53853        43.22618        -0.51773
C         15.87973        45.36551        -1.01331
C         14.55183        46.07678        -1.23166
C         15.79460        48.17972        -1.78497
C         14.55169        47.40474        -1.63730
C         15.82736        49.55965        -2.27638
C         18.40891        12.96308        -5.44076
C         18.42615        14.26122        -4.66538
C         17.09483        14.71397        -4.11756
C         18.25165        15.95798        -2.32392
C         17.02916        15.59126        -3.04354
C         18.17061        16.96336        -1.31547
C         16.96949        17.59277        -0.98413
C         18.17432        19.12755         0.57136
C         16.93063        18.63790         0.01396
C         18.16162        20.22799         1.50648
C         17.00188        20.97789         1.76898
C         18.22325        22.98954         2.80372
C         16.98775        22.26662         2.46480
C         18.21936        24.42954         2.96793
C         16.98880        25.08362         3.17281
C         18.21475        26.90470         4.09304
C         16.95370        26.41688         3.65551
C         18.23201        29.05443         4.30890
C         17.00981        29.46113         3.77462
C         18.20247        31.66510         3.42234
C         17.01163        30.80151         3.18578
C         18.17521        33.03084         2.85307
C         16.99416        33.69742         2.65060
C         18.18007        35.73262         1.93148
C         17.00534        35.02390         2.04739
C         18.29203        36.89789         1.00277
C         17.01104        37.51859         0.52877
C         18.32797        39.65868         0.03433
C         17.00920        38.89524        -0.12619
C         18.35069        41.00235        -0.65910
C         17.09458        41.79433        -0.37854
C         18.32204        43.82631        -1.21532
C         17.04438        43.10886        -1.07470
C         18.27983        45.12013        -1.91010
C         16.94092        45.87647        -2.02574
C         18.30216        48.07669        -2.39169
C         17.08977        47.39286        -1.85522
C         18.30301        49.56175        -2.36465
C         17.03154        50.23904        -2.47384
C         18.25374        52.33083        -2.89316
C         17.06381        51.64557        -2.75989
C         18.21423        53.83223        -3.07444
C         20.70724         9.00396        -7.13386
C         20.78433        10.29473        -6.64012
C         19.56508        11.18647        -6.73877
C         20.88873        13.01253        -5.43331
C         19.56550        12.36785        -5.79373
C         20.82324        13.77876        -4.12081
C         19.46501        14.11478        -3.53828
C         20.70421        15.74775        -2.07056
C         19.47866        15.32270        -2.63158
C         20.69426        17.03793        -1.28949
C         19.39821        17.24034        -0.48891
C         20.68663        19.32491         0.39067
C         19.37918        18.58655         0.18339
C         20.65122        20.24971         1.59165
C         19.43333        20.44735         2.15722
C         20.73816        22.98720         2.86155
C         19.44376        22.37588         3.04132
C         20.73441        24.42119         2.95515
C         19.46826        25.11473         3.10629
C         20.71391        27.22032         3.77078
C         19.45132        26.43138         3.63955
C         20.75147        28.76424         3.91416
C         19.50609        29.55841         3.94347
C         20.79527        31.65490         3.30677
C         19.54656        30.99245         3.68064
C         20.71079        32.97858         2.59342
C         19.45004        33.75108         2.88984
C         20.69712        35.87128         2.23874
C         19.41847        35.20724         2.52508
C         20.53557        37.36079         2.07935
C         19.63225        37.64644         0.85464
C         20.67280        39.97922         0.69880
C         19.48973        39.14887         0.57312
C         20.71573        41.31247         0.18356
C         19.55481        41.87301        -0.37754
C         20.78730        43.97626        -0.94516
C         19.53095        43.23256        -0.83878
C         20.82422        45.21480        -1.55599
C         19.60111        45.82330        -2.12192
C         20.85652        48.05654        -2.22603
C         19.59287        47.30656        -2.41221
C         20.78414        49.56498        -2.01885
C         19.50548        50.25062        -2.45776
C         20.74108        52.35645        -2.94420
C         19.51083        51.65698        -2.73520
C         20.75729        53.71470        -3.37811
C         19.52673        54.45221        -3.49957
C         20.75836        56.43665        -4.28829
C         19.54167        55.76099        -3.91682
C         20.73665        57.78958        -4.60259
C         22.88426         5.98655        -7.60512
C         21.75846         6.80094        -7.61145
C         23.08826         8.63543        -6.66966
C         21.83720         8.13652        -7.13835
C         23.17436         9.97565        -6.21349
C         22.02723        10.79538        -6.13681
C         23.23379        12.48885        -4.82274
C         22.09045        12.08182        -5.46058
C         23.30751        13.83952        -4.14921
C         21.97398        14.22261        -3.54273
C         23.17673        15.61876        -1.87287
C         21.93959        15.19836        -2.46538
C         23.13648        16.50903        -0.68495
C         21.85144        17.15124        -0.31866
C         23.14850        18.96199         0.91096
C         21.79729        18.28739         0.70858
C         23.17184        20.28946         1.58176
C         21.91201        20.75900         2.30203
C         23.19239        22.96813         2.57470
C         21.93082        22.27833         2.57405
C         23.19270        24.42162         2.76593
C         21.95048        25.10765         2.97208
C         23.17803        27.37132         3.00132
C         21.90614        26.58994         3.08895
C         23.18048        28.81784         3.33841
C         22.00633        29.50449         3.53483
C         23.21526        31.68226         3.03218
C         21.99182        30.95741         3.32708
C         23.17869        33.10803         2.80495
C         21.96575        33.79625         2.67395
C         23.15415        35.95298         2.25363
C         21.90518        35.21285         2.40885
C         23.14191        37.32216         1.99925
C         21.87327        38.09333         1.99706
C         23.17803        40.13021         1.14728
C         21.87978        39.45111         1.36486
C         23.10859        41.58318         0.93626
C         21.92045        42.13238         0.24513
C         23.23736        44.14599        -0.39315
C         21.98733        43.38454        -0.35678
C         23.29417        45.40117        -1.05346
C         22.13551        45.86759        -1.93367
C         23.30022        48.12451        -2.15852
C         22.02455        47.38755        -2.04070
C         23.28787        49.60196        -2.32179
C         22.03226        50.29628        -2.43114
C         23.21729        52.37697        -2.99394
C         21.99357        51.65743        -2.77588
C         23.23427        53.67931        -3.47888
C         21.98760        54.36623        -3.70778
C         23.24958        56.35061        -4.46052
C         22.00393        55.69965        -4.19790
C         23.26874        57.68485        -5.06708
C         21.91448        58.47809        -5.12052
C         23.24038        60.55067        -5.32407
C         22.02458        59.93215        -5.11933
C         24.11334         6.45928        -7.12349
C         25.48320         8.24772        -6.10629
C         24.24344         7.77708        -6.64842
C         25.62173         9.54129        -5.61407
C         24.48392        10.47898        -5.77338
C         25.56804        11.88799        -3.93223
C         24.50588        11.76840        -5.00263
C         25.67301        13.26768        -3.33819
C         24.48872        14.00299        -3.20305
C         25.54215        15.12740        -1.23768
C         24.38618        15.01054        -2.19744
C         25.55573        16.39262        -0.40729
C         24.40087        17.01609        -0.09991
C         25.65100        18.82722         1.15196
C         24.35406        18.04799         1.02604
C         25.65713        20.20509         1.62638
C         24.47048        20.89264         1.96776
C         25.71915        22.96640         2.46554
C         24.42850        22.25605         2.37948
C         25.67013        24.47890         2.52223
C         24.38119        25.18414         2.64242
C         25.64032        27.31809         2.66776
C         24.44506        26.62091         2.78254
C         25.73662        28.76226         2.98984
C         24.46750        29.54766         3.28724
C         25.66982        31.69003         2.79529
C         24.45968        31.00547         3.03392
C         25.67462        33.13510         2.75019
C         24.41744        33.85365         2.72655
C         25.62034        36.01130         2.53325
C         24.38514        35.22810         2.44876
C         25.69095        37.33938         1.88033
C         24.37913        38.03026         1.60621
C         25.63710        40.21422         1.33703
C         24.37881        39.50118         1.38942
C         25.67705        41.58279         1.10391
C         24.41410        42.34676         0.92854
C         25.65021        44.31606         0.09010
C         24.43195        43.63397         0.19551
C         25.69117        45.59771        -0.50197
C         24.49992        46.12619        -1.05462
C         25.71576        48.35137        -1.39022
C         24.56275        47.45394        -1.70676
C         25.77442        49.60241        -2.19734
C         24.47905        50.27785        -2.42812
C         25.70779        52.23275        -3.30226
C         24.49969        51.77961        -2.48811
C         25.71832        53.71313        -3.57431
C         24.50149        54.37328        -3.71169
C         25.73854        56.41973        -4.38536
C         24.48024        55.73174        -4.16924
C         25.72025        57.79445        -4.75694
C         24.51960        58.46356        -5.04794
C         24.46434        59.84453        -5.32371
C         26.82594        10.03964        -5.04577
C         28.06365        11.76536        -3.80119
C         26.87626        11.25434        -4.33203
C         28.17134        12.97051        -3.03477
C         26.92594        13.73165        -2.77098
C         27.97080        15.59935        -1.47651
C         26.84622        14.83785        -1.92102
C         28.03991        16.28779        -0.29979
C         26.78249        16.70425         0.42592
C         28.09003        18.89989         0.79181
C         26.81184        18.17050         0.82222
C         28.12202        20.21845         1.42763
C         26.94168        20.86909         1.74047
C         28.12238        23.01842         1.70915
C         26.96648        22.30135         1.99198
C         28.02068        24.47880         1.44604
C         26.77173        25.20756         1.81597
C         28.15743        27.28838         2.19812
C         26.77701        26.73505         1.85539
C         28.16992        28.80885         2.38590
C         26.91426        29.53430         2.54949
C         28.09419        31.66634         2.27518
C         26.90485        30.95164         2.55598
C         28.07988        33.11528         2.16421
C         26.88000        33.82969         2.58950
C         28.20825        36.01218         2.37851
C         26.94941        35.27854         2.65288
C         28.15246        37.46452         2.22836
C         26.95705        38.09155         1.95544
C         28.07463        40.31201         1.93037
C         26.96377        39.46303         1.32148
C         28.14516        41.65766         1.23736
C         26.93873        42.28392         0.96617
C         28.14219        44.20684        -0.05644
C         26.91228        43.78299         0.74362
C         28.14718        45.69812        -0.31269
C         26.95571        46.33165        -0.55164
C         28.27474        48.47602        -1.03510
C         26.97548        47.78621        -0.81261
C         28.24698        49.95578        -1.37973
C         27.04310        50.37198        -2.20733
C         28.23994        52.15707        -3.49403
C         27.02775        51.83971        -2.60345
C         28.20031        53.64186        -3.77719
C         26.98994        54.34903        -3.84912
C         26.95212        55.73548        -4.20184
C         29.43122        13.20913        -2.44922
C         30.70566        14.69616        -0.77905
C         29.83197        14.43037        -1.79936
C         30.67569        16.02627        -0.07845
C         29.36724        16.74314         0.20879
C         30.67562        18.87059         0.78235
C         29.39233        18.21582         0.45406
C         30.67148        20.20169         1.17364
C         29.43990        20.86505         1.76040
C         30.57548        23.03836         1.29878
C         29.39190        22.35455         1.50957
C         30.58231        24.49436         1.05574
C         29.26733        25.26740         1.14778
C         30.55562        27.37751         1.49737
C         29.34030        26.67399         1.58227
C         30.63492        28.77098         1.75032
C         29.35998        29.50337         1.83874
C         30.61630        31.73271         1.96566
C         29.32771        31.01437         1.82922
C         30.66487        33.11119         2.06776
C         29.39574        33.88021         1.99988
C         30.71319        36.01132         2.52823
C         29.39177        35.32944         2.28426
C         30.67756        37.50503         2.27058
C         29.41863        38.21792         2.17900
C         30.60587        40.44509         2.28306
C         29.39612        39.58287         1.99399
C         30.64303        41.71212         1.43662
C         29.42963        42.30392         1.04598
C         30.57420        44.41580         0.55204
C         29.42390        43.65539         0.53073
C         30.45216        45.83411         0.35433
C         29.37912        46.45176        -0.26168
C         30.74865        48.45484        -1.18485
C         29.46158        47.83435        -0.75535
C         30.69535        49.69653        -1.86002
C         29.50531        50.44587        -2.08368
C         29.50176        51.58114        -2.87692
C         31.89152        16.84458        -0.00362
C         33.12696        18.88433         0.62555
C         31.90718        18.17437         0.46476
C         33.14099        20.25865         0.95677
C         31.89300        20.94088         1.17983
C         33.07103        23.09744         1.27295
C         31.86238        22.36069         1.27942
C         33.06145        24.54106         1.27549
C         31.84468        25.22121         1.18147
C         33.09660        27.45400         1.06381
C         31.78617        26.68444         1.05450
C         33.09019        28.86663         1.49994
C         31.85943        29.49651         1.74231
C         33.17544        31.69752         2.09191
C         31.84085        30.93131         2.10682
C         33.12079        33.16388         1.92441
C         31.91611        33.83538         2.02992
C         33.16652        36.04416         2.03450
C         31.85492        35.33015         1.77159
C         33.13838        37.45511         2.13462
C         31.88832        38.17663         2.21001
C         33.22798        40.36412         1.94145
C         31.92982        39.65842         2.29614
C         33.12588        41.73629         1.39014
C         31.90573        42.36423         1.18572
C         33.19225        44.56568         0.65546
C         31.90964        43.69214         0.43203
C         33.25322        45.69898        -0.37166
C         32.35722        46.73078        -0.30241
C         32.01872        47.81638        -1.16709
C         34.34498        20.99845         1.06761
C         35.53815        23.13628         1.38600
C         34.33366        22.39881         1.25270
C         35.54374        24.54932         1.44463
C         34.30966        25.26724         1.32926
C         35.55863        27.38389         1.30711
C         34.34671        26.68012         1.23994
C         35.54685        28.84332         0.90282
C         34.33157        29.58996         1.45342
C         35.55780        31.75746         1.26732
C         34.36816        30.96131         1.64307
C         35.57658        33.20852         1.57385
C         34.37372        33.88705         1.76596
C         35.63604        36.00517         2.00205
C         34.37512        35.31862         1.92768
C         35.56580        37.40378         2.21314
C         34.38686        38.17796         2.07319
C         35.60993        40.18165         1.12097
C         34.45991        39.56281         1.74067
C         35.51860        41.53495         0.73851
C         34.35731        42.34608         0.89386
C         34.39338        43.67276         0.51353
C         36.75094        25.29034         1.59792
C         38.07304        27.41454         1.75048
C         36.76613        26.68164         1.54211
C         37.99443        28.91267         1.55573
C         36.84531        29.55890         1.20647
C         38.16272        31.79678         1.00122
C         36.84381        31.02878         0.98807
C         38.04868        33.16803         1.62554
C         36.84909        33.88852         1.66207
C         38.14032        35.99284         1.45401
C         36.88032        35.32846         1.83444
C         38.14343        37.31746         0.85883
C         37.27797        38.31618         1.30559
C         36.80443        39.48905         0.70323
C         39.22743        29.65611         1.76078
C         40.55558        31.74388         1.74297
C         39.31688        31.00136         1.56674
C         40.56366        33.08565         1.87576
C         39.30127        33.88038         2.07153
C         39.30090        35.24011         1.43359
O         29.12020        15.55548        -2.27249
O         19.40393        21.03254         3.43485
O         28.67564        18.94058        -0.60591
O         28.40469        27.87053         3.50416
O         14.24427        36.06887         3.24100
O         18.86095        47.58978        -3.65511
O         20.98018        27.84065         5.05029
O         23.25058        20.16668         0.09702
O         21.81919        39.26683         2.88088
O         24.21635        47.45551        -3.12971
O         10.33473        36.94815         3.01627
O         18.74129        31.67568         4.75812
O         29.82766        24.93439        -0.14982
O         29.10378        30.23274         0.58828
O         32.58501        31.22126         3.34157
O         24.94500        11.75450        -6.38988
O         10.07314        34.18500         0.43216
O         22.22140        15.90288         0.33578
O         10.32437        28.09121         4.42827
O         26.74295        49.49221        -3.33263
O         31.47552        46.66183         0.81641
O         16.43314        31.00430         1.84530
O         36.71652        38.06505         2.59469
O         22.26766        27.21405         1.80834
O         17.74135        36.54718        -0.33396
O         32.37821        27.21006        -0.18583
O         16.71937        47.97327        -0.58577
O         26.27924        35.89788         3.82194
O         26.94390        24.72757         0.44343
O         19.42039        34.75567         3.93734
O         35.99896        31.45993        -0.14478
O         23.54697        42.36822         2.11140
O         18.20978        27.88893         5.08245
O         25.98219        48.53342         0.02588
O         25.12505        37.32023         0.51802
O         32.78757        40.18500         3.35966
O         11.97755        25.57095         4.65395
O         16.21512        43.18748        -2.29397
O         29.96729        15.94528         1.26180
O         25.35387        29.11430         4.37788
O         16.75401        41.85745         1.03040
O         28.58746        33.55955         0.82364
O         26.00733        23.71489         3.71850
O         18.98109        45.04506        -3.20349
O         22.50468        57.81600        -6.29132
O         20.31671        37.09713        -0.29286
H         19.62816        36.83634        -0.94604
O         31.96543        43.33155        -0.98627
H         31.25100        42.68242        -1.16074
O         39.20068        34.06868         3.53332
H         38.50275        34.73962         3.69367
O         15.51787        28.75127         5.50462
H         16.29806        28.31461         5.91738
O         26.61165        15.93475         1.66081
H         26.48917        14.99536         1.38861
O         19.03755        12.97501        -2.73171
H         19.56773        12.97311        -1.90712
O         18.36356        10.42362        -6.60252
H         18.31708        10.08654        -5.68457
O         16.34144        45.58900         0.33484
H         16.36386        46.56484         0.49112
O         13.08859        19.46375         2.52917
H         13.88873        18.89949         2.59569
O         30.38521        40.91714         3.65614
H         31.28452        41.02872         4.05345
O         15.75401        33.24442         4.61658
H         15.70437        34.20730         4.79531
O         27.22041        52.67560        -1.45422
H         26.47061        52.52850        -0.83251
O         20.74875        49.67924        -0.53687
H         20.48908        50.59948        -0.31621
O         31.55948        35.50292         0.35769
H         32.21944        34.99817        -0.16164
O         21.13255        14.03034        -6.46732
H         21.98770        14.47782        -6.22831
O         11.93578        35.31707         4.07781
H         12.85979        35.44956         4.39558
O         18.36668        40.75978        -2.09705
H         19.20016        40.29671        -2.32102
O         19.38102        16.25638         0.58972
H         20.05795        16.53458         1.25892
O          6.68046        33.79451         2.99829
H          6.51178        32.90960         3.38728
O         18.84508        15.32550        -5.56231
H         19.62254        14.99288        -6.08390
O         28.01846        43.55109        -1.35456
H         28.73202        43.88554        -1.93706
O         12.88796        36.34324        -0.11711
H         12.94980        37.00621        -0.83635
O         28.14113        51.46881        -4.78637
H         27.96873        50.51640        -4.59636
O         15.75771        23.88699         4.76919
H         14.87910        23.50415         4.98204
O         10.25490        23.66467         4.30368
H         10.54295        24.29377         5.00667
O         27.01812        44.40024         2.05133
H         26.26611        44.09070         2.59921
O         20.86653        20.08115        -0.81860
H         21.79941        20.40468        -0.84725
O         21.38885        17.69657         1.96490
H         22.16376        17.18793         2.30800
O         29.59006        20.69797         3.21950
H         30.43071        21.12961         3.48266
O         20.86039        18.06732        -2.28716
H         20.07626        18.06127        -2.87476
O         20.53826        32.62272         1.16363
H         21.36556        32.19014         0.86080
O         39.09064        26.87530         0.89187
H         38.83608        27.06544        -0.03456
O         16.79956        38.66872        -1.54899
H         17.29870        37.85494        -1.78569
O         25.54723        51.59335        -4.58399
H         26.38886        51.70885        -5.09126
O         10.52995        40.23181         2.65697
H         10.45531        39.34024         3.06381
O         13.03172        31.84109         4.82556
H         13.05226        30.97445         5.28569
O         25.35598        14.04988        -0.23426
H         24.42225        14.09848         0.06913
O         16.42261        45.67482        -3.34813
H         17.18528        45.45014        -3.93090
O         17.16080        54.20985        -3.96878
H         17.37353        53.85892        -4.85766
O         33.20741        45.07283         2.00251
H         32.56647        45.82181         2.04094
O         31.00069        35.82875         3.94415
H         30.33896        36.33327         4.46259
O         15.64332        34.71401         0.10557
H         16.39579        35.01113        -0.45654
O         25.04675        11.06059        -2.83116
H         25.65535        11.16302        -2.06859
O         24.15997        17.28611         2.25104
H         24.96193        16.71110         2.35313
O         28.14729        50.64709        -0.10754
H         28.94187        50.42361         0.42019
O         26.52347        27.22167         0.50980
H         26.66995        26.46190        -0.10726
O         27.68571        40.57126         3.30614
H         28.48611        40.91362         3.77286
O         21.99821        20.10482         3.59431
H         21.14459        20.27141         4.05747
O         22.44179        45.36883        -3.26950
H         23.18325        45.92607        -3.61316
O         23.53962        14.80206        -5.24577
H         24.34194        14.50913        -5.73072
O         24.63977        52.24850        -1.10207
H         23.88418        51.89276        -0.58782
O         35.39802        28.82856        -0.54673
H         35.45337        29.76970        -0.84176
O         27.27506        39.23659        -0.08059
H         26.61840        38.58255        -0.41477
O         19.79547        37.82072         3.22792
H         20.31384        38.56101         3.62895
O         38.52557        32.05769        -0.39166
H         37.67698        32.19822        -0.87295
H          5.19993        30.80502         0.65121
H          5.11610        33.26436         0.56005
H          7.47187        26.68605         2.00246
H          6.29833        28.74310         1.49060
H          6.28544        35.46083         0.65551
H          7.55049        37.56122         0.27469
H          9.93701        22.66789         1.66186
H          8.66656        24.62696         2.15493
H          8.81801        39.76643         0.20674
H          9.96912        42.01147         0.60297
H         12.36008        19.08707        -0.31855
H         11.12806        20.81858         0.87228
H         11.17157        43.92589        -0.23850
H         12.39638        45.90520        -1.05650
H         14.87657        15.92763        -3.18341
H         13.60815        17.58304        -1.79876
H         13.59660        47.91320        -1.84009
H         14.87462        50.08256        -2.44476
H         17.45037        12.52613        -5.76406
H         16.18530        14.51317        -4.70616
H         16.11503        52.19403        -2.85328
H         17.94237        54.27788        -2.07399
H         19.74521         8.63710        -7.52135
H         19.55424        11.60561        -7.78533
H         18.59247        56.31251        -3.98742
H         19.80719        58.36264        -4.46410
H         22.81132         4.95353        -7.97338
H         20.79733         6.41564        -7.98058
H         23.27490        61.64773        -5.39179
H         21.12427        60.53083        -4.91836
H         24.98820         5.79341        -7.11159
H         26.33035         7.54787        -6.04369
H         26.67180        58.34355        -4.81910
H         25.40493        60.40873        -5.40010
H         27.74550         9.44177        -5.14445
H         28.99502        11.21127        -3.99953
H         29.14083        54.17615        -3.98576
H         27.89848        56.26814        -4.38054
H         30.17036        12.39450        -2.51527
H         31.33451        13.90291        -0.34892
H         31.63159        50.08254        -2.29357
H         30.46110        51.90630        -3.31437
H         32.83913        16.40037        -0.34429
H         34.07950        18.36390         0.44806
H         33.95292        45.62043        -1.21543
H         32.80245        48.23764        -1.81582
H         35.30843        20.47685         0.97011
H         36.49433        22.59361         1.42326
H         36.40164        42.00091         0.27609
H         35.33792        44.10019         0.14406
H         37.69839        24.74820         1.73248
H         38.42044        27.21668         2.80270
H         38.83214        37.51163         0.02369
H         37.37168        39.92765        -0.13115
H         40.10964        29.09230         2.09829
H         41.50022        31.17793         1.75277
H         41.51660        33.62140         2.00167
H         40.23205        35.67042         1.03718
