         252
 CSIRO Nanostructure Databank - Neutral Graphene Oxide Data Set
C         30.82109        31.49171        -0.79139
C         30.59816        32.69395        -1.05751
C         31.07281        35.82909        -2.39934
C         30.99751        37.06547        -2.45416
C         30.69907        40.20308        -1.83355
C         30.70560        41.41672        -2.04202
C         32.75671        28.81111         0.93753
C         31.86659        29.30465         0.21424
C         33.11496        31.27499        -0.10696
C         31.83786        30.59771        -0.37681
C         33.42896        32.48838        -0.93727
C         31.18028        33.96339        -0.68699
C         32.97692        35.68209        -0.98737
C         31.75430        34.91231        -1.53232
C         33.00016        37.17248        -1.06983
C         32.04883        38.02934        -1.97490
C         32.97031        40.17131        -1.06140
C         31.66595        39.28543        -1.16961
C         33.07544        41.49274        -1.40856
C         31.93959        42.23353        -2.25636
C         33.08746        44.16843        -1.59668
C         31.95417        43.68846        -1.79821
C         35.47587        27.42468         1.80568
C         35.26905        28.77925         1.47652
C         33.92490        29.49101         1.58165
C         35.26713        31.62666         1.18333
C         34.02148        30.84148         0.83116
C         35.27368        33.05683         0.65575
C         34.20167        33.58570        -0.26028
C         35.49370        35.77974        -0.37430
C         34.35369        34.93837        -0.95256
C         35.59050        37.21465        -0.90757
C         34.25279        37.92995        -0.68739
C         35.46703        40.16545        -0.54688
C         34.18231        39.43544        -0.60544
C         35.50518        41.53096        -0.70856
C         34.31150        42.25451        -1.11412
C         35.64002        44.42765        -1.18095
C         34.35551        43.65040        -1.21247
C         35.64033        45.86073        -0.69896
C         37.83793        27.33733         1.64647
C         36.55320        26.78048         1.85067
C         37.76788        28.74426         1.35448
C         36.50497        29.42732         1.25017
C         37.77183        31.62383         1.03335
C         36.51076        30.84981         0.71642
C         37.73041        33.03821         0.93919
C         36.55406        33.77553         0.66674
C         37.83091        35.88183         0.39785
C         36.56219        35.17331         0.28219
C         37.99575        37.32174         0.01867
C         36.73619        38.02883        -0.34369
C         37.69708        40.12384         0.57775
C         36.64023        39.38184        -0.16240
C         37.71412        41.60935         0.48754
C         36.82711        42.26902        -0.55720
C         37.93594        44.49325        -0.00072
C         36.70263        43.75391        -0.31408
C         37.96162        46.01866         0.00508
C         36.60728        46.50814        -0.28667
C         40.39733        24.63464         1.95975
C         39.32087        25.28548         1.94305
C         40.31365        27.33115         1.39115
C         39.08350        26.65040         1.67662
C         40.25136        28.75594         1.19949
C         39.01217        29.46033         1.20989
C         40.25031        31.59300         1.11129
C         39.00703        30.90688         1.14049
C         40.30185        33.05570         1.18537
C         38.97680        33.80413         1.12375
C         40.26229        35.88323         0.39778
C         38.97926        35.20835         0.69475
C         40.15246        37.36287         0.15664
C         39.02108        38.08067         0.84085
C         40.21620        40.25726         0.51097
C         38.98055        39.43693         0.86003
C         40.20649        41.58596         1.29391
C         38.92655        42.36231         0.98826
C         40.27018        44.58788         1.14993
C         39.00608        43.83945         0.81973
C         40.14972        46.03788         1.27400
C         39.03121        46.70585         0.75484
C         40.14865        48.80625         1.18946
C         39.16665        48.12343         0.82139
C         42.97861        24.69768         1.62835
C         41.65480        25.20884         1.68343
C         42.76312        27.35103         0.96931
C         41.58171        26.63348         1.35631
C         42.69709        28.76971         0.77794
C         41.47650        29.46872         0.98840
C         42.71142        31.60281         0.81656
C         41.47726        30.89437         0.96155
C         42.75397        33.04602         0.82498
C         41.56731        33.75100         0.89827
C         42.81176        35.97654         0.58784
C         41.56790        35.17702         0.51496
C         42.75532        37.33433         0.38502
C         41.49083        38.09268        -0.08666
C         42.75973        40.29789         0.19368
C         41.51995        39.46385         0.67182
C         42.73272        41.78177         0.66268
C         41.43349        42.44488         0.99723
C         42.68296        44.42898         2.05817
C         41.40921        43.87667         1.43902
C         42.64849        45.97898         2.10076
C         41.31082        46.78558         1.83837
C         42.65304        48.81195         1.85056
C         41.39556        48.29663         1.62679
C         43.98922        25.36867         1.32262
C         45.17813        27.40323         0.36727
C         44.07735        26.71689         0.87353
C         44.93015        28.74367        -0.36005
C         43.85539        29.50563         0.36635
C         45.02450        31.69973        -0.12878
C         43.88674        30.89092         0.45685
C         45.37606        32.97050         0.73753
C         44.04496        33.70804         1.26631
C         45.34822        35.96596         0.85672
C         44.01467        35.31670         1.26679
C         45.24641        37.38502         0.39566
C         43.97352        38.13573         0.52933
C         45.25988        40.24523         0.51290
C         44.00979        39.51560         0.52144
C         45.25690        41.67378         0.97290
C         43.99480        42.47526         1.06611
C         45.26521        44.48163         1.83990
C         43.98541        43.76517         1.53618
C         45.20545        46.01997         2.00736
C         43.92219        46.72931         1.99191
C         43.69489        48.07815         2.00108
C         47.55869        27.55668        -0.28751
C         46.52138        27.03276         0.18746
C         47.34717        28.71498        -1.31782
C         46.19400        29.53293        -0.68143
C         47.58753        31.58596        -0.58280
C         46.26524        30.87254        -0.47105
C         47.73941        33.02195        -0.16476
C         46.43937        33.83119        -0.02627
C         47.80510        36.02355         0.01185
C         46.61916        35.24598         0.51188
C         47.81347        37.40521         0.02508
C         46.51097        38.13811         0.10173
C         47.70945        40.36238         0.08445
C         46.46166        39.59742         0.31871
C         47.75441        41.83384         0.32976
C         46.56418        42.40739         1.04946
C         47.84451        44.67405         1.04852
C         46.58650        43.85856         1.42736
C         47.48646        46.09505         1.06874
C         46.46247        46.59996         1.53481
C         49.65928        29.13078        -2.38440
C         48.56637        29.50853        -1.67509
C         49.78975        31.79515        -2.01970
C         48.58357        31.00396        -1.54625
C         50.06509        33.15534        -1.39087
C         49.01193        33.78370        -0.50962
C         50.24982        36.08083        -0.78447
C         49.05695        35.27990        -0.25476
C         50.14815        37.57091        -0.80690
C         48.99694        38.17239        -0.32012
C         50.24007        40.46949        -0.31922
C         49.00457        39.62866        -0.02858
C         50.18750        41.96982        -0.26951
C         49.03651        42.60648         0.19151
C         50.08622        44.64830        -0.24322
C         48.92840        44.04536         0.28817
C         50.73161        29.70475        -2.83193
C         51.98945        31.97920        -2.99925
C         50.95502        31.04869        -2.67994
C         52.01223        33.20223        -2.75048
C         51.14270        34.03669        -1.98198
C         52.15774        36.34554        -2.16665
C         51.24047        35.36608        -1.67514
C         52.17980        37.58092        -2.04373
C         51.24218        38.40283        -1.31993
C         52.15439        40.75868        -1.66552
C         51.27284        39.76788        -1.14646
C         52.18601        42.00440        -1.68248
C         51.53000        42.76243        -0.54227
C         51.12132        44.20520        -0.79023
O         43.86571        33.29031         2.60502
O         38.50369        43.24507         2.07955
O         48.56986        31.74358        -2.82955
O         34.08708        33.74461         1.18244
O         46.07917        41.67517         2.21397
O         34.06892        38.56869         0.59382
O         32.52632        36.48286         0.14744
O         48.06483        31.94112         0.74598
O         41.94532        42.50933        -0.37132
O         45.67941        37.60986        -1.00437
O         37.05903        40.96461         1.61191
O         46.34784        35.63501         1.88147
O         47.44488        41.32488        -1.02062
O         40.88597        35.27978        -0.81576
O         49.99067        39.92447         1.01718
O         33.19973        32.49819        -2.13178
O         50.18921        35.61417         0.59890
O         47.67384        44.09549         2.36907
O         45.35585        45.14423         3.13962
O         39.14658        37.34266        -1.04474
O         39.63628        33.59062         2.40480
O         41.75174        46.40218         3.17456
O         38.48840        45.29650        -1.15323
O         50.17246        33.10378         0.05581
O         35.35688        31.73975         2.62414
H         34.80822        32.51064         2.89169
O         34.69556        34.67154        -2.32530
H         35.02647        35.51494        -2.72372
O         35.76404        37.14004        -2.36480
H         36.72495        37.05609        -2.54966
O         36.16537        44.44739        -2.52544
H         36.99868        44.98007        -2.49116
O         40.04994        40.59056        -0.88044
H         40.31347        39.79968        -1.41514
O         44.33982        28.36304        -1.65305
H         43.53108        27.83450        -1.47656
O         44.47722        32.12419        -1.42081
H         44.31448        31.32138        -1.96148
O         32.82273        38.47699        -3.08171
H         32.89613        37.75872        -3.74341
O         36.37702        30.77864        -0.73034
H         37.15132        30.29953        -1.09314
O         40.22568        41.28687         2.70214
H         39.64330        41.94119         3.15514
O         33.66159        29.69590         2.96614
H         34.34918        30.31968         3.30643
O         46.03271        32.49260         1.89914
H         45.40044        32.63391         2.65970
O         42.65021        43.98768         3.43781
H         42.16943        44.67187         3.95877
O         46.90046        28.11011        -2.50545
H         45.96295        27.82286        -2.39684
O         46.06812        34.15048        -1.39018
H         45.58079        33.39544        -1.80152
O         41.69529        39.11131         2.05038
H         41.30065        39.80653         2.62900
O         42.81163        40.36657        -1.24071
H         42.15320        41.03872        -1.53398
O         43.82695        35.72803         2.63457
H         43.82827        34.88279         3.16912
O         31.57370        33.92119         0.60991
H         31.90450        34.80608         0.89281
O         32.33172        42.17221        -3.59585
H         31.62542        42.54583        -4.16075
O         41.55027        38.29196        -1.50588
H         41.37581        37.42383        -1.93103
O         37.54476        42.13077        -1.82149
H         37.10388        42.73094        -2.47227
O         31.23900        38.89507         0.11122
H         31.00927        39.68837         0.63562
O         52.33074        42.69023         0.59663
H         53.20526        43.09113         0.41625
