         404
 CSIRO Nanostructure Databank - Neutral Graphene Oxide Data Set
C          1.31747         3.21943         0.21606
C          0.11028         3.88953         0.34022
C          1.23194         6.06168         0.24563
C          0.06071         5.29206         0.35422
C          1.21028         7.51857         0.26784
C         -0.02580         8.25534         0.16401
C          1.08687        10.44605         0.42137
C         -0.08492         9.61848         0.13071
C          1.10056        11.91916         0.17551
C         -0.10919        12.64624         0.16263
C          1.07199        14.77564         0.00315
C         -0.12813        14.03070         0.07955
C          1.08959        16.22841        -0.04837
C         -0.12457        16.97440        -0.04146
C          1.08731        19.09312        -0.03549
C         -0.12663        18.34943        -0.04783
C          1.10459        20.53065         0.00536
C         -0.11024        21.29534        -0.08840
C          1.07270        23.42730         0.10394
C         -0.11707        22.66824        -0.09919
C          1.10884        24.83933         0.03367
C         -0.09355        25.60440        -0.09255
C          1.17856        27.65939        -0.43702
C         -0.06261        26.95848        -0.29187
C          1.16150        29.07681        -0.89872
C         -0.05149        29.89131        -0.85457
C          1.26993        31.89182        -1.32950
C          0.02175        31.19478        -1.25780
C          1.24867        34.25970        -0.95793
C          0.18630        35.15182        -1.01360
C          1.40134        36.74924         0.37943
C          0.24741        36.36213        -0.30816
C          1.43231        38.19579         0.64965
C          3.77526         3.28125        -0.02737
C          2.53229         3.94771         0.10872
C          3.70272         6.11468         0.02905
C          2.48585         5.38147         0.13361
C          3.67127         7.54826         0.07159
C          2.42002         8.22600         0.23844
C          3.64272        10.44037         0.07570
C          2.42662         9.68888         0.42444
C          3.59433        11.89435         0.01077
C          2.32130        12.61833         0.07097
C          3.51327        14.80067        -0.15259
C          2.30156        14.05428        -0.01985
C          3.55175        16.20530        -0.13285
C          2.31499        16.94255        -0.08188
C          3.54561        19.12168        -0.07357
C          2.32110        18.38542        -0.04927
C          3.57794        20.52596         0.06277
C          2.33117        21.21392         0.13728
C          3.61445        23.42713         0.45774
C          2.29691        22.66502         0.39305
C          3.57549        24.86343         0.19252
C          2.36926        25.55660         0.03528
C          3.72182        27.61240        -0.56582
C          2.37159        26.98377        -0.24414
C          3.76943        29.14281        -0.70265
C          2.48469        29.85108        -0.97196
C          3.58711        32.07891        -0.33035
C          2.47265        31.32345        -0.91865
C          3.29597        33.39792         0.21245
C          2.36599        34.45444        -0.08996
C          3.72394        36.22797         1.02719
C          2.47759        35.78060         0.52617
C          3.83578        38.47318         0.75675
C          2.49569        39.04416         0.67218
C          6.23251         3.32552        -0.30398
C          4.98168         3.99252        -0.15138
C          6.15219         6.17113        -0.23744
C          4.94175         5.43344        -0.11906
C          6.12322         7.60084        -0.20725
C          4.87097         8.28789        -0.06070
C          6.06902        10.43669        -0.45092
C          4.81505         9.72732        -0.14910
C          6.06541        11.95012        -0.39426
C          4.76704        12.60869        -0.15728
C          6.06651        14.82043        -0.14642
C          4.75750        14.06289        -0.32604
C          6.03395        16.27355         0.06561
C          4.81236        16.91178        -0.10119
C          6.09822        19.10989        -0.29338
C          4.79352        18.37266        -0.29630
C          6.05386        20.57083        -0.10586
C          4.85816        21.26118         0.04312
C          6.06885        23.44625         0.12961
C          4.88926        22.71276         0.19603
C          6.12233        24.88129         0.41014
C          4.82466        25.59413         0.50152
C          6.07196        27.84411         0.55056
C          4.79486        27.08720         0.37655
C          6.15266        29.26033         0.21361
C          4.96251        29.96673        -0.32166
C          6.09601        32.07874         0.25969
C          4.83631        31.43545        -0.06103
C          6.18419        33.49341         0.44950
C          5.04441        34.23218         0.80289
C          6.16980        36.38364         0.44925
C          4.97956        35.63259         0.74182
C          6.11022        37.76007        -0.21464
C          4.93390        38.69778         0.00405
C          8.68973         3.36361        -0.59769
C          7.43496         4.03150        -0.45942
C          8.57354         6.21874        -0.61473
C          7.39136         5.48372        -0.43162
C          8.57906         7.63068        -0.46558
C          7.35156         8.31888        -0.26757
C          8.50802        10.48939        -0.00453
C          7.34752         9.75834        -0.21335
C          8.50405        11.92925         0.16122
C          7.30867        12.62108         0.02349
C          8.46325        14.80978         0.72865
C          7.21365        14.04322         0.37814
C          8.48621        16.27869         0.52379
C          7.30137        16.97317         0.24931
C          8.56086        19.09365         0.08484
C          7.36005        18.40136         0.04119
C          8.64577        20.50400        -0.47878
C          7.31428        21.26946        -0.40986
C          8.62329        23.47982        -0.26235
C          7.30605        22.76783        -0.31325
C          8.59853        24.95560        -0.00505
C          7.30906        25.59306         0.36069
C          8.64066        27.78816         0.46758
C          7.38012        27.04265         0.64104
C          8.61504        29.20112         0.47754
C          7.36654        29.92952         0.33632
C          8.58374        32.08024         0.36690
C          7.34645        31.37399         0.27598
C          8.62550        33.51172         0.37375
C          7.40748        34.23362         0.41335
C          8.66953        36.43653         0.54089
C          7.37120        35.67417         0.40107
C          8.63082        37.82789        -0.04624
C          7.43162        38.47938        -0.20509
C         11.15817         3.44821        -0.90826
C          9.89336         4.05862        -0.82701
C         11.09609         6.32578        -1.05456
C          9.80939         5.52424        -1.00411
C         11.04902         7.74100        -0.64969
C          9.81728         8.35992        -0.43140
C         11.04706        10.54045         0.11332
C          9.77237         9.74423         0.07955
C         11.01209        12.00393         0.28093
C          9.74488        12.66355         0.45751
C         10.92056        14.77878         1.07575
C          9.71152        14.03864         0.71028
C         10.90423        16.25290         0.95527
C          9.75199        16.96801         0.60887
C         11.00884        19.12631         0.39136
C          9.79765        18.40864         0.36539
C         11.05255        20.57234         0.27078
C          9.84346        21.29907         0.04782
C         11.05548        23.43462         0.29163
C          9.85424        22.70450         0.03498
C         11.03794        24.88369         0.41203
C          9.86661        25.63501         0.34573
C         11.10431        27.79246         0.53005
C          9.87162        27.07005         0.45941
C         11.11110        29.22437         0.59533
C          9.84788        29.94054         0.53105
C         11.04982        32.10202         0.73229
C          9.81050        31.34535         0.48603
C         11.10505        33.53427         0.37834
C          9.88422        34.23161         0.30469
C         11.09898        36.32071        -0.08019
C          9.89556        35.64645         0.16264
C         11.09202        37.75898        -0.32161
C          9.87257        38.46495        -0.32580
C         13.63004         3.51920        -1.00801
C         12.38616         4.18170        -0.98648
C         13.56767         6.36577        -0.91366
C         12.38468         5.62213        -0.96629
C         13.52123         7.82194        -0.83162
C         12.28735         8.45726        -0.62152
C         13.51318        10.73275        -0.57920
C         12.22895         9.92368        -0.53590
C         13.48792        12.08635         0.00349
C         12.24326        12.68364         0.35643
C         13.52657        14.78584         0.89318
C         12.26318        14.03993         0.91783
C         13.44678        16.19663         1.35060
C         12.21648        16.90675         0.85524
C         13.58791        19.08580         0.69333
C         12.27141        18.37248         0.52173
C         13.59007        20.55710         0.40736
C         12.28817        21.28826         0.31047
C         13.55405        23.44920         0.26686
C         12.27631        22.69759         0.34685
C         13.59317        24.88096         0.65792
C         12.28046        25.61888         0.72910
C         13.57303        27.75908         0.54060
C         12.33304        27.08360         0.58727
C         13.59257        29.19249         0.56593
C         12.34947        29.89808         0.67586
C         13.62787        32.12682         0.75888
C         12.34753        31.35565         0.89295
C         13.60084        33.51984         0.27954
C         12.34377        34.20395         0.18255
C         13.55493        36.27132        -0.41016
C         12.33131        35.59939        -0.12313
C         13.52834        37.68769        -0.70206
C         12.30326        38.39856        -0.63752
C         16.10080         3.57664        -1.10338
C         14.85261         4.23669        -1.00507
C         16.03877         6.39688        -0.93903
C         14.83310         5.67758        -0.93858
C         16.00975         7.87086        -1.05425
C         14.73930         8.59371        -0.86032
C         15.99911        10.70938        -0.41508
C         14.77221         9.97829        -0.65591
C         15.94725        12.08965        -0.03279
C         14.72508        12.75783         0.19803
C         15.97165        14.86103         0.85192
C         14.71608        14.15015         0.63682
C         15.96435        16.15262         1.44500
C         14.70355        16.94106         1.67482
C         15.94831        19.24312         1.51678
C         14.61992        18.51906         1.71064
C         15.97011        20.62637         1.07759
C         14.83488        21.30184         0.72548
C         16.06649        23.52818         0.74052
C         14.88082        22.73563         0.42893
C         16.07968        24.91741         0.52233
C         14.84448        25.63317         0.46941
C         16.06948        27.74969         0.36695
C         14.82955        27.04044         0.47413
C         16.06264        29.17606         0.30764
C         14.84313        29.87345         0.47940
C         16.10264        32.05163         0.10829
C         14.90562        31.34359         0.58914
C         16.06075        33.43922        -0.11444
C         14.80844        34.16386        -0.06404
C         15.98261        36.22641        -0.82542
C         14.77891        35.55724        -0.43281
C         15.94161        37.62965        -1.14716
C         14.71958        38.33835        -1.05507
C         18.57622         3.63295        -1.22905
C         17.31008         4.29139        -1.09840
C         18.52275         6.43889        -0.88903
C         17.29221         5.72403        -0.96956
C         18.52545         7.87873        -0.43339
C         17.29663         8.63397        -0.87796
C         18.49932        10.75836        -0.38275
C         17.24577        10.05156        -0.48849
C         18.47631        12.13063        -0.16399
C         17.23129        12.72041         0.44731
C         18.42691        14.91705         0.75292
C         17.20424        14.22468         0.58313
C         18.44343        16.13504         1.45575
C         17.20462        16.59885         1.91366
C         18.43461        19.14528         1.21455
C         17.15352        18.74696         1.91700
C         18.51712        20.65013         1.29396
C         17.24272        21.34951         1.35507
C         18.56743        23.53132         1.02903
C         17.27090        22.86983         1.22920
C         18.56845        24.91329         0.69290
C         17.32521        25.63333         0.53937
C         18.56065        27.74541         0.24531
C         17.31363        27.03608         0.38627
C         18.55508        29.15312         0.04678
C         17.30455        29.90026         0.12510
C         18.60574        32.05998        -0.02133
C         17.30858        31.29490         0.00269
C         18.48224        33.43575        -0.63437
C         17.27151        34.12337        -0.55232
C         18.38884        36.19276        -1.34901
C         17.20996        35.51961        -0.91758
C         18.33761        37.59224        -1.66615
C         17.12044        38.28829        -1.55154
C         19.74699         4.34950        -1.23670
C         20.97243         6.52513        -1.04698
C         19.74236         5.76824        -1.04455
C         20.98998         7.89212        -0.94123
C         19.79304         8.65623        -0.72919
C         20.96400        10.85427        -0.68150
C         19.76005        10.04783        -0.62531
C         20.95308        12.20111        -0.53170
C         19.69734        12.94299        -0.32384
C         20.92291        15.11837         0.52238
C         19.68379        14.38728         0.16862
C         20.93272        16.23602         1.26608
C         19.70942        16.87393         1.88607
C         20.83018        19.15684         1.82957
C         19.68396        18.41016         1.65153
C         20.89579        20.56428         1.64464
C         19.73665        21.33931         1.40324
C         20.98227        23.51129         1.05460
C         19.76648        22.80177         1.20099
C         20.99827        24.86565         0.75259
C         19.80440        25.60081         0.55898
C         20.98698        27.72103        -0.01965
C         19.79419        27.02210         0.25668
C         20.96997        29.07926        -0.30186
C         19.77144        29.82095        -0.25850
C         20.83775        31.90486        -1.10204
C         19.76840        31.25216        -0.53322
C         20.81454        33.30361        -1.35458
C         19.67044        34.07233        -1.14541
C         20.76452        36.18932        -1.90978
C         19.62734        35.49018        -1.48060
C         20.70781        37.56127        -2.21421
C         19.52074        38.25822        -2.09719
O         17.11933        22.22178         2.54656
O          7.50912        14.36071         1.77772
O         13.85465        16.38599         2.74863
O          3.82882        37.43299         1.71049
O          7.13104        22.10357        -1.61614
O         14.49438        31.87910         1.91232
O          5.47353        18.72409        -1.57253
O         13.97336        19.55268        -0.62561
O          5.60964        14.45315        -1.47411
O         16.80834         8.34790        -2.21646
O          6.68124        27.50916         1.83639
O         10.56641         9.87101         1.32900
O          1.17656        33.19153        -1.83930
O         19.53885        14.09118        -1.25940
O          6.09419        11.23708        -1.68076
O         17.20776        17.67939         2.81333
O          2.92012        23.01752         1.68938
O         12.95200        25.12201         1.95474
O         12.63534        10.60221        -1.76209
O         12.42759        17.35407        -0.53878
O          1.87724        29.27587        -2.17686
O         11.59895        31.79547         2.07693
O          1.77563        10.11177         1.67147
O          4.43946        26.48299         1.64453
O          8.69810        24.42514        -1.38581
O          4.73311        29.55927        -1.73910
O          3.97711        33.58708         1.44743
O         14.32707        23.11638        -0.91049
O         10.34783         6.01138        -2.28417
O         11.60565        14.19453         2.23005
O         19.83596        16.70673         3.32403
H         19.02433        17.08608         3.73028
O          4.09125        27.07371        -1.86526
H          3.67622        27.64407        -2.54961
O         18.19479        18.75908        -0.19254
H         18.99221        19.00519        -0.70830
O         18.41666         7.83272         1.03464
H         19.19916         7.34716         1.37221
O         14.07351        18.89358         2.99076
H         13.87473        18.06414         3.48893
O          5.93008        37.38257        -1.64165
H          6.72898        36.88660        -1.92257
O          8.94459        20.30074        -1.88462
H          8.52573        21.04599        -2.37753
O         17.32501        12.28892         1.87712
H         17.28151        11.30756         1.88910
O         18.91794        32.30966         1.40948
H         19.74327        32.83955         1.43389
O          8.81528        36.65367         1.99088
H          8.91914        35.77490         2.41429
H          1.34492         2.12052         0.19988
H         -0.82492         3.31894         0.42870
H         -0.91639         5.78192         0.46208
H         -0.95321         7.69404        -0.01792
H         -1.03001        10.10702        -0.14740
H         -1.06397        12.10967         0.25131
H         -1.10044        14.54019         0.09636
H         -1.08903        16.44999        -0.02901
H         -1.09171        18.87244        -0.03715
H         -1.06461        20.77072        -0.22490
H         -1.07269        23.18529        -0.25995
H         -1.06802        25.10260        -0.03047
H         -1.00928        27.50384        -0.39935
H         -1.01853        29.44934        -0.58170
H         -0.89347        31.79039        -1.38083
H         -0.67761        34.92175        -1.64946
H         -0.58160        37.07708        -0.41146
H          0.43618        38.66554         0.58418
H          3.79180         2.18108        -0.04574
H          2.33277        40.13173         0.63834
H          6.24689         2.22513        -0.31513
H          4.88707        39.51123        -0.73608
H          8.71123         2.26565        -0.52054
H          7.43619        39.51838        -0.57218
H         11.21945         2.35078        -0.84374
H          9.86969        39.52283        -0.63044
H         13.65630         2.41953        -1.03573
H         12.30296        39.47806        -0.85024
H         16.12206         2.48103        -1.20299
H         14.70400        39.41423        -1.28355
H         18.59521         2.53898        -1.33999
H         17.08351        39.36060        -1.79398
H         20.71128         3.83536        -1.36050
H         21.91528         5.98103        -1.20363
H         21.95256         8.41356        -1.04073
H         21.92679        10.35335        -0.85398
H         21.89006        12.76911        -0.61754
H         21.87054        14.74020         0.10981
H         21.90127        16.71252         1.48123
H         21.76243        18.64929         2.11903
H         21.87198        21.05303         1.76155
H         21.93996        22.98682         1.17696
H         21.97124        25.36834         0.66753
H         21.94854        27.19096        -0.03252
H         21.91948        29.58464        -0.52390
H         21.73587        31.34755        -1.40416
H         21.71668        33.75779        -1.78451
H         21.72898        35.67343        -2.00881
H         21.62005        38.07673        -2.54554
H         19.47503        39.33043        -2.33542
