         344
 CSIRO Nanostructure Databank - Neutral Graphene Oxide Data Set
C          1.25805         3.29475        -0.68873
C          0.17064         4.14021        -0.67689
C          1.14712         6.36676         0.06009
C          0.11416         5.54211        -0.36113
C          1.14631         7.82495        -0.08606
C         -0.05171         8.53240        -0.35833
C          1.15337        10.65103        -0.41119
C         -0.05118         9.90522        -0.48649
C          1.14732        12.09310        -0.48431
C         -0.06095        12.83402        -0.58668
C          1.14681        14.95779        -0.43007
C         -0.06182        14.20974        -0.54475
C          1.09550        16.38573        -0.23593
C         -0.08539        17.09691         0.05837
C          1.10183        19.25649         0.27838
C         -0.09574        18.47255         0.25738
C          1.09917        20.67476         0.44915
C         -0.11494        21.44687         0.62814
C          1.10776        23.51573         0.00456
C         -0.11830        22.79543         0.50843
C          1.10339        25.01259         0.24707
C         -0.03177        25.76925         0.06583
C          1.20841        27.86535        -0.24667
C          0.01090        27.17909        -0.14456
C          1.30128        29.18938        -0.80658
C          3.80276         3.37798        -0.40783
C          2.50332         3.64877        -0.06090
C          3.61682         6.37855         0.39395
C          2.39368         5.79598         0.51955
C          3.65851         7.89104         0.43711
C          2.35981         8.54336        -0.00507
C          3.63297        10.68245        -0.23042
C          2.37846         9.94822        -0.21297
C          3.60844        12.07713        -0.34686
C          2.37848        12.80834        -0.42956
C          3.64578        14.93929        -0.26036
C          2.38139        14.24290        -0.44256
C          3.65930        16.41996        -0.31413
C          2.33400        17.16848        -0.32915
C          3.57224        19.25909         0.24057
C          2.34019        18.58449         0.06368
C          3.55244        20.64082         0.56115
C          2.34080        21.37928         0.51742
C          3.57377        23.52513         0.57385
C          2.36922        22.82026         0.47884
C          3.64554        24.93975         0.41707
C          2.38171        25.68599         0.46765
C          3.74927        27.75597        -0.23863
C          2.45147        27.21665         0.18650
C          3.75566        29.03607        -0.88544
C          2.51094        29.74810        -1.09302
C          6.17115         3.51064         0.07874
C          4.93079         4.11467         0.13302
C          6.13925         6.27461         0.17870
C          4.85648         5.55533         0.71133
C          6.14798         7.79421         0.20813
C          4.88111         8.47957        -0.26592
C          6.11423        10.66648        -0.07811
C          4.89689         9.98307        -0.15218
C          6.13984        12.10145        -0.13432
C          4.89364        12.82259        -0.56759
C          6.07772        14.93839         0.37202
C          4.83044        14.26067        -0.14085
C          6.10493        16.42846         0.14141
C          4.88486        17.15385         0.04006
C          6.06516        19.27761         0.40459
C          4.84060        18.55691         0.18820
C          6.07299        20.60852         0.77652
C          4.79483        21.30583         0.95149
C          6.11638        23.53125         0.82998
C          4.81676        22.83357         0.94865
C          6.11102        24.92461         0.59014
C          4.88799        25.62405         0.37406
C          6.18448        27.57147        -0.51696
C          4.93601        27.02252        -0.05357
C          6.17886        28.85862        -1.16090
C          4.96078        29.57181        -1.32422
C          8.62109         3.50659         0.21240
C          7.42284         4.16233         0.36035
C          8.64961         6.36160         0.38805
C          7.39805         5.62142         0.78067
C          8.61555         7.76379         0.32373
C          7.34272         8.48364         0.26138
C          8.57281        10.62589         0.07550
C          7.36983         9.93819         0.10062
C          8.61651        12.07740        -0.36040
C          7.33594        12.82301        -0.09750
C          8.57634        14.96722        -0.03265
C          7.36533        14.24335        -0.01805
C          8.56500        16.39128         0.10419
C          7.33257        17.09312         0.17550
C          8.50719        19.13881         0.97131
C          7.37826        18.60222         0.09298
C          8.51949        20.65884         0.97324
C          7.31222        21.35687         0.97706
C          8.50926        23.57846         1.51366
C          7.30738        22.79682         1.02859
C          8.63121        24.96030         0.91365
C          7.36905        25.76220         0.69891
C          8.57002        27.33718        -1.02111
C          7.40201        26.83989        -0.39579
C          8.59994        28.71774        -1.45203
C          7.39748        29.44147        -1.54977
C         11.10642         3.54115         0.17026
C          9.88702         4.20545         0.27571
C         11.09894         6.36077         0.28228
C          9.86624         5.64736         0.32317
C         11.07784         7.79287         0.23563
C          9.84586         8.48330         0.21300
C         11.03646        10.62029         0.05348
C          9.83060         9.92146         0.14299
C         11.09488        12.08848         0.39238
C          9.83754        12.84064         0.05844
C         11.07542        14.97106        -0.08448
C          9.86323        14.24937        -0.03989
C         11.08996        16.47080        -0.24519
C          9.80650        17.14958         0.19120
C         11.06892        19.16531         1.00894
C          9.80771        18.46730         0.56853
C         11.06238        20.65873         0.76967
C          9.77925        21.41017         0.91245
C         11.09803        23.55717         1.02506
C          9.88045        22.79455         1.55726
C         11.09411        24.94333         1.00038
C          9.82165        25.62999         1.19445
C         11.04840        27.29388        -1.06057
C          9.82882        26.61789        -1.15775
C         11.05887        28.70134        -1.37505
C          9.84593        29.34727        -1.69138
C         13.59713         3.58070         0.04365
C         12.35252         4.24906         0.17655
C         13.59272         6.43486         0.52057
C         12.32534         5.67008         0.26537
C         13.56619         7.86795         0.04213
C         12.31256         8.50657         0.05443
C         13.43496        10.60823        -0.53613
C         12.26690         9.91375        -0.13020
C         13.19277        11.99273        -0.88807
C         12.25296        12.77390        -0.28903
C         13.59495        15.05721        -0.65885
C         12.41612        14.25541         0.01450
C         13.63888        16.43586        -0.01015
C         12.32986        17.04654         0.46560
C         13.60537        19.16851         1.02486
C         12.33559        18.53965         0.51423
C         13.59241        20.68162         0.97426
C         12.33160        21.40598         0.95210
C         13.61847        23.46052         0.56371
C         12.31213        22.78718         0.89946
C         13.61063        24.95818         0.63131
C         12.32462        25.77953         0.66713
C         13.56482        27.44579        -0.68443
C         12.32303        26.55209        -0.70700
C         13.52292        28.77716        -1.20255
C         12.28575        29.38700        -1.52604
C         16.07646         3.62768        -0.34497
C         14.82918         4.30080        -0.02009
C         16.06192         6.46636         0.17193
C         14.82208         5.69186         0.11846
C         16.02675         7.90861        -0.14458
C         14.76425         8.59552        -0.20322
C         16.00191        10.72727        -0.63674
C         14.73001        10.00318        -0.53490
C         16.12571        12.18200        -0.61238
C         15.07673        13.05591        -0.97271
C         16.11188        14.99440        -0.03813
C         14.93913        14.36002        -0.51711
C         16.10659        16.40876         0.19870
C         14.82170        17.09446         0.20392
C         16.10718        19.18249         0.87245
C         14.83195        18.60521         0.30856
C         16.05330        20.59907         1.25389
C         14.78479        21.34005         1.08377
C         16.09906        23.49980         0.83089
C         14.81072        22.83827         1.28737
C         16.06134        24.87044         0.44959
C         14.79567        25.58929         0.34633
C         16.00103        27.69829        -0.27588
C         14.77579        26.95831        -0.17679
C         15.97861        28.98347        -0.94652
C         14.73367        29.48879        -1.36255
C         18.48486         3.68313        -0.94255
C         17.27724         4.28949        -0.39723
C         18.54919         6.49143        -0.40959
C         17.36091         5.71414        -0.00229
C         18.47126         7.84131        -0.58996
C         17.21714         8.57371        -0.44347
C         18.49296        10.69886        -0.44903
C         17.21629        10.01007        -0.56524
C         18.53198        12.08316        -0.11909
C         17.31494        12.83101        -0.18112
C         18.54869        14.91801         0.34568
C         17.32105        14.24434         0.04191
C         18.54445        16.33669         0.53986
C         17.30818        17.07306         0.49005
C         18.57270        19.20557         0.93336
C         17.30476        18.49931         0.80351
C         18.59980        20.62484         0.97003
C         17.35993        21.37955         1.22787
C         18.54992        23.50704         0.64673
C         17.31888        22.82537         0.90371
C         18.52701        24.91678         0.40884
C         17.26307        25.57880         0.27287
C         18.43601        27.69009         0.21181
C         17.21701        27.01397         0.07489
C         18.39217        29.58701        -0.79989
C         17.15090        29.70343        -1.39732
C         19.65978         4.34646        -1.02156
C         20.98437         6.50961        -1.00779
C         19.84788         5.72267        -0.41146
C         20.90603         7.82060        -1.26365
C         19.62360         8.61110        -1.20044
C         20.91829        10.63629        -0.29777
C         19.71168         9.99320        -0.58997
C         20.94663        11.97726         0.09462
C         19.76620        12.74214         0.15265
C         20.95409        14.88109         0.70294
C         19.76813        14.17831         0.41373
C         20.95660        16.26304         0.86312
C         19.77338        17.02087         0.76360
C         20.99786        19.20639         0.75946
C         19.79163        18.48005         0.83697
C         21.00756        20.59439         0.71075
C         19.81142        21.33838         0.80023
C         20.97955        23.53689         0.53656
C         19.79547        22.79938         0.68144
C         20.96433        24.92215         0.35484
C         19.76048        25.63671         0.27874
C         20.83472        27.87232        -0.24307
C         19.71853        27.08638         0.10297
C         20.80857        29.13656        -0.88743
C         19.69974        29.86499        -1.30239
O          4.69546        22.07804         2.19614
O         14.07916        12.55106        -1.80428
O         10.23214        22.57610         2.90536
O          3.08939        16.90709        -1.58230
O         16.89321         6.05895         1.34451
O         18.38748        29.05462         0.51035
O          2.39608        26.68472         1.53840
O         10.37224        21.16113        -0.42586
O         16.73106        20.99163         2.50868
O          2.33904         4.49819         1.05633
O          1.10320        23.37597        -1.46650
H          1.03611        22.41651        -1.66137
O          8.23756        18.76753         2.34893
H          9.04072        19.01636         2.86719
O         19.24161         8.84517        -2.59855
H         19.16292         7.97133        -3.03542
O          8.70412        12.01782        -1.84537
H          7.78578        11.96364        -2.19022
O         13.74746        18.78429         2.43487
H         12.99861        19.21133         2.91646
O          5.98750        14.78271         1.84096
H          6.74772        15.26476         2.23229
O          9.82885        26.95520         1.45109
H          8.90045        27.22463         1.67300
O         14.69989        23.07220         2.71116
H         15.37604        22.50136         3.14503
O          7.19189        26.55817         1.93778
H          7.22904        25.90200         2.67439
O          8.13960        23.84141         2.90365
H          8.88134        23.39279         3.42545
O         11.03665        19.01790         2.49406
H         11.19635        18.04811         2.64496
O         12.51687        25.50832        -1.73476
H         12.74375        25.95860        -2.57657
O          9.79216        25.29194        -1.42582
H         10.71775        24.97275        -1.56569
O          7.71499        18.95228        -1.27996
H          6.99636        18.62277        -1.85910
O         13.68658         6.55258         2.00341
H         13.93555         5.66922         2.35092
O          7.43116         5.69285         2.22444
H          6.55343         5.40224         2.57007
O         11.22761        16.79461        -1.66897
H         10.37345        16.59420        -2.10712
O         11.23658        12.13451         1.86966
H         11.90090        11.45770         2.12263
O          4.71708         8.17135        -1.69713
H          5.34755         8.73377        -2.19589
O         20.20048         5.50071         0.99096
H         19.37671         5.26706         1.47055
O         13.85575        23.16417        -0.85305
H         13.30466        23.79060        -1.37998
O         12.81454        14.24395         1.42043
H         12.13508        13.71905         1.91491
O         13.36157        15.22147        -2.06803
H         12.60448        15.85026        -2.18535
O         12.46902        26.79335         1.67831
H         12.43948        26.35695         2.55456
O          3.83981         8.23943         1.84104
H          3.12937         7.81158         2.36263
O         14.74843        19.08450        -1.06838
H         15.39873        18.58550        -1.60568
O          6.19777         5.95727        -1.24369
H          5.53358         6.53357        -1.69872
O         12.15503        16.63954         1.87538
H         12.98770        16.90312         2.33860
O          5.04978        12.89224        -2.05707
H          4.25513        13.35327        -2.40530
O          4.85564         5.40613         2.16044
H          4.04625         4.89015         2.37635
H          1.17639         2.33498        -1.22135
H         -0.74912         3.75108        -1.14251
H         -0.82323         6.02889        -0.67267
H         -1.00350         7.98831        -0.42568
H         -1.00805        10.41601        -0.65485
H         -1.02345        12.31290        -0.67184
H         -1.02261        14.73841        -0.60209
H         -1.04249        16.56058         0.12278
H         -1.06037        18.96378         0.44334
H         -1.04443        20.92400         0.89730
H         -1.04886        23.35711         0.67224
H         -1.00137        25.26983        -0.07374
H         -0.92468        27.69333        -0.40956
H          0.37057        29.73210        -1.02811
H          4.01312         2.61982        -1.17796
H          2.56338        30.75146        -1.54014
H          6.22273         2.46599        -0.27150
H          4.97729        30.55190        -1.82330
H          8.63138         2.43193        -0.03134
H          7.41816        30.48591        -1.89316
H         11.12247         2.44358         0.09086
H          9.86189        30.39261        -2.03156
H         13.61248         2.48565        -0.05765
H         12.27740        30.42964        -1.87646
H         16.03125         2.56548        -0.63098
H         14.69584        30.48471        -1.82903
H         18.40721         2.65337        -1.32563
H         17.04831        30.30514        -2.31315
H         20.54417         3.83967        -1.43739
H         21.94015         5.97886        -1.14289
H         21.78383         8.33980        -1.67991
H         21.86672        10.08818        -0.38865
H         21.92007        12.44062         0.30525
H         21.90733        14.34250         0.79183
H         21.91235        16.76116         1.07519
H         21.95619        18.67535         0.68283
H         21.97261        21.10666         0.60101
H         21.95392        23.03193         0.57538
H         21.92325        25.45227         0.27405
H         21.82373        27.38986        -0.21178
H         21.78554        29.48401        -1.26041
H         19.83173        30.63953        -2.07243
