         490
 CSIRO Nanostructure Databank - Neutral Graphene Oxide Data Set
C         42.02258        47.32710         5.76359
C         41.71104        47.29686         7.11887
C         40.98041        49.59889         7.00780
C         41.18847        48.43484         7.74697
C         41.84305        47.30739         2.86041
C         42.16765        48.48496         3.57267
C         41.86134        48.50522         4.99355
C         41.77630        51.51972         4.14919
C         41.33512        49.64314         5.65114
C         41.58346        52.91447         4.32031
C         42.96471        48.04216         0.74362
C         42.14169        47.08393         1.53937
C         43.27815        49.31599         1.49249
C         43.04480        49.55477         2.96451
C         43.46024        51.99830         2.48592
C         42.68168        51.02703         3.20102
C         43.37333        53.39392         2.76136
C         42.37822        53.83338         3.66615
C         45.56748        45.46106        -0.55686
C         44.41377        46.03780         0.06995
C         45.47349        48.23226         0.05815
C         44.29882        47.38188         0.30750
C         45.33713        49.70958        -0.02788
C         44.14396        50.26961         0.85516
C         45.38292        52.42149         0.97413
C         44.36004        51.58438         1.44826
C         45.38755        53.80438         1.35663
C         44.31764        54.30862         2.15060
C         45.25110        56.54751         1.92051
C         44.25892        55.70349         2.38436
C         47.83642        44.30599        -2.04030
C         47.79461        45.68303        -1.69331
C         46.65316        46.21040        -0.95554
C         47.60218        48.55378        -1.35352
C         46.71296        47.62568        -0.55382
C         47.70299        49.95076        -0.78178
C         46.52595        50.53517        -0.19801
C         47.56598        52.75634        -0.14399
C         46.47393        51.89994         0.18109
C         47.55867        54.12208         0.18770
C         46.43463        54.66824         0.91256
C         47.49287        56.91576         0.87197
C         46.37526        56.05233         1.21753
C         47.47855        58.29168         1.15426
C         50.16204        44.47232        -2.72996
C         48.97376        43.71906        -2.55444
C         50.11263        45.87552        -2.47058
C         48.91766        46.49814        -1.98265
C         50.02819        48.72717        -1.95672
C         48.93042        47.92943        -1.70821
C         50.02073        50.16610        -1.67642
C         48.80185        50.73436        -1.10271
C         49.84942        53.07983        -1.25215
C         48.66048        52.19894        -0.95819
C         49.88757        54.42294        -0.65232
C         48.70783        54.96201        -0.08509
C         49.83673        57.15170         0.14336
C         48.67064        56.34319         0.30360
C         49.78781        58.55299         0.43639
C         48.59605        59.09644         0.91846
C         52.66735        41.90632        -3.82917
C         51.45971        42.50206        -3.55848
C         52.60185        44.61802        -3.12339
C         51.39813        43.86246        -3.14873
C         52.51908        46.01811        -2.82815
C         51.28877        46.65175        -2.62286
C         52.48111        48.87731        -2.51034
C         51.18132        48.14655        -2.76343
C         52.38433        50.38454        -2.60488
C         51.15202        50.94956        -1.89131
C         52.38325        53.23980        -1.68926
C         51.11041        52.42909        -1.74416
C         52.38532        54.54221        -0.97127
C         51.11193        55.16132        -0.60675
C         52.32118        57.21623         0.08153
C         51.06528        56.50329        -0.19031
C         52.32253        58.70649         0.01361
C         50.97605        59.41273         0.18097
C         52.25614        61.47208         0.63433
C         51.06677        60.81094         0.61892
C         55.19735        40.50987        -3.95883
C         55.15338        41.92271        -3.74789
C         53.89792        42.61284        -3.69746
C         55.09368        44.77089        -3.37069
C         53.87056        44.00576        -3.39428
C         54.93869        46.19702        -3.13563
C         53.72359        46.78515        -2.77963
C         54.93571        48.84884        -1.89529
C         53.67010        48.21331        -2.45899
C         54.96114        50.36224        -1.97563
C         53.72035        51.10382        -2.29200
C         54.94375        53.17812        -1.35747
C         53.71234        52.56209        -1.89375
C         54.89301        54.51810        -0.93482
C         53.60049        55.15159        -0.70439
C         54.82380        57.37978        -0.39356
C         53.62155        56.50067        -0.10513
C         54.82450        58.63290         0.49161
C         53.55881        59.43765         0.30811
C         54.79983        61.55827         0.54761
C         53.53708        60.80993         0.46508
C         54.83766        62.94849         0.65506
C         57.51678        40.41903        -3.23749
C         56.33318        39.78342        -3.72640
C         57.53977        41.84806        -3.18092
C         56.36189        42.62323        -3.47115
C         57.63673        44.71855        -3.23009
C         56.35642        44.07397        -3.42092
C         57.86000        46.07857        -3.39892
C         56.01702        47.15422        -3.28450
C         57.49604        49.07352        -2.63386
C         56.17849        48.29675        -2.57245
C         57.41165        50.20521        -1.57577
C         56.14006        51.02835        -1.73043
C         57.38614        53.14454        -1.18013
C         56.17582        52.46462        -1.46095
C         57.36891        54.54083        -0.83755
C         56.11676        55.22359        -0.67400
C         57.30989        57.30542        -0.10697
C         56.12126        56.60775        -0.33114
C         57.27911        58.74428         0.16459
C         56.07231        59.44498         0.27647
C         57.28649        61.57738         0.43527
C         56.04944        60.85487         0.43247
C         57.28164        63.00852         0.53752
C         56.05141        63.65741         0.65097
C         59.81941        37.50262        -2.72799
C         58.69138        38.22118        -2.94821
C         59.81982        40.32168        -2.31210
C         58.66450        39.66301        -2.86295
C         59.80580        41.76438        -2.21398
C         58.74125        42.48383        -2.72514
C         60.05796        44.65472        -2.43912
C         58.91806        43.92037        -3.10908
C         60.05680        46.06181        -2.41365
C         58.90293        46.83166        -2.75475
C         59.92457        48.87619        -1.86750
C         58.79016        48.21780        -2.41949
C         59.85774        50.29522        -1.55610
C         58.68261        51.01445        -1.52894
C         59.84506        53.15115        -1.06281
C         58.66825        52.44877        -1.24120
C         59.88716        54.65799        -1.07340
C         58.57769        55.27404        -0.66889
C         59.80010        57.30239         0.03944
C         58.56873        56.62870        -0.27722
C         59.72005        58.66242         0.55720
C         58.49762        59.45913         0.31374
C         59.82057        61.59848         0.29329
C         58.51117        60.85153         0.41090
C         59.74893        63.04656         0.71386
C         58.55456        63.74090         0.60032
C         59.74221        65.86546         0.21168
C         58.58256        65.17045         0.37802
C         61.99229        36.00671        -1.40358
C         62.16752        37.39511        -1.69797
C         61.14269        38.17849        -2.50188
C         62.09804        40.22732        -1.23699
C         60.96722        39.58053        -1.99036
C         62.26498        41.67679        -1.70037
C         60.95972        42.47470        -1.53184
C         62.37881        44.52331        -1.58379
C         61.16931        43.91102        -1.96967
C         62.52682        45.97458        -1.75332
C         61.28736        46.78943        -2.12520
C         62.35896        48.79646        -1.22802
C         61.18954        48.19724        -1.72434
C         62.32106        50.21243        -0.82500
C         61.07054        50.97564        -1.04939
C         62.29159        53.06800        -0.36578
C         61.17473        52.47037        -1.25305
C         62.34392        54.58142        -0.41532
C         61.10828        55.28403        -0.42061
C         62.27960        57.33066         0.39288
C         61.05343        56.62984         0.01446
C         62.27992        58.68031         0.73351
C         61.01043        59.41359         0.88624
C         62.24098        61.57858         1.27478
C         61.00851        60.85975         0.82251
C         62.29421        63.03585         0.85383
C         61.01027        63.76222         0.92423
C         62.32502        65.85329         0.13883
C         61.03241        65.28755         0.59346
C         62.37674        67.13096        -0.46552
C         64.20345        35.85868        -0.35614
C         62.91622        35.30548        -0.66853
C         64.56960        37.17799        -1.00769
C         63.34652        38.03354        -1.31580
C         64.55882        40.15405        -0.86880
C         63.41142        39.46462        -1.24988
C         64.57422        41.59426        -0.74268
C         63.46252        42.35801        -1.06664
C         64.64430        44.48658        -0.55037
C         63.49263        43.79629        -1.05154
C         64.67076        45.92211        -0.49412
C         63.60544        46.66499        -1.04449
C         64.73079        48.76535        -0.46464
C         63.55752        48.07293        -0.94464
C         64.78323        50.16564        -0.50197
C         63.60029        50.95340        -0.69106
C         64.86238        53.08422        -0.58337
C         63.59655        52.33582        -0.63124
C         64.83778        54.53913        -0.25470
C         63.53525        55.23761        -0.11792
C         64.76008        57.27904         0.47092
C         63.55664        56.63375         0.23613
C         64.78479        58.63872         1.10650
C         63.51176        59.43239         0.90530
C         64.77392        61.58023         1.27877
C         63.50770        60.79566         1.02493
C         64.77270        62.95388         0.58160
C         63.47196        63.71547         0.69132
C         64.78192        65.72169        -0.05197
C         63.51994        65.11687         0.29186
C         64.80591        67.01076        -0.65521
C         63.57559        67.68332        -0.87181
C         65.59132        33.49251         2.10128
C         64.88501        33.90140         1.02490
C         66.53976        35.75324         0.53123
C         65.13189        35.20146         0.42529
C         66.58166        37.27146         0.46606
C         65.64375        37.93450        -0.26475
C         66.74491        40.05164         0.35190
C         65.85061        39.38367        -0.67573
C         66.74434        41.52178         0.51102
C         65.89897        42.29204        -0.48210
C         66.88776        44.38505         0.49213
C         65.79048        43.75307        -0.10814
C         66.83329        45.85680         0.84248
C         65.78748        46.62329         0.07424
C         66.97462        48.71665         0.76534
C         65.84869        48.00541         0.03197
C         67.19953        50.12650         0.28893
C         66.08975        50.82584        -0.34400
C         67.34051        53.00807         0.12310
C         66.14567        52.33373        -0.41428
C         67.32857        54.40877         0.33557
C         66.01362        55.13825         0.49236
C         67.31138        57.29097         0.76927
C         66.09343        56.62748         0.14522
C         67.31893        58.67523         0.88640
C         66.03478        59.39064         0.70621
C         67.29845        61.59855         0.97706
C         66.02141        60.86562         0.79214
C         67.26887        62.97406         1.00657
C         65.98207        63.78656         1.05061
C         67.24224        65.73330         0.04730
C         66.03320        65.08633         0.26910
C         67.29108        66.99441        -0.63774
C         66.07020        67.62142        -1.00483
C         67.33849        69.45716        -1.98148
C         66.13102        68.86327        -1.69026
C         67.54750        32.47289         4.00489
C         67.34758        33.86054         3.90320
C         66.54866        34.45732         2.75872
C         68.63997        35.76614         1.88143
C         67.34299        35.21161         1.69036
C         68.89921        37.13189         1.48434
C         67.82253        37.91457         0.91127
C         69.22956        39.96464         0.87723
C         67.93374        39.28212         0.77751
C         69.27357        41.48672         0.74861
C         67.95940        42.17175         1.17104
C         69.26714        44.31144         1.17616
C         68.05048        43.66443         0.89371
C         69.36200        45.75205         1.10053
C         68.19225        46.53259         0.83701
C         69.50751        48.60769         0.96704
C         68.25956        47.91927         0.79198
C         69.58827        50.03169         0.87612
C         68.41143        50.79318         0.46865
C         69.82268        52.92224         0.39774
C         68.49348        52.22376         0.33716
C         69.74025        54.37332         0.82879
C         68.52826        55.09692         0.69390
C         69.72176        57.18291         1.27497
C         68.51540        56.51997         0.94217
C         69.72483        58.66036         1.64825
C         68.50151        59.43512         1.19546
C         69.77029        61.57184         1.60209
C         68.51155        60.82648         1.18451
C         69.79701        63.02316         1.15189
C         68.51816        63.74557         1.10778
C         69.79136        65.74622         0.15406
C         68.50557        65.17063         0.58328
C         69.79643        66.98379        -0.54732
C         68.54922        67.62284        -0.92286
C         69.83809        69.51246        -1.91376
C         68.57307        68.86440        -1.60205
C         69.88517        70.76558        -2.57063
C         68.87655        32.75075         6.00801
C         68.29880        31.91891         5.04299
C         68.69684        34.12893         5.93799
C         67.93011        34.68818         4.89810
C         70.91174        35.67961         2.85600
C         69.72943        35.03608         2.46785
C         71.07819        37.03797         2.59427
C         70.11094        37.76369         1.87109
C         71.46896        39.96099         2.06599
C         70.37865        39.17002         1.46191
C         71.48485        41.32560         2.02965
C         70.43270        42.13610         1.49031
C         71.63270        44.26388         1.90660
C         70.44394        43.53816         1.54639
C         71.71152        45.62108         1.79175
C         70.58779        46.41305         1.36982
C         71.88728        48.54111         1.54466
C         70.67139        47.84101         1.28523
C         71.94829        49.91132         1.50284
C         70.81015        50.70411         1.15588
C         72.02731        52.84791         1.53626
C         70.90213        52.13544         1.09455
C         72.07802        54.23968         1.52730
C         70.92962        55.03354         1.22549
C         72.17426        57.19565         1.55943
C         70.92790        56.46573         1.38886
C         72.24445        58.54023         1.42125
C         71.01759        59.33948         1.21993
C         72.28157        61.62831         1.27771
C         71.03327        60.83604         1.17961
C         72.24198        62.97164         1.16858
C         70.98372        63.69503         0.96756
C         72.21531        65.70357         0.11512
C         70.99570        65.06821         0.45548
C         72.23210        66.93502        -0.50971
C         71.03577        67.59728        -0.87529
C         72.28122        69.52264        -1.87894
C         71.06118        68.88031        -1.55830
C         72.30009        70.74905        -2.52488
C         71.09319        71.37561        -2.87177
O         61.01707        64.78498         1.96156
O         51.59530        53.19086        -2.92507
O         46.66208        47.87796         0.87576
O         62.33865        46.48306        -3.11826
O         57.00314        46.81595        -4.22061
O         53.03819        56.62699         1.22449
O         40.93219        50.78372         4.97270
O         44.13151        50.23312        -0.61949
O         60.15056        58.81397         1.96210
O         48.78616        52.91293        -2.25286
O         51.57723        59.19100        -1.14254
O         70.92106        60.05634        -0.05722
O         65.97414        40.70072         1.44525
O         68.43147        64.89717         2.04496
O         66.47572        51.53341        -1.59401
O         70.24782        39.35094        -0.00135
O         61.36848        50.46072         0.30842
O         53.95392        52.16164        -3.28326
O         65.04850        54.12095        -1.63308
O         65.89599        60.18700        -0.50942
O         66.52983        48.80341         2.16316
H         66.37562        47.87250         2.46367
O         62.13028        61.63437         2.74970
H         63.05790        61.69827         3.09722
O         69.69941        33.68888         2.52670
H         68.85861        33.35019         2.15736
O         60.06224        61.67878        -1.18668
H         59.23605        62.01967        -1.59395
O         66.38841        45.92174         2.25440
H         66.97172        45.32328         2.77051
O         64.86061        61.72881         2.72089
H         65.23838        62.62275         2.93274
O         67.78755        36.03742         4.87777
H         67.07454        36.27309         4.23692
O         60.06433        55.00313        -2.52459
H         59.23407        54.75000        -2.98454
O         62.54370        41.60885        -3.12200
H         62.49191        42.51812        -3.48712
O         67.82947        42.03006         2.60284
H         67.02353        41.48063         2.76294
O         61.98765        52.86063         1.04082
H         61.79943        51.89555         1.17368
O         66.28317        56.72409        -1.28873
H         66.28682        57.67370        -1.53478
O         66.53823        39.36182        -1.95980
H         66.71348        40.30728        -2.20017
O         67.21805        35.31896        -0.69317
H         66.71215        35.71038        -1.44787
O         65.79497        64.18066         2.44686
H         66.62622        64.65740         2.70043
O         54.90152        58.19875         1.87673
H         55.00123        58.99318         2.44115
O         65.70852        35.52596         3.34778
H         65.07286        35.81412         2.65629
O         66.63534        42.20903        -1.75327
H         66.21810        42.83211        -2.38567
O         42.23330        48.33497        -0.47290
H         42.72516        49.05667        -0.93528
O         44.36073        49.39502         3.63291
H         44.69436        48.49495         3.42921
O         69.72684        58.69724         3.10799
H         68.85786        58.37117         3.42202
O         69.79509        61.60138         3.05971
H         69.06504        62.17965         3.36501
O         57.61628        49.69779        -3.92659
H         57.54074        48.98921        -4.60222
O         52.11784        50.64788        -4.01857
H         52.14540        51.63398        -4.11770
O         59.38462        43.80828        -4.51788
H         59.48338        44.71900        -4.87168
O         50.79172        48.34860        -4.16343
H         51.10586        49.25286        -4.42248
O         57.35995        49.52798        -0.27256
H         57.56890        50.18821         0.42178
O         64.96470        62.68384        -0.82634
H         64.86686        63.52515        -1.31929
O         54.89917        48.48183        -0.48555
H         55.78787        48.71812        -0.11237
O         54.68721        57.85492        -1.75934
H         54.72000        57.08443        -2.36423
O         70.26985        52.98286        -1.02472
H         69.53519        53.38103        -1.54080
O         69.45362        41.77534        -0.65778
H         70.09831        41.11417        -0.99896
O         46.89426        48.70970        -2.62649
H         47.46908        49.22398        -3.23313
O         65.66466        55.03373         1.90140
H         66.34789        55.50778         2.42107
O         64.92290        58.40591         2.54795
H         64.09017        57.99406         2.86361
O         61.55958        52.65915        -2.63883
H         61.33294        53.59048        -2.88342
O         61.71454        40.23256         0.18372
H         61.53646        39.30486         0.44663
O         61.76854        38.30795        -3.83994
H         61.28409        39.01242        -4.32149
O         60.60833        42.60258        -0.12954
H         60.77917        41.73154         0.30528
O         65.20532        36.83652        -2.28727
H         65.60721        37.67031        -2.63164
H         42.43717        46.42925         5.28373
H         41.87142        46.37592         7.69546
H         40.53652        50.48754         7.47539
H         40.92968        48.40718         8.81409
H         41.23556        46.55510         3.38758
H         40.82726        53.24902         5.04275
H         41.73483        46.20093         1.02871
H         42.24273        54.90215         3.87666
H         45.51642        44.38918        -0.79188
H         43.56809        45.36819         0.27990
H         45.16921        57.61950         2.14308
H         43.42670        56.13435         2.95657
H         46.95133        43.67828        -1.87185
H         46.57706        58.76558         1.56350
H         48.95873        42.64469        -2.78077
H         48.52767        60.17126         1.13501
H         52.66975        40.84924        -4.12334
H         50.54022        41.90946        -3.65255
H         52.25286        62.53488         0.91411
H         50.15357        61.34215         0.92377
H         54.29722        39.97791        -4.29188
H         53.90674        63.52486         0.73971
H         56.31055        38.69760        -3.88450
H         56.01057        64.74971         0.75834
H         59.79197        36.41331        -2.87100
H         57.76834        37.68217        -3.20355
H         59.70038        66.89100        -0.18183
H         57.63575        65.67665         0.14291
H         61.05295        35.50910        -1.67903
H         61.45240        67.70661        -0.60823
H         62.68074        34.27980        -0.35171
H         63.56373        68.68036        -1.33036
H         65.37449        32.52072         2.56526
H         64.10059        33.25343         0.60596
H         67.32974        70.41262        -2.52124
H         65.20840        69.36566        -2.00846
H         67.12529        31.80069         3.24353
H         68.95685        71.27948        -2.85215
H         69.47212        32.31532         6.82241
H         68.43806        30.83107         5.09385
H         69.14375        34.79311         6.68889
H         71.71613        35.09658         3.32116
H         72.01515        37.52248         2.89861
H         72.28986        39.43844         2.57628
H         72.32823        41.83060         2.52293
H         72.52683        43.71130         2.22465
H         72.66015        46.11364         2.04202
H         72.80239        47.98400         1.78416
H         72.91065        50.40006         1.70426
H         72.89651        52.30931         1.93967
H         72.99854        54.72377         1.87902
H         73.10591        56.63041         1.69807
H         73.22114        59.04525         1.43244
H         73.24641        61.11015         1.37710
H         73.18094        63.53884         1.22142
H         73.17428        65.22149         0.34303
H         73.20557        67.38642        -0.74029
H         73.23883        69.05451        -1.61608
H         73.25857        71.23029        -2.76314
H         71.10496        72.34885        -3.38142
