         344
 CSIRO Nanostructure Databank - Neutral Graphene Oxide Data Set
C          1.58678         1.95426        -0.95568
C          1.47139         3.36809        -0.88099
C          2.60416         1.28863        -0.33111
C          2.51081         4.15552        -0.34812
C          1.31628         6.33021        -0.78933
C          1.27523         7.70577        -0.83354
C          2.47789         5.60406        -0.37191
C          2.37415         8.51229        -0.40779
C          1.20719        10.66391        -0.88404
C          1.23497        11.98504        -1.16995
C          2.39543         9.90993        -0.52925
C          2.53132        12.73678        -1.27017
C          1.28842        14.97353        -1.14983
C          1.30195        16.37859        -1.17035
C          2.46179        14.23591        -1.00564
C          2.50979        17.08783        -1.12491
C          2.55978        18.52519        -1.23031
C          3.59584         2.03270         0.51642
C          3.67481         3.50119         0.16896
C          4.92764         1.35800         0.47747
C          4.85651         4.22626         0.39226
C          3.61761         6.32713         0.04491
C          3.52563         7.79244         0.17838
C          4.84157         5.66149         0.32664
C          4.82565         8.56808         0.41841
C          3.61390        10.67394        -0.30589
C          3.63033        12.04062        -0.51588
C          4.86088         9.98906         0.03554
C          4.88219        12.80746        -0.14981
C          3.70204        14.93843        -0.86160
C          3.73246        16.36396        -0.97911
C          4.91608        14.23902        -0.63284
C          4.97575        17.05509        -0.95312
C          3.74917        19.19445        -1.21334
C          5.00263        18.49403        -1.08390
C          6.12660         2.06357         0.61126
C          6.11316         3.53703         0.58742
C          7.33444         1.38862         0.83554
C          7.30375         4.24380         0.59504
C          6.07060         6.39409         0.45324
C          6.08482         7.80767         0.40184
C          7.31959         5.67828         0.51294
C          7.30933         8.51685         0.31872
C          6.08111        10.62269        -0.09936
C          6.11115        12.04199        -0.62066
C          7.31980         9.93177         0.13969
C          7.38241        12.78752        -0.29174
C          6.15140        14.91490        -0.63990
C          6.18620        16.33466        -0.81474
C          7.38818        14.19429        -0.41998
C          7.44625        17.02888        -0.82620
C          6.21881        19.16978        -1.08040
C          7.46058        18.48021        -0.95068
C          8.55086         2.16058         1.25903
C          8.60942         3.48755         0.49565
C          9.84682         1.42553         1.05656
C          9.82057         4.30378         0.87108
C          8.54811         6.37074         0.48699
C          8.55448         7.80031         0.36310
C          9.79965         5.65508         0.73035
C          9.76647         8.51103         0.28328
C          8.54795        10.65457         0.19322
C          8.54498        12.07832         0.05883
C          9.79265         9.93220         0.30729
C          9.76291        12.84523         0.34182
C          8.63195        14.91383        -0.41042
C          8.63984        16.32347        -0.66710
C          9.83435        14.23844        -0.09682
C          9.95460        17.01755        -0.92152
C          8.66921        19.17956        -0.85212
C          9.91742        18.51160        -0.69556
C         11.03864         2.10798         1.05814
C         11.05629         3.58922         1.38199
C         12.27108         1.43590         0.81091
C         12.35181         4.26607         0.97297
C         11.06119         6.46697         0.96224
C         11.01747         7.71234         0.05020
C         12.34003         5.66443         0.75427
C         12.28398         8.51998         0.13456
C         11.04112        10.60969         0.37451
C         11.09300        12.05547         0.54518
C         12.28287         9.88269         0.27609
C         12.35645        12.77422         0.24992
C         11.09727        14.92462        -0.06952
C         11.13832        16.34181        -0.28241
C         12.30758        14.22100         0.11262
C         12.30300        17.05779        -0.03890
C         11.09928        19.19594        -0.48531
C         12.33857        18.51548        -0.18132
C         13.52906         2.06085         0.82898
C         13.56039         3.52888         0.95361
C         14.66075         1.26414         0.45744
C         14.77730         4.27860         0.83050
C         13.52777         6.34374         0.42801
C         13.53678         7.74380        -0.14321
C         14.75777         5.65613         0.47681
C         14.80625         8.51258         0.13882
C         13.57120        10.63939         0.58488
C         13.53909        12.08935         0.15884
C         14.81251         9.89726         0.16891
C         14.80001        12.82397        -0.28204
C         13.53494        14.94285         0.21380
C         13.51264        16.36377         0.29532
C         14.77866        14.25467         0.19327
C         14.71416        17.05968         0.57920
C         13.50037        19.20467         0.04328
C         14.73879        18.57797         0.64110
C         15.99691         1.62797         0.72515
C         16.05218         3.70629         1.07250
C         17.20847         1.29767         0.11333
C         17.26986         4.28214         0.63868
C         16.01241         6.36296         0.31817
C         16.00979         7.77626         0.22181
C         17.24259         5.66225         0.33921
C         17.24210         8.49064         0.68265
C         16.08383        10.62984        -0.18492
C         16.08294        12.11005         0.08223
C         17.29783         9.94532         0.34350
C         17.25906        12.78662         0.31819
C         15.95985        14.94449         0.44181
C         15.90079        16.33348         0.72509
C         17.29319        14.29055         0.14514
C         17.15380        17.10965         1.00519
C         16.01700        19.11275         0.03408
C         17.22389        18.23299        -0.05607
C         18.41923         2.06985         0.26461
C         18.46881         3.48303         0.51363
C         19.64020         1.44576        -0.08959
C         19.73318         4.17514         0.46764
C         18.52594         6.35142        -0.03819
C         18.52651         7.79514         0.36783
C         19.74921         5.60307         0.43788
C         19.71493         8.48522         0.58848
C         18.48506        10.64902         0.57724
C         18.50428        12.08703         0.55959
C         19.71361         9.91762         0.75891
C         19.71575        12.77414         0.89210
C         18.47752        14.97219         0.80129
C         18.42945        16.31608         1.03491
C         19.71375        14.22917         1.01159
C         19.65752        17.13485         1.36940
C         18.50067        19.00000         0.06388
C         19.65463        18.44985         0.59395
C         20.90477         2.05221         0.03767
C         20.96882         3.44631         0.45697
C         22.01124         1.32819        -0.52211
C         22.18084         4.18250         0.70156
C         20.94943         6.32617         0.59502
C         20.95677         7.76456         0.62407
C         22.17338         5.61174         0.77713
C         22.16381         8.48601         0.81598
C         20.93153        10.61791         0.96085
C         20.90517        12.04451         1.11115
C         22.15697         9.88800         0.99637
C         22.13391        12.68562         1.72601
C         20.88742        14.92397         1.31197
C         20.94085        16.35416         1.21420
C         22.13898        14.20713         1.64504
C         22.14176        17.04284         1.05318
C         20.89500        19.11504         0.45674
C         22.12483        18.45810         0.70316
C         23.36430         1.63024        -0.29585
C         23.43909         3.57320         0.97759
C         24.44218         1.33314        -1.13201
C         24.61356         4.29248         1.18378
C         23.39998         6.35332         0.83930
C         23.41193         7.76656         0.81793
C         24.65635         5.66854         0.85639
C         24.65527         8.47289         0.70745
C         23.46070        10.54961         1.39077
C         23.42135        12.04297         1.23414
C         24.66791         9.88478         0.78449
C         24.61062        12.76214         1.00474
C         23.44353        14.93387         1.47866
C         23.42271        16.37647         1.13539
C         24.65112        14.17003         1.13472
C         24.61325        17.06895         1.03893
C         23.33246        19.11356         0.45899
C         24.59701        18.47307         0.63758
C         25.70098         2.07179        -1.17258
C         25.64702         3.58142        -1.09765
C         26.88510         1.47025        -1.50330
C         26.90169         4.33554        -0.74800
C         25.83933         6.33179         0.40201
C         25.85028         7.74159         0.39465
C         26.97072         5.58511        -0.16329
C         27.04048         8.48256         0.00369
C         25.84068        10.63590         0.48624
C         25.84552        12.06172         0.61449
C         27.01227         9.93941         0.03543
C         27.03117        12.79057         0.31146
C         25.98542        14.84192         1.32933
C         25.92122        16.38414         1.25633
C         27.09895        14.23500         0.49822
C         27.17553        17.16668         0.95746
C         25.75441        19.18240         0.37891
C         27.11218        18.69799         0.78737
C         28.10741         2.26130        -1.73993
C         28.13025         3.69666        -1.27901
C         29.41174         1.56787        -1.92763
C         29.43731         4.31939        -0.99016
C         28.28838         6.31129        -0.01631
C         28.19222         7.79227        -0.30564
C         29.48175         5.64058        -0.65427
C         29.35846         8.44443        -0.99899
C         28.17413        10.67129        -0.28163
C         28.18287        12.07484        -0.13056
C         29.36677         9.97305        -0.85341
C         29.39440        12.81910        -0.53255
C         28.22843        14.98583         0.18472
C         28.33712        16.41746         0.39780
C         29.39661        14.32382        -0.43636
C         29.44865        17.12535        -0.06842
C         28.22328        19.26598        -0.03602
C         29.39685        18.57694        -0.23931
C         30.58624         2.16046        -1.67148
C         30.68222         3.46717        -0.92628
C         31.92359         4.27412        -1.18268
C         30.73773         6.37511        -0.69725
C         30.70021         7.76348        -0.70781
C         31.94771         5.60936        -0.97647
C         31.91014         8.54519        -0.71245
C         30.68258        10.69437        -0.88453
C         30.73251        12.11886        -0.34712
C         31.92530         9.89749        -0.80643
C         31.87175        12.92322        -0.90704
C         30.68663        15.03519        -0.51405
C         30.67728        16.44691        -0.45174
C         31.84097        14.28285        -0.91483
C         31.82170        17.21703        -0.77424
C         30.55854        19.27695        -0.70805
C         31.75226        18.61062        -0.90963
O         24.60599         4.16359        -1.38285
O         16.11802         2.54719         1.81567
O         27.96076         3.35591        -2.72103
O         23.64268         2.19375         0.98215
O         22.83933        14.73331         2.83457
O          3.90914         8.26325         1.51890
O         10.34458        12.59041         1.67255
O         29.87726        10.58690        -2.10124
O         26.77500        16.88920         2.35407
O         29.17376        13.60582        -1.73034
O         18.60647         6.32580        -1.51878
H         18.72116         5.38991        -1.78942
O         13.57788         7.54119        -1.60031
H         12.71696         7.11625        -1.83862
O          4.95043        12.86319         1.30238
H          4.15448        13.33142         1.62916
O         30.76107         3.06153         0.49779
H         30.96875         3.86814         1.01707
O         19.63096        17.51315         2.78153
H         18.82307        18.06326         2.90855
O         25.74156         3.58656         1.49612
H         25.46506         2.64115         1.55264
O         13.64192        10.68267         2.05630
H         12.78506        11.03271         2.38433
O          2.96577        12.63812        -2.68592
H          3.95083        12.61115        -2.69210
O         30.90521        12.02605         1.10079
H         31.82134        11.73034         1.28392
O         17.12409         8.41462         2.17118
H         17.87006         8.93995         2.53543
O         17.22966        17.49033        -1.34923
H         17.06411        18.13956        -2.06540
O         10.91114         7.16802        -1.31967
H         10.64446         7.90641        -1.90798
O         14.73692        12.86955        -1.74422
H         15.12209        12.01512        -2.06892
O         29.11886         8.15815        -2.41290
H         29.47386         8.93172        -2.91379
O         27.33811        19.31257         2.10418
H         26.96961        18.67903         2.76591
O         11.01285         3.73476         2.84304
H         11.68712         3.13043         3.21945
O         23.59365        10.26367         2.83744
H         22.96844        10.89162         3.29030
O         26.33159        14.46705         2.70391
H         26.78174        15.24983         3.10408
O         10.17517        16.85653        -2.37745
H          9.44907        17.33495        -2.83181
O         11.07179         6.91826         2.33338
H         10.97894         6.12227         2.90271
O          3.10985         1.96185         1.92252
H          2.25746         2.44622         1.95590
O         14.70823        19.02463         2.03996
H         15.57550        18.75215         2.43322
O         16.14633        10.53482        -1.69838
H         17.06414        10.76888        -1.96043
O          8.38390         2.48860         2.67077
H          8.34165         1.65035         3.17544
O         17.51171        14.50700        -1.28878
H         17.40554        15.47642        -1.45329
O         17.03037        17.74822         2.32071
H         16.90332        17.03048         2.97759
O         28.60860         6.24841         1.43126
H         28.31646         5.37230         1.76252
O         22.01116        12.36435         3.16389
H         22.47394        13.10345         3.63283
O          8.77636         3.12700        -0.91221
H          8.84238         3.95813        -1.42786
O          6.00490        11.97609        -2.07965
H          6.79891        11.51429        -2.42189
H          0.82433         1.39419        -1.51713
H          0.59369         3.84332        -1.33834
H          2.66785         0.19179        -0.37803
H          0.42816         5.77421        -1.11908
H          0.36933         8.19123        -1.22204
H          0.23844        10.14329        -0.88139
H          0.29757        12.49578        -1.43212
H          0.32379        14.46135        -1.27043
H          0.35488        16.92694        -1.27779
H          1.61367        19.07691        -1.33257
H          4.95158         0.25719         0.46732
H          3.76977        20.29078        -1.30131
H          7.33324         0.28856         0.90247
H          6.23037        20.26628        -1.17352
H          9.83752         0.34038         0.86527
H          8.64942        20.28007        -0.82436
H         12.22844         0.35643         0.59858
H         11.09120        20.29720        -0.46111
H         14.45970         0.31645        -0.06457
H         13.50138        20.30206        -0.05105
H         17.25212         0.41515        -0.54204
H         16.17173        20.20343         0.09040
H         19.60421         0.40303        -0.43920
H         18.56505        19.98435        -0.42916
H         21.76944         0.58211        -1.29566
H         20.91610        20.12097         0.00885
H         24.26242         0.61505        -1.94891
H         23.31985        20.16683         0.14188
H         26.94860         0.37462        -1.59367
H         25.66824        20.23834         0.08040
H         29.38493         0.56620        -2.38538
H         28.18476        20.34508        -0.24899
H         31.52777         1.62714        -1.87483
H         32.85031         3.73937        -1.44149
H         32.89374         6.15032        -1.12367
H         32.86975         8.02312        -0.58615
H         32.88615        10.42969        -0.74658
H         32.77798        12.40232        -1.24815
H         32.73980        14.82164        -1.24687
H         32.77603        16.71777        -0.98576
H         30.49516        20.36552        -0.84520
H         32.65051        19.16799        -1.21009
