         349
 CSIRO Nanostructure Databank - Neutral Graphene Oxide Data Set
C          2.55099         4.57904         4.36978
C          1.39387         5.33264         4.58493
C          1.88349         6.85466         2.70802
C          1.07992         6.44800         3.80636
C          1.65721         8.05929         2.00786
C          0.51215         8.88460         2.29131
C          1.33737        10.75685         0.89013
C          0.31850        10.10836         1.73094
C          1.28916        12.25317         0.67459
C          0.23605        13.13846         1.21392
C          1.36352        15.08411         0.19855
C          0.28015        14.46484         0.94680
C          1.26451        16.48562        -0.22285
C          0.02071        17.17181        -0.12151
C          1.08690        19.29875        -0.59737
C         -0.01807        18.57561        -0.20059
C          1.07891        20.79280        -0.39182
C         -0.02650        21.50747        -1.15709
C          1.12150        23.67593        -0.85752
C         -0.01818        22.84235        -1.31311
C          1.17287        25.13550        -1.15665
C          0.04855        25.90483        -1.24715
C          1.25116        28.01736        -0.93019
C          0.09846        27.34941        -1.27049
C          1.35790        29.44686        -0.78584
C          4.62912         4.21598         3.10250
C          3.42672         4.89883         3.30866
C          4.07949         6.46423         1.38490
C          3.02349         5.96835         2.36524
C          3.89617         7.79860         0.73039
C          2.60989         8.57120         0.99091
C          3.71635        10.62143         0.10620
C          2.62060        10.02635         0.68662
C          3.74680        12.10991        -0.05248
C          2.57419        12.94208         0.33639
C          3.70142        14.99000        -0.62921
C          2.51003        14.36377        -0.08196
C          3.76040        16.50368        -0.56246
C          2.39293        17.14650        -0.70771
C          3.57083        19.31432        -1.05107
C          2.26760        18.57330        -1.18335
C          3.57843        20.75124        -0.89086
C          2.40136        21.46614        -0.67055
C          3.70732        23.66430        -0.74913
C          2.42317        22.93703        -0.59240
C          3.73484        25.04316        -0.84471
C          2.51528        25.83131        -1.26812
C          3.75350        27.88620        -0.35110
C          2.45502        27.20275        -0.63118
C          3.79008        29.36852        -0.32286
C          2.54036        30.07305        -0.49272
C          6.87542         4.02370         2.09906
C          5.63630         4.67976         2.20477
C          6.50228         6.54311         0.83125
C          5.43809         5.90725         1.47946
C          6.34422         7.87842         0.28009
C          5.09959         8.54413         0.32094
C          6.11748        10.57395        -0.57309
C          4.97863         9.90667        -0.08150
C          6.03930        11.95935        -1.10917
C          4.78658        12.76113        -0.91183
C          6.01492        14.93090        -1.52584
C          4.80463        14.25388        -0.98294
C          6.09565        16.42979        -1.51583
C          4.89420        17.17055        -1.33638
C          5.84555        19.47058        -1.71557
C          4.75271        18.61374        -1.38033
C          6.00401        20.75590        -1.23403
C          4.83949        21.48447        -0.90837
C          6.17761        23.58067        -0.92704
C          4.92250        22.89859        -0.81889
C          6.22420        24.97248        -0.75844
C          4.99557        25.75076        -0.75041
C          6.25706        27.88558        -0.42566
C          5.00417        27.13740        -0.58108
C          6.22772        29.30031         0.05248
C          4.98203        30.02029        -0.10646
C          9.12851         3.86570         1.12557
C          7.92853         4.56370         1.31890
C          8.82298         6.45560        -0.00289
C          7.76848         5.87448         0.72209
C          8.68638         7.79023        -0.52946
C          7.46673         8.51860        -0.31931
C          8.40556        10.44685        -1.52430
C          7.34473         9.87510        -0.75033
C          8.46409        11.89526        -1.82965
C          7.36032        12.70040        -1.14781
C          8.60700        14.79616        -1.56087
C          7.28707        14.12296        -1.67914
C          8.61622        16.19071        -1.33723
C          7.43367        16.95386        -1.57521
C          8.68022        19.04659        -1.04498
C          7.70918        18.35977        -1.72031
C          8.41692        20.44447        -0.50867
C          7.38240        21.34109        -1.23830
C          8.79318        23.50203        -0.78656
C          7.45474        22.82763        -1.11943
C          8.64463        24.89183        -0.21415
C          7.47866        25.60692        -0.42967
C          8.59444        27.63576         0.58343
C          7.50713        27.07460        -0.26363
C          8.56048        29.10785         0.91210
C          7.37047        29.89839         0.51326
C         11.27991         3.61733        -0.00142
C         10.17814         4.38939         0.31164
C         11.10762         6.31628        -0.94549
C         10.04462         5.73821        -0.24621
C         10.99176         7.62472        -1.70303
C          9.69666         8.34350        -1.33797
C         11.27951        10.62678        -2.34196
C          9.40681         9.57605        -1.95108
C         11.12166        11.96193        -1.98431
C          9.80466        12.65129        -2.00373
C         11.03275        14.76268        -1.31006
C          9.80578        14.07893        -1.58565
C         11.01101        16.13633        -0.88843
C          9.82393        16.84566        -0.91820
C         11.01241        18.98313        -0.19233
C          9.69939        18.22158        -0.28802
C         10.99508        20.38334         0.01995
C          9.70415        21.14515        -0.02353
C         11.04823        23.30737         0.36232
C          9.76543        22.63941         0.01360
C         10.99076        24.68698         0.62553
C          9.84222        25.50568         0.31934
C         10.99530        27.51579         1.23140
C          9.84894        26.86769         0.66455
C         10.98515        28.96935         1.45370
C          9.85164        29.73099         1.22354
C         13.65714         3.47296        -0.71056
C         12.31996         4.10178        -0.97573
C         13.53671         6.31879        -1.20071
C         12.35318         5.61255        -1.04349
C         13.53718         7.76116        -1.32857
C         12.30076         8.46488        -1.62618
C         13.75453        10.50558        -2.11452
C         12.40372         9.81294        -1.96294
C         13.63114        12.06832        -2.08599
C         12.31677        12.69675        -1.67093
C         13.51982        14.92070        -1.71276
C         12.27831        14.08399        -1.44722
C         13.53365        16.25434        -0.97086
C         12.26203        16.74482        -0.28216
C         13.43841        18.96686         0.02273
C         12.22607        18.27228        -0.18706
C         13.43942        20.36353         0.21983
C         12.21662        21.08595         0.22906
C         13.42392        23.15145         0.96738
C         12.22559        22.52417         0.54168
C         13.36580        24.48496         1.58286
C         12.06150        25.30853         1.40206
C         13.25882        27.35151         2.33052
C         12.11035        26.76214         1.55361
C         13.35941        28.85179         2.16383
C         12.21587        29.58801         1.84374
C         16.09129         3.48538        -0.54953
C         14.83122         4.13043        -0.88516
C         16.10580         6.33234        -1.13148
C         14.82271         5.56969        -1.25971
C         15.94363         7.75144        -0.65664
C         14.73132         8.48688        -1.09317
C         15.93216        10.64484        -0.80133
C         14.81560         9.89960        -1.22840
C         15.98177        12.05854        -0.98002
C         14.81659        12.75833        -1.44931
C         16.05115        14.85780        -1.42683
C         14.78801        14.13665        -1.45168
C         15.99626        16.39624        -1.20793
C         14.69288        16.92668        -0.74683
C         15.97997        18.90332         0.27332
C         14.68450        18.10864         0.23636
C         15.84117        20.22173         1.01074
C         14.77258        21.09664         0.30339
C         15.84539        23.16048         1.31592
C         14.68781        22.48804         0.91938
C         15.83782        24.56755         1.61116
C         14.60618        25.25547         1.78509
C         15.77966        27.33003         2.30561
C         14.57082        26.63883         2.06550
C         15.83807        28.79620         2.33506
C         14.59631        29.49716         2.32487
C         18.53444         3.49163        -0.14770
C         17.28344         4.14722        -0.47158
C         18.38325         6.32825         0.06806
C         17.43044         5.59289        -0.90141
C         18.48681         7.82350        -0.29557
C         17.11321         8.49018        -0.10557
C         18.38688        10.67004        -0.11730
C         17.00942        10.00737         0.07450
C         18.31816        12.19679         0.11465
C         17.17457        12.81510        -0.67565
C         18.59084        14.84498        -1.22601
C         17.26156        14.14428        -1.04420
C         18.56622        16.32666        -0.80982
C         17.26707        17.07168        -0.79149
C         18.46841        19.07876         0.02559
C         17.17331        18.34205        -0.03514
C         18.43694        20.49185         0.53597
C         17.17421        20.99941         1.15462
C         18.41369        23.26865         1.29439
C         17.15724        22.47647         1.41456
C         18.36523        24.67093         1.49902
C         17.06441        25.25692         1.83538
C         18.63968        27.69924         1.86074
C         16.95369        26.54819         2.37542
C         18.23092        29.00957         1.52426
C         16.98922        29.54413         2.02266
C         19.69776         4.19004         0.04035
C         20.82395         6.36290         0.47362
C         19.72756         5.63262         0.10094
C         20.73011         7.78266         0.73942
C         19.61847         8.51140         0.44946
C         20.79123        10.75416         0.57597
C         19.49137        10.00275         0.76447
C         20.84285        12.04841         0.19937
C         19.66966        12.82621        -0.17373
C         21.02060        14.86776        -0.69179
C         19.76886        14.10843        -0.62963
C         21.00797        16.18532        -0.40962
C         19.71906        16.82910         0.06004
C         20.87816        19.04195         0.46382
C         19.74820        18.34871         0.12174
C         20.87396        20.44613         0.76093
C         19.70840        21.16421         0.88064
C         20.82570        23.39078         1.01354
C         19.65415        22.60871         1.10833
C         20.75642        24.77616         1.02490
C         19.54340        25.44977         1.26146
C         20.24301        27.59926         0.09842
C         19.51697        26.91718         1.09390
C         20.02414        28.96931        -0.11921
C         19.01477        29.66818         0.54383
O          3.68614        12.73428         1.29336
O          5.07797        12.10785        -2.19077
O          8.15188        28.06821         1.91550
O         10.23489         9.97699        -3.00914
O         12.38641        24.59999         2.66419
O         13.53280        12.52786        -3.43876
O          7.62276        22.12876        -2.43383
O         14.57678        17.54895         1.54714
O          1.57374        23.44783         0.52892
O         16.09972        15.85577        -2.52308
O          6.83789        19.02900        -2.57760
O         16.18021         7.82326         0.80666
O         15.59300         6.00767        -2.45118
O          7.24286        27.75727        -1.53526
O         18.40421        20.22240        -0.90521
O         18.07617        27.11365         3.00128
O          8.89525        12.34605        -3.11925
O          2.80220         7.78045        -0.23398
O          9.32182        21.90345         1.20248
O          6.46603        14.37263        -2.83376
O          2.91811        27.29575         0.73937
O         18.23593        17.20085        -1.91080
O          3.06649         5.50014         0.97500
O          0.81582        11.34010        -0.37082
O         17.32867        21.48269         2.50876
O         19.42236        16.34860         1.39992
H         20.18272        16.55508         1.98204
O          9.22621        17.97425         1.06560
H          8.62879        18.72355         1.31129
O         18.81235        14.81077        -2.66026
H         18.33461        15.59093        -3.03555
O         18.83139         7.96703        -1.69122
H         18.77376         7.08728        -2.14208
O          4.13209        16.79251         0.84262
H          3.44357        16.39154         1.41657
O          9.51141        23.73604        -2.03561
H          9.04212        23.23333        -2.74375
O         17.88161         6.20694         1.41663
H         18.07025         5.29754         1.72857
O         18.04122        12.51419         1.49623
H         17.31122        11.93212         1.80733
O         12.96335        27.11004         3.74255
H         12.74449        26.14871         3.81862
O          2.72990        26.10132        -2.69553
H          2.85222        25.24622        -3.15867
O         16.56541        10.23308         1.44522
H         16.02377         9.43648         1.68165
O          7.78899        12.79292         0.24259
H          7.11570        13.28456         0.75919
O         14.18374        10.16067        -3.45490
H         14.01090        10.98973        -3.98979
O         13.46297        15.19178        -3.13816
H         13.51414        14.28644        -3.56740
O         18.09416         5.50775        -2.19535
H         17.37555         5.38980        -2.86262
O          0.78179        20.96385         1.02770
H          0.91092        21.92669         1.22664
O          7.65586        20.13692         0.72040
H          7.90368        20.83281         1.38158
O         15.24455        21.28696        -1.05909
H         14.54307        21.73789        -1.57322
O          2.01990        18.51500        -2.65710
H          1.26313        17.90636        -2.79961
O         10.87914         7.23971        -3.10614
H         10.78462         8.07210        -3.62476
O         18.70791        10.49299        -1.50384
H         19.65755        10.68964        -1.64182
O         11.88408         3.63212        -2.29890
H         11.13988         4.20449        -2.58510
O         15.36688        19.92944         2.32821
H         15.01246        18.99041         2.33196
O         19.16470        10.09843         2.16940
H         18.19532         9.94564         2.27050
O         12.33671        16.22604         1.06934
H         13.14370        16.66114         1.49095
H          2.79954         3.74603         5.04253
H          0.73150         5.06865         5.42118
H          0.19071         7.03146         4.07898
H         -0.27838         8.48417         2.94043
H         -0.62333        10.64422         1.91035
H         -0.61351        12.71073         1.76393
H         -0.52702        15.10686         1.32448
H         -0.89100        16.62917         0.15716
H         -0.92584        19.10436         0.12450
H         -0.88328        20.91713        -1.51555
H         -0.84167        23.34184        -1.84576
H         -0.94445        25.42995        -1.24363
H         -0.83018        27.90629        -1.46222
H          0.44995        30.05056        -0.93433
H          4.86244         3.34992         3.74028
H          2.56143        31.17012        -0.40937
H          7.02827         3.06648         2.61866
H          4.99446        31.11660        -0.00493
H          9.25031         2.86511         1.56583
H          7.36009        30.97073         0.76375
H         11.32283         2.56968         0.33319
H          9.90493        30.82635         1.31797
H         13.66675         2.42222        -0.38153
H         12.27086        30.68820         1.84449
H         16.04887         2.41677        -0.28591
H         14.62239        30.59624         2.24613
H         18.54136         2.39312        -0.08155
H         16.83927        30.62928         1.89296
H         20.63483         3.64323         0.22641
H         21.79292         5.86430         0.62742
H         21.60277         8.26057         1.20830
H         21.72974        10.23715         0.82533
H         21.82586        12.53659         0.11539
H         21.96401        14.36186        -0.94919
H         21.93589        16.77304        -0.45851
H         21.84126        18.51686         0.54805
H         21.84431        20.92066         0.96309
H         21.79945        22.90736         0.85926
H         21.67197        25.36359         0.86800
H         20.96397        27.05765        -0.52972
H         20.61171        29.48464        -0.89159
H         18.78545        30.70616         0.26440
