         272
 CSIRO Nanostructure Databank - Neutral Graphene Oxide Data Set
C        -11.15381         0.88270         0.13636
C         -9.98864         1.63838         0.65522
C         -8.67900         0.77265         0.78470
C         -7.38806         1.51959         0.57546
C         -6.14041         0.71864         0.84317
C         -4.87514         1.42897         1.24302
C         -3.54493         0.65507         1.33494
C         -2.34866         1.44217         0.77210
C         -1.10582         0.69090         0.43174
C         -0.02011         1.27127        -0.41825
C          1.30028         0.52854        -0.45683
C          2.46477         1.33206         0.05523
C          3.79112         0.65148         0.14507
C          5.03957         1.50197         0.32355
C          6.33738         0.77436         0.38208
C          7.57725         1.56845         0.66937
C          8.86057         0.82722         0.51472
C         10.15741         1.62262         0.37480
C         11.16772         0.85141        -0.44615
C         -9.79342         3.05912         0.44377
C         -8.66113         3.73029         1.17714
C         -7.36976         2.98783         0.77520
C         -6.10658         3.72736         1.10685
C         -4.83045         2.96269         1.28861
C         -3.57273         3.68740         0.85125
C         -2.54634         2.81412         0.17853
C         -1.37362         3.46932        -0.47688
C         -0.05744         2.73679        -0.68829
C          1.25767         3.48828        -0.59565
C          2.35896         2.82154         0.20079
C          3.58684         3.61863         0.62115
C          4.92153         2.93844         0.72750
C          6.17624         3.75390         0.55508
C          7.49060         3.04490         0.41374
C          8.76696         3.81085         0.36556
C          9.94579         3.11475         0.10494
C         -8.35740         5.23746         0.98655
C         -7.33065         5.69391        -0.04154
C         -6.21552         5.23679         0.88310
C         -4.85775         6.01656         0.95706
C         -3.59946         5.16796         0.57299
C         -2.69174         5.71362        -0.55089
C         -1.36442         4.94756        -0.76283
C         -0.05620         5.64608        -1.05158
C          1.27437         4.96772        -0.77777
C          2.36250         5.79515        -0.11789
C          3.52072         5.12124         0.56551
C          4.80348         5.89895         0.89586
C          6.16953         5.18523         1.05875
C          7.37620         5.92885         0.48713
C          8.61132         5.22751         0.27744
C         -7.37938         6.95615        -0.54888
C         -6.21530         7.86399        -0.46917
C         -4.95504         7.36650         0.17527
C         -3.67850         8.04128        -0.27367
C         -2.44610         7.22246        -0.46447
C         -1.37147         7.81332        -1.41491
C          0.00776         7.13807        -1.25255
C          1.28063         7.90515        -1.07568
C          2.59699         7.20069        -0.68733
C          3.53339         8.05547         0.16673
C          4.77786         7.39058         0.73737
C          6.12686         8.14028         0.75911
C          7.28158         7.28835         0.25816
C         -6.22190         9.21915        -1.09846
C         -5.10095         9.95772        -1.19399
C         -3.77886         9.22621        -1.26243
C         -2.48516        10.00637        -1.18172
C         -1.30320         9.33169        -1.21894
C         -0.01276        10.01277        -1.10485
C          1.19332         9.39080        -1.00200
C          2.52197        10.11866        -1.09110
C          3.57800         9.51261        -0.16275
C          4.91667        10.16118        -0.15678
C          6.05568         9.51183         0.13053
C        -11.19223        -0.46145        -0.01197
C        -10.03806        -1.37568         0.19964
C         -8.72075        -0.69917         0.48576
C         -7.46802        -1.33282        -0.04124
C         -6.14985        -0.64440         0.18645
C         -4.90682        -1.48440         0.28892
C         -3.65298        -0.80892         0.79643
C         -2.35011        -1.51421         0.53929
C         -1.04003        -0.78104         0.73329
C          0.16108        -1.58751         0.36051
C          1.34087        -0.96670        -0.31801
C          2.67344        -1.74435        -0.29091
C          3.83388        -0.86125         0.24363
C          5.04552        -1.51289         0.85157
C          6.34731        -0.65152         0.96092
C          7.60712        -1.43342         0.59138
C          8.69518        -0.59596        -0.10325
C         10.00160        -1.35488        -0.25337
C         11.15229        -0.49944        -0.55683
C        -10.06244        -2.75827        -0.47844
C         -8.79499        -3.57266        -0.26287
C         -7.52119        -2.80919        -0.39621
C         -6.24994        -3.57734        -0.53242
C         -4.91546        -2.90133        -0.29798
C         -3.69353        -3.72155        -0.01066
C         -2.41121        -2.99620         0.31570
C         -1.23464        -3.81663         0.73910
C          0.06305        -3.09790         0.52538
C          1.26780        -3.92126         0.26482
C          2.58022        -3.20528         0.17241
C          3.68849        -3.81776         1.00301
C          5.04055        -3.02695         0.93951
C          6.25582        -3.67082         0.32596
C          7.56049        -2.90073         0.30947
C          8.66471        -3.48851        -0.57899
C          9.97315        -2.71048        -0.39948
C         -8.78070        -4.93906        -0.25347
C         -7.57756        -5.78148        -0.28198
C         -6.24315        -5.11900        -0.66384
C         -5.10721        -5.81806         0.10204
C         -3.79677        -5.17222         0.35404
C         -2.56497        -6.01752         0.54236
C         -1.32394        -5.32485         0.94041
C         -0.05032        -6.10403         1.08598
C          1.12012        -5.43874         0.36290
C          2.47820        -6.10513         0.55872
C          3.76049        -5.34515         0.80910
C          5.08015        -5.98282         0.44487
C          6.21424        -5.12120        -0.06506
C          7.48874        -5.82741        -0.40607
C          8.80380        -5.02141        -0.32967
C         -7.60988        -7.14374        -0.18555
C         -6.38594        -8.04987        -0.03740
C         -5.07891        -7.27752        -0.19738
C         -3.79165        -8.03132        -0.13596
C         -2.55361        -7.36638         0.35551
C         -1.40752        -8.31655         0.76238
C         -0.00653        -7.64103         1.05606
C          1.29928        -8.33703         0.55759
C          2.48853        -7.50465        -0.02308
C          3.79859        -8.23612         0.22160
C          5.08297        -7.43917         0.11780
C          6.11098        -7.88592        -0.91001
C          7.43610        -7.14445        -0.72720
C         -6.25536        -9.29104        -0.90989
C         -5.09139        -9.96705        -0.96048
C         -3.87609        -9.55697        -0.13615
C         -2.52989       -10.07872        -0.60769
C         -1.33184        -9.49580        -0.22343
C         -0.08241       -10.06623        -0.63834
C          1.20131        -9.58410        -0.28782
C          2.41208       -10.16306        -0.70273
C          3.74605        -9.64748        -0.30197
C          5.04938       -10.17882        -0.80393
C          6.14377        -9.40861        -0.98104
O          1.24524        -0.32197        -1.62961
O         -2.62756         7.98759         0.75033
O         -0.03594        -1.02708         1.72704
O         -5.54655         3.47699         2.43227
O          6.71873         3.51545        -0.76663
O         -6.13192        -5.46284        -2.00379
O          2.37548         5.65920         1.31731
O         -2.93787         4.64002         1.74792
O          2.01488        -3.85312        -0.99420
O          5.04052        -2.22552         2.13402
O          3.05756        -6.04317         1.88074
O         -0.48250        -3.30631         1.86244
O         -4.30096        -7.50808        -1.40920
O         -4.80104        -5.38206         1.44294
O         -0.71959        -5.64582         2.25892
O         -9.43544         1.13945         1.92695
O          4.13763         3.17153         1.91164
O         -2.47853         2.85917        -1.25856
O         -0.83951         5.07401        -2.12546
O          8.02209        -2.40265         1.60870
O         -9.42824        -1.43967         1.52233
O         -6.81696        -0.55981        -1.09900
O          5.85308         1.23937        -0.88329
O         -4.50719        -1.58513         1.69937
O         -1.86777        -8.88097         2.01519
O         -0.25722         1.77172        -1.76164
O         -6.90595        -3.00888        -1.70945
O          1.74630         4.08672        -1.83634
O         -7.37137         2.41933        -0.57768
O          0.86991         7.42290        -2.40182
O         -1.22076         1.44657         1.68553
O          3.80193        -9.31272         1.15773
O          8.30800         1.10821         1.84237
O          5.57987        -6.97644         1.39825
O          1.60047        -8.70326         1.95743
O         -5.77881         0.83299         2.23819
O         -1.73739         7.46604        -2.73302
O          4.12736        -0.14376        -0.99789
O         -4.05607        -3.33274        -1.37866
O          2.97907         9.03056         1.08593
O          4.53585         6.77536         2.03289
O         -2.16860        -2.07742        -0.80481
O         -7.26604         5.53365         1.97704
O          1.94727         1.95370         1.28624
O         -5.86426         8.18825         0.97388
O          8.27758        -0.45851        -1.43991
O          6.32382         5.14721         2.53554
O          5.83767        -4.09578        -1.02461
O         -3.26101         0.50706         2.72607
H         -4.05135         0.10247         3.14875
O         10.77310         1.71099         1.70060
H         10.02868         1.70311         2.35045
O          0.61989        -5.78941        -0.99126
H          1.03434        -5.16695        -1.63844
O          9.38129        -5.21189         0.96733
H          8.93570        -4.61857         1.60833
O         -4.13297       -10.03990         1.21106
H         -3.36619        -9.76472         1.77897
O         -3.46909         5.54535        -1.75270
H         -2.91452         5.91939        -2.48987
O         -4.65405         6.36485         2.32115
H         -5.32006         7.05157         2.54701
O        -10.22773        -2.57561        -1.89318
H         -9.35698        -2.67194        -2.33494
O          0.39567        -8.01229         2.43854
H         -1.11793        -8.83427         2.66400
O          3.15325        -3.61214         2.32436
H          3.71819        -4.06823         2.98287
O          6.49999         8.36799         2.14309
H          6.00260         7.70125         2.68111
O          2.42287        -7.49466        -1.45944
H          1.59581        -7.03316        -1.73607
O          2.99248        10.04162        -2.44471
H          2.98831         9.09793        -2.71851
O         -8.85255         3.55106         2.58856
H         -8.11425         4.02115         3.04111
O          8.28382        -3.27609        -1.94850
H          8.20097        -2.29117        -2.07476
O          3.33817         7.00933        -1.92039
H          2.67911         6.73847        -2.60741
O          5.56410        -7.44285        -2.18623
H          6.25646        -7.53354        -2.87340
O          7.52243         4.36769         2.82859
H          7.28973         3.97824         3.70712
O         -3.93143         8.65241        -2.59021
H         -3.05100         8.29639        -2.92869
O         -6.46331        -8.49666         1.34221
H         -5.74688        -9.16841         1.48718
O          6.43083        -0.32806         2.36559
H          6.72886        -1.13656         2.83915
O          3.04187        -1.99329        -1.67081
H          2.84584        -1.18627        -2.19918
H         12.01842        -0.99401        -1.02643
H         12.05999         1.40167        -0.78270
H         10.86675         3.70140        -0.05345
H          9.49652         5.83580         0.02893
H          8.17552         7.82204        -0.10550
H          7.01445        10.04631         0.04597
H          4.96673        11.19054        -0.54418
H          2.39175        11.20212        -0.84596
H         -0.03896        11.11493        -1.09938
H         -2.50587        11.10143        -1.06291
H         -5.14640        11.00457        -1.52917
H         -7.21255         9.68311        -1.22946
H         -8.34950         7.37975        -0.85622
H         -9.24447         5.89330         1.14065
H        -10.31574         3.56213        -0.38396
H        -12.04123         1.47126        -0.14208
H        -12.10521        -0.91650        -0.42503
H        -10.95636        -3.31918        -0.09706
H         -9.74673        -5.47057        -0.21762
H         -8.57704        -7.62884         0.03034
H         -7.12077        -9.64134        -1.49265
H         -5.01184       -10.87724        -1.57566
H         -2.50177       -10.95366        -1.27900
H         -0.13712       -10.96815        -1.27042
H          2.37621       -11.04503        -1.36270
H          5.12481       -11.26541        -0.97289
H          7.07846        -9.88620        -1.31697
H          8.36482        -7.67887        -0.98696
H          9.52095        -5.44820        -1.07498
H         10.91275        -3.25147        -0.59913
