         480
 CSIRO Nanostructure Databank - Neutral Graphene Oxide Data Set
C         40.96170        53.41484        -6.39031
C         40.02901        54.36292        -6.79771
C         40.27775        55.51079        -4.69030
C         39.68894        55.42005        -5.94544
C         43.03777        51.46803        -5.64497
C         42.58126        52.49248        -4.71838
C         41.58309        53.48907        -5.12630
C         41.80187        54.64274        -2.91638
C         41.22201        54.55644        -4.25159
C         41.57844        55.69182        -2.04162
C         44.44806        50.38049        -3.93280
C         43.91210        50.49093        -5.29879
C         44.08546        51.50605        -2.99394
C         43.13749        52.54782        -3.45636
C         43.41900        53.71840        -1.15183
C         42.66546        53.54114        -2.47128
C         43.30643        54.99483        -0.42967
C         42.31831        55.87106        -0.83774
C         47.00278        47.55767        -4.06633
C         45.90080        48.39786        -4.35799
C         46.66913        50.02337        -2.63959
C         45.65414        49.55456        -3.65382
C         46.12684        50.90997        -1.54054
C         45.05516        51.86601        -1.90808
C         45.22988        52.97821         0.44016
C         44.70717        52.97272        -0.97992
C         45.29983        54.40927         0.96516
C         44.28563        55.29541         0.62777
C         45.17901        56.98615         2.18953
C         44.20056        56.55817         1.32344
C         49.26209        45.79633        -3.40825
C         48.92363        46.89261        -2.59601
C         47.83278        47.79333        -2.95083
C         48.34374        49.17397        -0.97415
C         47.57699        48.92880        -2.13776
C         48.04922        50.30263        -0.15167
C         46.85668        51.09129        -0.38331
C         47.64250        52.69867         1.44797
C         46.50054        52.14217         0.61641
C         47.61529        54.07797         1.93578
C         46.26197        54.73335         2.10062
C         47.52746        56.78006         2.93186
C         46.34429        56.20840         2.41912
C         47.55724        58.01359         3.60145
C         51.10355        45.17200        -1.93418
C         50.33093        44.96517        -3.09059
C         50.79830        46.27872        -1.08531
C         49.71625        47.15209        -1.43331
C         50.31022        48.63951         0.43966
C         49.44286        48.30665        -0.63653
C         50.17180        49.92342         1.07033
C         49.02398        50.72344         0.80127
C         50.04568        52.57944         2.04403
C         48.92681        51.99953         1.40972
C         50.02809        53.95799         2.39815
C         48.81270        54.68501         2.31833
C         50.05855        56.67269         3.27538
C         48.84804        56.17872         2.51385
C         49.99929        57.97560         3.90351
C         48.75163        58.59550         4.05017
C         53.46929        42.18460        -1.91041
C         52.50723        43.10169        -2.32761
C         52.75728        44.38990        -0.27856
C         52.14277        44.22770        -1.54498
C         52.64140        45.62390         0.50063
C         51.57900        46.54761         0.09686
C         52.16477        48.05685         2.00354
C         51.34949        47.73260         0.81134
C         52.11327        49.46043         2.53481
C         51.16714        50.43172         1.96022
C         52.16748        52.33914         3.36300
C         51.17890        51.76911         2.35665
C         52.52949        53.82460         3.06514
C         51.36470        54.65476         2.49370
C         52.53126        56.80710         3.16270
C         51.25563        56.02188         3.11826
C         52.48261        58.03999         4.01896
C         51.23021        58.60244         4.37687
C         52.39725        60.43235         5.48711
C         51.21303        59.78797         5.14641
C         55.24558        40.10044        -0.60063
C         55.12419        41.42170        -0.12718
C         54.00847        42.25763        -0.60462
C         54.98292        43.93577         1.53608
C         53.49739        43.29056         0.19919
C         54.88515        45.36574         1.66995
C         53.60520        46.02534         1.42747
C         54.64707        48.04091         2.56962
C         53.38797        47.20522         2.34277
C         54.48594        49.18863         3.28549
C         53.26739        50.00693         3.28496
C         55.28517        52.54226         3.75503
C         53.28201        51.34048         3.60940
C         55.05344        53.87251         3.43357
C         53.72952        54.50948         3.30921
C         54.95144        56.68041         3.50619
C         53.76697        55.97125         3.38501
C         55.05691        58.09965         4.05314
C         53.68507        58.69560         4.32575
C         55.57879        61.11967         4.39767
C         53.61338        59.89882         5.04117
C         55.83735        62.48672         4.64751
C         57.44495        39.85134         0.40967
C         56.33799        39.30601        -0.26414
C         57.40000        41.20247         0.81018
C         56.18758        41.94790         0.67668
C         57.38234        43.93782         1.83279
C         56.15453        43.27100         1.25604
C         57.34417        45.44939         1.70451
C         56.06132        46.11085         1.80450
C         57.25915        48.37965         1.86292
C         55.88671        47.62318         1.76554
C         57.44547        49.75794         2.42952
C         56.48457        50.43454         3.20009
C         57.56894        52.55757         2.80893
C         56.48270        51.84094         3.34315
C         57.54045        54.00947         2.95416
C         56.23180        54.66477         3.13327
C         57.38577        56.89455         2.83868
C         56.18853        56.04095         3.18031
C         56.95293        58.24962         2.26921
C         55.91561        58.97268         3.09053
C         57.10687        61.15613         2.48567
C         56.13459        60.43640         3.30870
C         57.28300        62.58688         2.69591
C         56.63588        63.20911         3.78645
C         59.94256        37.06758         0.03383
C         58.75433        37.68471         0.17391
C         59.92911        39.80081         0.84720
C         58.63190        39.01560         0.85734
C         59.89027        41.15865         1.10407
C         58.64077        41.88372         1.18817
C         59.86033        44.03712         1.33948
C         58.65270        43.26473         1.40770
C         59.80570        45.45997         1.36089
C         58.53231        46.14252         1.53265
C         59.84760        48.30578         1.62581
C         58.53864        47.62260         1.57213
C         59.94317        49.76027         1.96273
C         58.62491        50.47440         2.11131
C         59.79952        52.63317         1.71901
C         58.68357        51.87980         2.27466
C         59.74805        54.03615         1.66046
C         58.66952        54.79866         2.32889
C         59.57388        56.97567         1.52776
C         58.37716        56.17848         1.95790
C         59.26872        58.38578         1.06959
C         57.88526        58.99955         1.29424
C         58.84286        61.24961         0.66896
C         57.92969        60.49640         1.55287
C         58.91677        62.73919         0.79014
C         58.15984        63.38232         1.87084
C         59.43257        65.45753         1.49123
C         58.35229        64.75242         2.06283
C         62.48241        35.59179        -0.12872
C         62.40347        36.94644         0.31166
C         61.20382        37.68185         0.41403
C         62.39857        39.79802         0.89279
C         61.19298        39.08293         0.76929
C         62.41856        41.23229         1.03913
C         61.14726        41.89533         1.51028
C         62.30083        44.10366         1.13981
C         61.11677        43.37781         1.24212
C         62.25342        45.52118         1.00254
C         61.00310        46.19253         1.15640
C         62.16310        48.37270         0.78848
C         60.99160        47.64034         1.21283
C         62.06996        49.81809         0.62437
C         60.95688        50.51001         1.13773
C         61.90466        52.66438         0.41432
C         60.87704        51.92734         1.07623
C         61.78587        54.09224         0.29423
C         60.70402        54.75403         0.89706
C         61.40106        56.91307        -0.30570
C         60.43323        56.17501         0.56862
C         61.26692        58.41497        -0.50645
C         60.19881        59.07066         0.35865
C         61.28534        61.28786        -0.25128
C         60.04256        60.52172         0.06001
C         61.29240        62.66537        -0.25610
C         60.15065        63.47563         0.23001
C         61.64176        65.51700         0.32985
C         60.41517        64.84120         0.72671
C         61.93040        66.86667         0.78757
C         64.93874        35.57056         0.01579
C         63.68600        34.91970        -0.19565
C         64.95677        36.92219         0.37350
C         63.67494        37.56377         0.72079
C         64.93523        39.80188         0.84956
C         63.66795        39.06995         0.98174
C         64.88719        41.24559         1.05685
C         63.59595        41.94707         1.05470
C         64.80134        44.17492         0.72129
C         63.63407        43.43292         1.37376
C         64.70033        45.57254         0.45811
C         63.43857        46.26099         0.68032
C         64.44857        48.35774        -0.20528
C         63.33128        47.66058         0.46066
C         64.33785        49.84928        -0.45503
C         63.12917        50.56937         0.02389
C         64.21860        52.76788        -0.51233
C         63.03550        51.95996        -0.09682
C         63.96405        54.19091        -0.89945
C         62.80554        54.86527        -0.38684
C         63.81073        57.05083        -0.99087
C         62.67988        56.24702        -0.61186
C         63.75880        58.45360        -0.88895
C         62.57423        59.16288        -0.51758
C         63.77726        61.29684        -0.58978
C         62.52834        60.55711        -0.49433
C         63.78055        62.71699        -0.70871
C         62.45335        63.41454        -0.87029
C         63.73345        65.55954        -1.02078
C         62.58411        64.85094        -0.43290
C         63.92450        67.04759        -0.65095
C         63.02394        67.56214         0.38362
C         67.42373        32.72755         0.48576
C         66.28226        33.35539         0.14938
C         67.47691        35.60580         0.09456
C         66.21912        34.82072        -0.10374
C         67.41306        37.06516         0.29637
C         66.17581        37.69513         0.45678
C         67.35994        39.89032         0.41634
C         66.13820        39.13555         0.64482
C         67.31264        41.28890         0.29565
C         66.16275        42.05496         0.75605
C         67.14930        44.22282         0.00991
C         66.01990        43.50760         0.46566
C         67.09421        45.62445        -0.17445
C         65.85068        46.29863         0.01398
C         66.89860        48.46562        -0.59998
C         65.78100        47.72366        -0.24491
C         66.83329        49.92139        -0.68066
C         65.59852        50.58509        -0.60093
C         66.78111        52.70658        -1.14790
C         65.53826        52.05657        -0.67684
C         66.82328        53.97068        -1.73116
C         64.86677        54.96859        -1.59659
C         66.29807        57.00769        -1.49335
C         65.03658        56.38783        -1.41574
C         66.31163        58.48304        -1.42676
C         64.98055        59.21557        -1.16229
C         66.25643        61.32604        -0.41607
C         64.98487        60.60764        -0.72063
C         66.27135        62.74160        -0.95499
C         64.97246        63.42488        -1.04331
C         66.15033        65.44672        -1.98302
C         64.93376        64.78512        -1.36625
C         66.10130        66.97132        -1.82950
C         65.23348        67.68040        -0.97312
C         66.68964        69.64715        -1.14705
C         65.53055        69.02264        -0.66871
C         70.06085        31.35622         0.92512
C         69.99905        32.75742         0.85146
C         68.68220        33.45073         0.82395
C         69.96812        35.67954         0.54053
C         68.69207        34.93822         0.65389
C         69.93429        37.07701         0.30824
C         68.64638        37.79172         0.27547
C         69.87840        39.97300         0.21028
C         68.59625        39.18229         0.22104
C         69.73638        41.32715        -0.46683
C         68.41133        42.01227        -0.37107
C         69.64148        44.27077        -0.50428
C         68.36841        43.51545        -0.44047
C         69.54460        45.71011        -0.58185
C         68.28927        46.33962        -0.54545
C         69.43366        48.55822        -1.02754
C         68.14086        47.73836        -1.09795
C         69.36033        50.04660        -0.82344
C         68.04799        50.69175        -0.67423
C         69.19389        52.92748        -0.84777
C         68.02143        52.11050        -0.80845
C         69.10493        54.30880        -1.14980
C         67.86876        54.87698        -1.56313
C         68.86239        57.15093        -1.46124
C         67.65198        56.35076        -1.92824
C         68.80844        58.47579        -1.08635
C         67.56040        59.22250        -1.06876
C         68.73332        61.30259        -0.33529
C         67.51471        60.55448        -0.73390
C         68.70239        62.84513        -0.39110
C         67.44567        63.42314        -1.03056
C         68.80345        65.36305        -1.88318
C         67.45814        64.92341        -1.28203
C         68.95085        66.51722        -2.62521
C         67.11874        67.70474        -2.44170
C         68.82961        69.60423        -2.55401
C         67.51700        68.99237        -2.07361
C         68.60662        70.72285        -3.54482
C         72.46947        31.42860         1.00179
C         71.28292        30.69136         0.99985
C         72.42576        32.81695         0.91671
C         71.20208        33.51404         0.83554
C         72.38149        35.72707         0.59109
C         71.18925        34.98027         0.67767
C         72.35874        37.09431         0.32440
C         71.15133        37.78842         0.17987
C         72.31003        40.08647        -0.10705
C         71.09653        39.20631        -0.36732
C         72.24573        41.42857        -0.18407
C         70.99276        42.14297        -0.56297
C         72.07142        44.41658        -0.58710
C         70.88038        43.62766        -0.53851
C         72.01872        45.78359        -0.64265
C         70.77121        46.48653        -0.68255
C         71.89388        48.72275        -0.67207
C         70.72556        47.88885        -0.76841
C         71.85221        50.07827        -0.52153
C         70.58003        50.80645        -0.39808
C         71.68243        53.18670        -0.62018
C         70.48984        52.34123        -0.44804
C         71.58102        54.48210        -1.01285
C         70.30142        55.12576        -1.22889
C         71.32747        57.34912        -1.68347
C         70.16926        56.49067        -1.45659
C         71.27317        58.64475        -1.32672
C         70.09090        59.07316        -0.49516
C         71.26523        61.38885        -0.31366
C         70.03037        60.57915        -0.24053
C         71.22383        62.71289        -0.62300
C         70.01041        63.44152        -0.88702
C         71.27954        65.38644        -1.78603
C         70.03195        64.72323        -1.46213
C         71.34794        66.64057        -2.33362
C         70.13620        67.32384        -2.68503
C         71.12244        69.41627        -3.52896
C         70.00869        68.70017        -2.99046
C         70.96825        70.65785        -4.10295
C         69.66551        71.26340        -4.19729
O         68.04407        42.67324        -1.62488
O         69.24387        60.85216         0.99499
O         43.45003        50.19588        -2.84803
O         51.37952        48.35942         3.21080
O         60.18266        56.28283        -0.86627
O         58.88054        63.40274        -0.50415
O         55.59778        58.44011         1.75550
O         63.67553        38.09638         2.09053
O         64.05818        48.88785        -1.53474
O         54.31916        51.79565         4.43053
O         42.22363        52.90585        -1.20590
O         46.59143        51.74774         2.02447
O         58.87141        60.83543        -0.73794
O         65.17338        52.71667         0.64613
O         69.53057        49.47579        -2.18888
O         65.72779        54.35851        -2.50519
O         68.47787        34.35301         1.98619
O         57.79284        48.33701         0.47916
O         58.61330        54.54446         3.82399
O         65.55429        59.09065        -2.52761
O         67.07004        35.19635        -1.25916
O         65.78004        41.72078         2.14224
O         55.57347        49.73978         3.96267
O         70.36476        41.51998        -1.75900
O         54.79716        60.54536         5.41669
O         53.77408        43.23001         1.57271
O         63.30329        66.64172        -1.91318
O         67.89775        67.03106        -3.38631
O         45.64184        53.24004        -2.05895
O         70.42637        51.58165         0.82440
O         51.44055        52.41328         4.63480
H         52.10266        52.58222         5.33912
O         70.27008        58.44849         0.80807
H         69.70058        58.94973         1.43548
O         44.19046        52.30835         1.19951
H         44.59520        51.98699         2.03609
O         66.25885        61.48427         1.05007
H         67.00176        62.09639         1.27670
O         69.38153        70.24322        -1.34986
H         70.16938        70.75856        -1.62646
O         55.72939        57.95752         5.32285
H         55.71506        58.83209         5.77266
O         70.16712        40.29036         1.60501
H         70.12468        39.45851         2.12259
O         70.94698        38.99199        -1.78555
H         70.85202        39.87975        -2.21268
O         68.58702        63.28060         1.01649
H         69.15761        62.65354         1.52979
O         58.38055        38.70257         2.27380
H         58.60483        39.49991         2.79938
O         63.83828        43.50964         2.82702
H         64.65633        42.98333         3.01281
O         58.09805        57.23337         4.09032
H         58.28640        56.36016         4.51808
O         47.56501        50.93044        -3.42467
H         48.00916        50.37325        -4.10005
O         57.30083        43.70113         3.29032
H         57.34646        42.73208         3.43610
O         52.66463        57.32690         1.78960
H         52.60140        56.54926         1.18415
O         51.72740        54.89336         1.05992
H         51.85408        54.01441         0.64075
O         60.43674        57.13553         2.71210
H         59.82847        57.34754         3.46693
O         61.20438        41.77983         2.97634
H         61.99177        42.29633         3.26944
O         45.67760        54.11591         3.30936
H         45.81771        53.14254         3.21839
O         67.87187        47.52083        -2.51956
H         68.20247        48.32303        -2.98868
O         57.28780        58.84141        -0.02666
H         56.31674        58.96755         0.08538
O         60.75760        58.59988        -1.85626
H         59.98556        57.99604        -1.95003
O         60.48068        49.79011         3.34917
H         60.66855        50.72767         3.57235
O         55.36803        47.92708         0.42608
H         56.15154        47.97110        -0.17520
O         67.62967        56.42818        -3.37920
H         66.87137        55.88334        -3.68623
O         49.06201        56.72352         1.16032
H         49.96572        56.45341         0.87920
O         62.18629        63.43911        -2.31731
H         61.23700        63.65502        -2.44136
O         66.20583        65.04964        -3.36296
H         65.35895        65.29679        -3.78903
O         53.13522        46.56856         3.62983
H         52.40403        47.07671         4.05886
O         67.43213        65.55342         0.02755
H         68.00954        65.02505         0.62985
H         41.20230        52.59327        -7.07750
H         39.56009        54.27933        -7.78776
H         39.98781        56.33773        -4.02825
H         38.95365        56.17183        -6.26356
H         42.69159        51.50461        -6.68663
H         40.88746        56.49943        -2.31998
H         44.28865        49.80257        -6.06976
H         42.14507        56.80814        -0.29080
H         47.14862        46.66730        -4.69085
H         45.21068        48.08803        -5.15653
H         45.11962        58.00916         2.58874
H         43.35832        57.23060         1.11453
H         48.68705        45.58106        -4.31844
H         46.61366        58.52268         3.84525
H         50.55453        44.12172        -3.75710
H         48.68309        59.56817         4.55609
H         53.79962        41.39412        -2.59920
H         52.06947        42.97296        -3.32666
H         52.38634        61.35562         6.08023
H         50.26068        60.22100         5.47953
H         54.43223        39.66945        -1.20140
H         55.37069        62.96340         5.51854
H         56.34167        38.25650        -0.58611
H         56.78429        64.27744         3.98346
H         59.96211        36.05930        -0.40228
H         57.83953        37.14558        -0.10800
H         59.54095        66.51364         1.77268
H         57.71423        65.31138         2.75955
H         61.56724        35.04309        -0.38737
H         61.27930        67.31426         1.55074
H         63.68356        33.86357        -0.49882
H         63.26673        68.52248         0.86134
H         67.41022        31.63286         0.59386
H         65.37045        32.76053        -0.01158
H         66.94476        70.65942        -0.80505
H         64.85926        69.58687        -0.00594
H         69.13440        30.76627         0.94120
H         67.60333        71.16316        -3.63693
H         73.43869        30.91532         1.06704
H         71.30955        29.59523         1.06639
H         73.37604        33.36671         0.91405
H         73.35821        35.23698         0.69480
H         73.31490        37.62330         0.21019
H         73.27494        39.61879         0.14072
H         73.14852        42.02328         0.02073
H         73.04905        43.91718        -0.61225
H         72.95991        46.34396        -0.71233
H         72.88224        48.24218        -0.67163
H         72.79149        50.63453        -0.39313
H         72.66869        52.75858        -0.39132
H         72.49386        55.08694        -1.11157
H         72.20825        56.93459        -2.19612
H         72.10538        59.33304        -1.52913
H         72.23063        60.90546        -0.10976
H         72.18399        63.24130        -0.70651
H         72.22456        64.90371        -1.50451
H         72.32254        67.13693        -2.44451
H         72.08742        68.89754        -3.63370
H         71.81912        71.14075        -4.60293
H         69.53620        72.13981        -4.84852
