         210
 CSIRO Nanostructure Databank - Neutral Graphene Oxide Data Set
C         30.41844        31.73144         0.02357
C         30.38253        32.96266        -0.11959
C         30.45413        36.04493        -0.04116
C         30.43650        37.28186         0.19485
C         30.49477        40.37597         0.73767
C         30.43839        41.60052         0.99554
C         32.77526        28.87575         0.45761
C         31.66817        29.47246         0.34452
C         32.79990        31.57892         0.21399
C         31.52911        30.86075         0.22707
C         32.82050        33.01985        -0.03930
C         31.58133        33.76999        -0.56892
C         32.79094        35.94486        -0.02554
C         31.57416        35.20878        -0.15528
C         32.79235        37.37163         0.18325
C         31.57223        38.11810         0.30446
C         32.83488        40.24926         0.57039
C         31.59622        39.52023         0.51202
C         32.84258        41.69676         0.78596
C         31.60503        42.41306         1.05803
C         32.92652        44.34745         1.25818
C         31.79744        43.78960         1.29396
C         35.49839        27.32485         0.62460
C         35.31527        28.72453         0.61285
C         34.06856        29.42846         0.50543
C         35.29669        31.57915         0.57505
C         34.01625        30.85365         0.40956
C         35.26217        33.07124         0.38749
C         33.99301        33.76404         0.04728
C         35.25603        35.94866        -0.03100
C         34.02975        35.20916        -0.05222
C         35.24669        37.36046         0.07170
C         34.02871        38.09716         0.26462
C         35.34892        40.24184         0.73435
C         34.04491        39.50525         0.46320
C         35.28887        41.66390         0.17504
C         34.08307        42.41182         0.71065
C         35.48157        44.54239         1.00371
C         34.18148        43.79698         0.93036
C         35.45932        45.92908         0.33694
C         37.88297        27.18942         0.38150
C         36.58602        26.68887         0.54710
C         37.86121        28.66909         0.62786
C         36.57284        29.42117         0.60211
C         37.80902        31.53766         0.33740
C         36.58631        30.82777         0.48405
C         37.80359        32.99719         0.07080
C         36.52406        33.76105        -0.01111
C         37.73485        35.89791         0.08646
C         36.52774        35.24680         0.00958
C         37.83560        37.34178        -0.13103
C         36.48869        38.12032        -0.12074
C         37.79389        40.21459         0.06443
C         36.57283        39.53589         0.19688
C         37.81978        41.66385         0.09321
C         36.61603        42.39801         0.28897
C         37.85810        44.47589        -0.03542
C         36.66462        43.78961         0.37583
C         37.86303        45.91967        -0.19938
C         36.57503        46.43305         0.08195
C         40.31645        24.60865        -0.80471
C         39.33682        25.19738        -0.28307
C         40.16185        27.37540        -0.59809
C         39.06643        26.57820        -0.05873
C         40.31243        28.77995        -0.31247
C         39.15869        29.43708         0.35260
C         40.28362        31.62137         0.15946
C         39.05329        30.89828         0.22098
C         40.26529        33.06410         0.37137
C         39.06103        33.73000         0.32276
C         40.19802        35.96933         0.79985
C         38.95226        35.18669         0.53841
C         40.26251        37.41029         0.46477
C         39.07481        38.08830         0.15728
C         40.29541        40.22105         0.04703
C         39.04955        39.50618         0.03116
C         40.29776        41.62937        -0.16457
C         39.04970        42.34932        -0.12702
C         40.22653        44.40665        -0.98701
C         39.03890        43.75392        -0.30903
C         40.28154        45.91499        -0.80601
C         39.05496        46.60940        -0.51088
C         40.28198        48.66253        -0.86960
C         39.24560        48.00647        -0.58710
C         42.66378        25.04799        -1.99581
C         41.34793        25.30509        -1.50443
C         42.89956        27.91784        -1.67250
C         41.08041        26.70396        -1.45690
C         42.80259        29.05688        -0.87033
C         41.50177        29.57154        -0.44759
C         42.77494        31.60197         0.48947
C         41.49785        30.93579         0.00268
C         42.73997        33.11757         0.47360
C         41.52685        33.76782         0.57874
C         42.75201        35.97789         1.03278
C         41.47385        35.20030         0.95717
C         42.71943        37.44639         0.81797
C         41.51818        38.11164         0.53054
C         42.76784        40.25092         0.18337
C         41.52470        39.53493         0.26074
C         42.77537        41.63474        -0.18695
C         41.53523        42.33170        -0.33079
C         42.74984        44.38217        -0.89985
C         41.53931        43.71438        -0.67085
C         42.69502        45.78472        -1.39918
C         41.46904        46.60116        -1.12978
C         42.80886        48.55980        -1.49485
C         41.51553        48.05194        -1.16608
C         43.67587        25.76694        -2.13721
C         45.26764        27.65961        -1.31193
C         44.05519        27.09805        -1.77260
C         45.29417        29.01372        -0.80463
C         44.05255        29.69694        -0.53668
C         45.27838        31.73284         0.12324
C         44.06275        31.00869        -0.02453
C         45.24731        33.12454         0.39698
C         44.00439        33.84390         0.56518
C         45.23158        35.97743         1.04121
C         43.99562        35.22726         0.78664
C         45.23322        37.48267         1.18182
C         43.92928        38.27872         1.18978
C         45.23887        40.24394         0.25947
C         43.99565        39.59600         0.45907
C         45.25485        41.62275        -0.15388
C         44.02011        42.32363        -0.34962
C         45.25950        44.41965        -0.83071
C         44.00205        43.71085        -0.72103
C         45.26262        45.79369        -1.21820
C         44.05076        46.48674        -1.63940
C         43.88326        47.93444        -1.52940
C         47.62301        27.65205        -1.02367
C         46.56352        27.07139        -1.33515
C         47.79515        28.99211        -0.59014
C         46.53147        29.67903        -0.47785
C         47.79031        31.72134         0.18075
C         46.54775        31.05024        -0.07142
C         47.80605        33.12013         0.50160
C         46.52566        33.85839         0.39836
C         47.74109        35.98474         1.29248
C         46.52293        35.32237         0.68941
C         47.73506        37.45943         0.93799
C         46.51341        38.17812         0.85368
C         47.75300        40.15055        -0.07422
C         46.47786        39.52671         0.44777
C         47.74627        41.65927        -0.04083
C         46.51303        42.33290        -0.23399
C         47.74180        44.44571        -0.47743
C         46.48922        43.74503        -0.49917
C         47.59307        45.81492        -0.78876
C         46.52699        46.39921        -1.09884
C         50.31036        29.08302        -0.35955
C         49.00674        29.63748        -0.30192
C         50.28883        31.69495         0.34792
C         49.04179        31.02312         0.08192
C         50.26260        33.08359         0.72545
C         49.00134        33.80435         0.78021
C         50.19996        35.95901         1.17546
C         49.02823        35.24692         0.99066
C         50.20459        37.40820         1.04519
C         48.98761        38.13587         0.79898
C         50.22956        40.24548         0.47539
C         49.01319        39.52035         0.47503
C         50.25171        41.67232         0.21544
C         48.99049        42.35504        -0.00676
C         50.24786        44.34238        -0.17127
C         48.95616        43.77756        -0.20868
C         51.41803        29.61427        -0.13154
C         52.68996        31.75394         0.56003
C         51.56073        30.97721         0.25315
C         52.57502        32.96355         0.91371
C         51.46221        33.79014         1.03517
C         52.66282        36.02225         1.23571
C         51.45069        35.17630         1.59675
C         52.54189        37.25243         1.17468
C         51.42805        38.13255         0.98763
C         52.57252        40.36949         0.68993
C         51.44725        39.51498         0.75431
C         52.64801        41.60152         0.48444
C         51.50126        42.40256         0.22692
C         51.36203        43.79796         0.01294
O         42.07642        35.48750         2.26872
O         37.14522        33.26323        -1.25171
O         37.19720        37.76991        -1.35943
O         38.79085        29.00171         1.71124
O         45.27657        36.62638         2.36408
O         46.60816        34.92708        -0.69585
O         35.28835        32.51232         1.73897
O         41.75528        27.51663        -2.38019
O         39.28027        35.64259         1.91596
O         43.29812        45.92254        -2.73127
O         35.49931        40.36437         2.17642
H         35.50038        39.46725         2.57023
O         43.70355        38.66302         2.58618
H         43.90572        37.86282         3.12618
O         35.07188        41.50872        -1.25294
H         35.00308        42.39714        -1.66055
O         42.80208        31.26824         1.93027
H         42.03835        31.71288         2.35805
O         35.80161        44.72779         2.37837
H         35.01013        45.07733         2.83894
O         51.38644        35.07812         3.02606
H         52.13808        34.52881         3.33292
O         40.02265        44.18605        -2.42554
H         39.19906        44.64694        -2.69126
O         47.61652        35.82370         2.73718
H         48.37956        36.27111         3.15996
O         47.75771        39.81851        -1.52421
H         47.82668        38.84238        -1.60099
O         31.64865        33.71875        -2.00054
H         30.94702        34.29669        -2.36714
