         424
 CSIRO Nanostructure Databank - Neutral Graphene Oxide Data Set
C          1.26124         3.72182        -1.92087
C          0.05109         4.39737        -1.89593
C          1.17257         6.47950        -1.24595
C          0.00215         5.75917        -1.57395
C          1.13377         7.88396        -0.92245
C         -0.03914         8.64169        -1.01609
C          1.14581        10.74883        -0.53600
C         -0.05603        10.01175        -0.76447
C          1.12225        12.17656        -0.42684
C         -0.06942        12.92794        -0.39518
C          1.15078        14.98944         0.14951
C         -0.06335        14.30007        -0.18661
C          1.14200        16.41974         0.47098
C         -0.00699        17.12768         0.74947
C          1.15701        19.28921         0.81128
C          0.02276        18.53896         0.99856
C          1.20114        20.73099         1.03444
C          0.01148        21.46790         1.23274
C          1.26593        23.51588         1.62100
C          0.03920        22.82781         1.49397
C          1.32718        24.88626         2.07946
C          0.18225        25.75449         2.27660
C          1.31050        27.98431         1.91430
C          0.17330        27.13092         2.20126
C          1.24896        29.22719         1.24035
C          0.00365        29.94508         1.03782
C          1.14011        31.70409        -0.31895
C         -0.05355        31.14071         0.40578
C          1.16510        33.21354        -0.48108
C         -0.04096        33.96135        -0.75103
C          1.24251        36.08137        -0.71608
C         -0.03065        35.30923        -0.95449
C          1.19469        37.55786        -1.07608
C          3.70964         3.73059        -1.68286
C          2.47103         4.40806        -1.61734
C          3.65626         6.49258        -0.97995
C          2.42819         5.79304        -1.26092
C          3.64679         7.86467        -0.62237
C          2.34130         8.53911        -0.29775
C          3.61599        10.72958        -0.24749
C          2.37767        10.04153        -0.44665
C          3.64130        12.13892        -0.13790
C          2.41912        12.93644        -0.50274
C          3.58989        14.94446         0.67541
C          2.34914        14.29900         0.12753
C          3.60100        16.43981         0.44749
C          2.41356        17.12845         0.43123
C          3.67158        19.30829         0.57861
C          2.37877        18.62431         0.22001
C          3.68869        20.68274         0.83973
C          2.44640        21.41399         1.06213
C          3.76029        23.48293         1.43368
C          2.48929        22.80197         1.38295
C          3.81516        24.85864         1.81370
C          2.60492        25.38619         2.33970
C          3.80046        27.90170         1.65631
C          2.61439        27.48574         2.23308
C          3.76368        29.21609         1.05126
C          2.47421        29.87590         0.83787
C          3.64599        31.84823        -0.04265
C          2.43644        31.14479         0.23261
C          3.63951        33.12296        -0.60378
C          2.39535        33.84227        -0.70578
C          3.58830        35.72265        -1.68592
C          2.42206        35.22492        -1.13906
C          3.58685        37.92711        -1.54459
C          2.23378        38.40747        -1.24041
C          6.15918         3.71603        -1.48290
C          4.92355         4.39854        -1.41976
C          6.11498         6.47430        -0.79447
C          4.89690         5.79775        -1.07506
C          6.09848         7.86609        -0.48165
C          4.85698         8.56682        -0.41982
C          6.07988        10.68339        -0.03085
C          4.85396         9.99244        -0.18280
C          6.09340        12.11041         0.10953
C          4.85922        12.83300         0.09219
C          6.08143        14.95592         0.31775
C          4.87019        14.25016         0.27897
C          6.08569        16.40858         0.39566
C          4.87480        17.13449         0.42502
C          6.13253        19.25436         0.49844
C          4.88746        18.56344         0.49865
C          6.14957        20.67959         0.65200
C          4.94516        21.38115         0.89403
C          6.21270        23.50040         1.20405
C          4.97214        22.78934         1.16905
C          6.22987        24.94916         1.41180
C          5.00923        25.65297         1.67525
C          6.23283        27.79075         1.40520
C          5.02684        27.10517         1.65745
C          6.25006        29.30516         1.37786
C          4.95706        29.86651         0.82615
C          6.20857        31.98597         0.19507
C          4.91849        31.27875         0.44971
C          6.18647        33.22815        -0.58899
C          4.90972        33.68624        -1.21721
C          6.04017        35.96605        -1.40922
C          4.88684        35.17682        -1.43412
C          6.02916        37.43660        -1.37075
C          4.82101        38.23609        -1.07335
C          8.61411         3.68421        -1.22769
C          7.37437         4.37115        -1.18353
C          8.56868         6.41762        -0.48229
C          7.35403         5.76233        -0.83217
C          8.55284         7.82938        -0.17940
C          7.33037         8.54975        -0.21582
C          8.55246        10.64967         0.20200
C          7.32266         9.96308        -0.01534
C          8.56613        12.09884         0.27314
C          7.32502        12.81948         0.21899
C          8.56685        14.96020         0.28315
C          7.32401        14.24329         0.26095
C          8.58103        16.37549         0.28396
C          7.33090        17.11326         0.33485
C          8.59609        19.24892        -0.01919
C          7.33736        18.51668         0.34137
C          8.61269        20.69340         0.40019
C          7.39918        21.39931         0.61826
C          8.64851        23.55854         0.71328
C          7.39490        22.79812         0.88383
C          8.73353        24.88852         1.42568
C          7.44362        25.66656         1.34452
C          8.70423        27.80212         1.12329
C          7.46420        27.08823         1.31175
C          8.72754        29.19393         0.77232
C          7.49022        29.91420         0.73553
C          8.66156        31.89050        -0.17634
C          7.47210        31.22517         0.26313
C          8.63110        33.24637        -0.61932
C          7.35754        33.90833        -0.84235
C          8.53201        35.98857        -1.39784
C          7.32656        35.29617        -1.26803
C          8.50660        37.43705        -1.54359
C          7.23147        38.10568        -1.42193
C         11.07396         3.63780        -0.96462
C          9.80859         4.32550        -0.86505
C         11.00651         6.29874         0.14938
C          9.77465         5.68728        -0.45484
C         11.01376         7.79975         0.12329
C          9.77660         8.51479         0.10611
C         11.00056        10.61371         0.78388
C          9.75395         9.92067         0.30526
C         11.03868        12.08134         0.43278
C          9.78915        12.79669         0.30907
C         11.03388        14.93308         0.26499
C          9.80562        14.23504         0.27259
C         11.05976        16.34158         0.31259
C          9.82893        17.07229         0.30622
C         11.08425        19.18543         0.36665
C          9.86192        18.49459         0.30472
C         11.07502        20.61898         0.39925
C          9.87238        21.34022         0.40147
C         11.21397        23.48426         0.68276
C          9.92068        22.81370         0.43582
C         11.20745        24.98541         0.58059
C          9.94705        25.68181         1.04246
C         11.20648        27.81244         0.97884
C          9.92891        27.05427         1.05369
C         11.19838        29.15370         0.36225
C          9.92662        29.84503         0.33578
C         11.08466        31.83624        -0.61642
C          9.89761        31.18832        -0.13795
C         11.06248        33.18106        -0.98938
C          9.82944        33.90145        -0.97513
C         11.00699        36.00101        -1.51968
C          9.80122        35.30357        -1.33497
C         11.01750        37.48828        -1.78762
C          9.67319        38.14389        -1.67599
C         13.53502         3.64137        -1.05909
C         12.28070         4.28411        -0.75501
C         13.48131         6.36868        -0.22647
C         12.29523         5.67486        -0.32987
C         13.49629         7.78659         0.03821
C         12.25110         8.49158         0.20010
C         13.48914        10.59777         0.43281
C         12.26911         9.89735         0.40202
C         13.49818        12.03038         0.53645
C         12.25099        12.74229         0.40919
C         13.55384        14.89855         0.48010
C         12.31588        14.18763        -0.00411
C         13.55519        16.31860         0.48200
C         12.31999        17.04537         0.35801
C         13.58818        19.14039         0.49772
C         12.33637        18.45493         0.39567
C         13.59899        20.63000         0.71115
C         12.36886        21.35113         0.16272
C         13.68938        23.43062         0.79475
C         12.38384        22.78623         0.64201
C         13.70004        24.83858         1.27649
C         12.42836        25.60035         1.21563
C         13.74257        27.67178         0.56620
C         12.49354        27.09092         1.11230
C         13.64515        28.89802        -0.30854
C         12.36120        29.69755        -0.12530
C         13.62230        31.72865        -1.04183
C         12.32184        31.03257        -0.74713
C         13.58827        33.20224        -1.17834
C         12.28298        33.84089        -1.61223
C         13.48110        36.08978        -1.42888
C         12.27459        35.35249        -1.47015
C         13.42679        37.51851        -1.11160
C         12.05450        38.12061        -0.84529
C         15.98882         3.66412        -1.21777
C         14.74633         4.28343        -0.89350
C         15.99129         6.45701        -0.54026
C         14.79093         5.61943        -0.19063
C         15.96746         7.83057        -0.28712
C         14.72090         8.49180         0.04395
C         15.95521        10.61224         0.33864
C         14.72742         9.90164         0.25482
C         15.93854        11.98880         0.68094
C         14.71966        12.72024         0.69179
C         15.94679        14.88942         0.98681
C         14.72908        14.18143         0.76110
C         16.00186        16.29250         0.85707
C         14.78447        17.02122         0.64405
C         16.05696        19.17766         1.02177
C         14.78844        18.44813         0.61965
C         16.13570        20.61719         0.58043
C         14.86168        21.30259         0.15386
C         16.14184        23.48232         0.46261
C         14.85205        22.76290         0.53566
C         16.19122        24.92901         0.82045
C         14.99217        25.65045         1.41917
C         16.19276        27.68045         0.41421
C         14.92764        27.02726         0.74944
C         16.15094        29.08119         0.04804
C         14.91177        29.72670        -0.23098
C         16.09333        31.81633        -0.69815
C         14.89968        31.07344        -0.64278
C         16.07836        33.18284        -1.34066
C         14.75114        33.91515        -1.19615
C         15.97654        35.94810        -1.62346
C         14.73716        35.35042        -1.42910
C         15.86484        38.03713        -1.09841
C         14.48423        38.35572        -0.82807
C         18.44483         3.70230        -1.43991
C         17.19737         4.35626        -1.15371
C         18.41290         6.49150        -0.95579
C         17.21558         5.78191        -0.88028
C         18.40684         7.99824        -0.96349
C         17.18089         8.60806        -0.34012
C         18.46643        10.65910         0.21973
C         17.20135         9.93411         0.07495
C         18.47543        11.97235         0.74962
C         17.19040        12.62225         1.08652
C         18.46459        14.85276         1.23106
C         17.18622        14.16600         1.30643
C         18.50187        16.23488         0.96534
C         17.27347        16.98231         0.88512
C         18.55336        19.05674         0.61897
C         17.32601        18.39368         0.77836
C         18.58483        20.49483         0.15308
C         17.33507        21.27976         0.46368
C         18.63568        23.39781         0.37603
C         17.40473        22.71581         0.40099
C         18.69164        24.83755         0.47556
C         17.52371        25.60725         1.05449
C         18.64961        27.72555         0.31339
C         17.41997        27.03150         0.53617
C         18.62709        29.14089         0.14201
C         17.36424        29.81561        -0.01375
C         18.53708        31.97330        -0.35123
C         17.33256        31.21260        -0.34688
C         18.50851        33.36846        -0.63364
C         17.28417        34.01099        -0.98337
C         18.36699        36.23274        -0.86052
C         17.22975        35.39157        -1.17298
C         18.26809        37.64121        -0.58660
C         16.99841        38.34593        -0.40014
C         19.62705         4.39019        -1.42585
C         20.85507         6.51793        -1.07334
C         19.65535         5.80641        -1.17483
C         20.86884         7.88240        -0.67931
C         19.70845         8.61470        -0.51286
C         20.89731        10.70286         0.16925
C         19.70033         9.99863        -0.05209
C         20.89227        12.01180         0.64856
C         19.69347        12.66909         0.95301
C         20.95944        14.83439         1.33998
C         19.69900        14.05968         1.60400
C         20.96840        16.14776         1.02267
C         19.75847        16.92759         0.87668
C         21.01382        19.07370         0.55490
C         19.78162        18.32997         0.65935
C         21.05280        20.44696         0.46135
C         19.87351        21.24121         0.38541
C         21.09418        23.40775         0.18475
C         19.88064        22.64980         0.31226
C         21.08983        24.77620         0.11116
C         19.88476        25.53406         0.30895
C         21.07134        27.75101         0.24748
C         19.88957        27.00668         0.31676
C         21.04918        29.15491         0.19515
C         19.85223        29.86412         0.11803
C         21.02047        32.10394        -0.30810
C         19.80633        31.37608         0.20650
C         20.96121        33.42652        -0.60216
C         19.70571        34.14428        -0.63551
C         20.79329        36.36436        -0.44923
C         19.63294        35.57854        -0.68532
C         20.69447        37.73473        -0.27257
C         19.43852        38.35473        -0.27924
O         17.09614        13.20695         2.43434
O         16.04340        24.56949        -0.57630
O         12.83821        25.01252         2.47488
O          5.53578        32.14682         1.52905
O          9.16609        23.49943        -0.65947
O         16.03642        37.20181        -2.22614
O         11.94250        27.79801         2.27944
O          2.69204        26.48115         3.20679
O          3.53129        36.87141        -2.48019
O         12.90111        31.03402        -2.14732
O         15.21905        25.84501         2.83267
H         14.32742        25.81246         3.26266
O          2.16531         8.31973         1.17046
H          1.31375         8.74075         1.41812
O          2.24641        18.81687        -1.24171
H          1.40241        18.39445        -1.50921
O          1.39364        36.15751         0.75763
H          1.32628        35.23929         1.09918
O         11.52117        37.72089        -3.13364
H         10.99491        37.17225        -3.75184
O          2.60295        13.21343        -1.96654
H          1.78631        13.66615        -2.27058
O         16.19620        32.94192        -2.78867
H         15.38578        32.46889        -3.07661
O         17.82954        25.67658         2.47163
H         17.01193        25.96716         2.94386
O         12.44789        21.41165        -1.28951
H         11.78324        22.06051        -1.60244
O          3.51816        14.76657         2.14312
H          4.28922        15.23313         2.53057
O         10.93563        10.55419         2.26451
H         11.73690        11.00649         2.60539
O         13.58490        20.83440         2.14466
H         14.36832        20.36312         2.52448
O         12.17892        33.56891        -3.05107
H         12.26716        32.58952        -3.14931
O          8.57609        19.29167        -1.50846
H          9.38213        19.77431        -1.79342
O          6.28628        29.75276         2.77706
H          6.11355        30.72678         2.75317
O         19.76389        31.65591         1.66338
H         19.73189        32.63114         1.76711
O         19.65880        13.82182         3.04816
H         18.76259        13.44972         3.24113
O         18.29927         8.36243        -2.40672
H         19.07691         7.96555        -2.85541
O         15.94702        19.28056         2.50501
H         15.93776        18.36577         2.86196
O         14.97789         5.28864         1.24180
H         14.22537         4.71469         1.50251
O         10.94105         5.93289         1.59582
H         11.57221         6.51751         2.06858
O         11.68187        37.90856         0.52200
H         11.60650        36.94320         0.67280
O         13.57965        28.39223        -1.68430
H         13.41127        29.17875        -2.25925
O         11.30940        25.27367        -0.84954
H         10.52245        24.85089        -1.27035
O         18.51281        20.38083        -1.33002
H         19.34644        19.95450        -1.62488
O         14.88854        21.16391        -1.28900
H         15.67303        21.64720        -1.62453
O          8.91071        24.52479         2.84054
H          9.02242        25.35446         3.35207
O         12.45292        14.16934        -1.47798
H         11.64286        13.75018        -1.83944
O          4.92089        33.08046        -2.57613
H          4.11013        33.38627        -3.03782
O          1.04921        31.17866        -1.70232
H          1.05814        30.19960        -1.63830
H          1.30087         2.65513        -2.18333
H         -0.88069         3.86507        -2.13327
H         -0.97547         6.25898        -1.56305
H         -0.97888         8.16725        -1.33194
H         -1.01203        10.54311        -0.85406
H         -1.04112        12.42535        -0.50066
H         -1.01680        14.84519        -0.18517
H         -0.97280        16.61123         0.83658
H         -0.90709        19.00879         1.34937
H         -0.96196        20.96282         1.17081
H         -0.90688        23.36504         1.64467
H         -0.80376        25.26945         2.35419
H         -0.81728        27.61209         2.22422
H         -0.91195        29.52720         1.48210
H         -1.02109        31.65569         0.31175
H         -0.98868        33.41002        -0.84259
H         -0.96247        35.84415        -1.19071
H          0.20303        38.01065        -0.90526
H          3.72667         2.66389        -1.95173
H          2.04209        39.49347        -1.23991
H          6.17150         2.64876        -1.74971
H          4.95478        39.10878        -0.41684
H          8.63344         2.62752        -1.53316
H          7.23805        39.20441        -1.36014
H         11.07298         2.59259        -1.30917
H          9.63890        39.24109        -1.75931
H         13.51135         2.62641        -1.48599
H         12.09006        39.22527        -1.00801
H         15.98743         2.61254        -1.54524
H         14.25816        39.33047        -0.36585
H         18.43476         2.62283        -1.65136
H         16.96085        39.11133         0.38955
H         20.57710         3.86920        -1.61469
H         21.81061         5.99168        -1.20830
H         21.84758         8.33805        -0.47142
H         21.86500        10.22806        -0.04079
H         21.85620        12.51593         0.79480
H         21.91981        14.32828         1.51173
H         21.93897        16.64854         0.89999
H         21.96864        18.53439         0.60804
H         22.03584        20.93918         0.47608
H         22.05170        22.87668         0.09190
H         22.04357        25.30040        -0.04098
H         22.04798        27.24837         0.26948
H         22.00944        29.68880         0.21091
H         21.99523        31.59584        -0.31493
H         21.88476        33.95688        -0.87653
H         21.77346        35.87898        -0.35155
H         21.59568        38.32918        -0.06802
H         19.36343        39.42722        -0.05021
