         410
 CSIRO Nanostructure Databank - Neutral Graphene Oxide Data Set
C         27.88046        27.35809         0.29878
C         27.83936        28.74979         0.27007
C         26.62848        29.50627         0.26940
C         27.84469        31.64523         0.04535
C         26.63802        30.88105         0.20961
C         27.84397        33.08381        -0.03045
C         26.64695        33.83368         0.15211
C         27.84318        35.93337        -0.16131
C         26.65208        35.20824         0.11546
C         27.82064        37.36456        -0.33574
C         26.70350        38.20539        -0.05767
C         27.84417        40.20507        -0.89705
C         26.74563        39.58247        -0.23435
C         27.98337        41.67089        -1.06666
C         26.80964        42.42636        -1.09029
C         27.99621        44.52450        -0.77956
C         26.81551        43.83097        -1.02298
C         27.98009        45.95865        -0.57503
C         30.31794        27.23696        -0.02371
C         29.08495        26.62314         0.17025
C         30.37212        28.70599         0.07185
C         29.10136        29.50361         0.24347
C         30.27799        31.64730        -0.30660
C         29.07658        30.95521        -0.05955
C         30.29671        33.06278        -0.37646
C         29.06597        33.79062        -0.24025
C         30.30101        35.93430        -0.55048
C         29.06215        35.22064        -0.34488
C         30.27536        37.31950        -0.81068
C         28.99387        37.98342        -0.84555
C         30.69739        40.35723        -1.37548
C         28.83995        39.31571        -1.30394
C         30.51564        41.72631        -1.04326
C         29.26085        42.37975        -1.02055
C         30.40630        44.51349        -0.33623
C         29.24993        43.81112        -0.72675
C         30.32940        45.91603         0.14261
C         29.07371        46.63320        -0.15198
C         32.85290        24.45089        -0.24053
C         31.63837        25.13271        -0.20494
C         32.81427        27.26666        -0.33067
C         31.57700        26.53803        -0.21143
C         32.83569        28.68491        -0.46169
C         31.54794        29.39639        -0.52852
C         32.80833        31.59697        -0.58604
C         31.51645        30.89578        -0.63211
C         32.78603        33.02441        -0.51228
C         31.54590        33.75936        -0.49886
C         32.78821        35.87476        -0.49846
C         31.55554        35.19166        -0.51496
C         32.82319        37.34112        -0.33409
C         31.53487        38.10934        -0.62085
C         32.90329        40.23399        -0.38685
C         31.71614        39.56159        -0.86676
C         32.94047        41.62399        -0.33451
C         31.78234        42.41996        -0.76474
C         32.95861        44.55911         0.07584
C         31.72716        43.91255        -0.45178
C         32.93457        45.97668         0.36026
C         31.61355        46.67103         0.44559
C         32.84805        48.79360         0.57101
C         31.71434        48.14607         0.26137
C         35.40835        23.03123         0.02433
C         35.35364        24.41980        -0.26255
C         34.08075        25.13134        -0.30809
C         35.26597        27.28859        -0.59076
C         34.05733        26.56089        -0.39476
C         35.28009        28.69919        -0.63590
C         34.03321        29.41062        -0.58506
C         35.26449        31.56191        -0.50949
C         34.01420        30.86381        -0.59989
C         35.25343        32.98239        -0.39472
C         34.02221        33.71519        -0.44060
C         35.23164        35.84662        -0.29520
C         34.01997        35.15513        -0.43345
C         35.34564        37.28586        -0.53542
C         34.10537        38.08732        -0.43999
C         35.41197        40.22281        -0.42686
C         34.13617        39.45427        -0.31081
C         35.42993        41.69351        -0.14260
C         34.12102        42.31850         0.30600
C         35.41332        44.51442         0.18465
C         34.12232        43.82332         0.15944
C         35.37912        46.02908         0.49357
C         34.07700        46.66138         0.71740
C         35.30514        48.80654         1.44837
C         33.94837        48.06248         1.31705
C         35.36783        50.27816         1.25314
C         37.84847        23.03973        -0.10345
C         36.61351        22.36691         0.09143
C         37.82298        24.43359        -0.41290
C         36.56695        25.10190        -0.49651
C         37.81859        27.31583        -0.88395
C         36.50651        26.53567        -0.83942
C         37.77319        28.76101        -0.62239
C         36.53187        29.42854        -0.61988
C         37.73087        31.55954        -0.27211
C         36.50581        30.85628        -0.47371
C         37.70107        32.97127        -0.06891
C         36.47664        33.65968        -0.13678
C         37.68177        35.83223         0.43442
C         36.40903        35.10191         0.12629
C         37.82514        37.27852         0.21395
C         36.69694        37.99402        -0.38405
C         37.96260        40.20477         0.11933
C         36.72912        39.49713        -0.36812
C         37.90052        41.66105         0.45006
C         36.69563        42.37109         0.27063
C         37.87605        44.50184         0.61789
C         36.67716        43.77736         0.42271
C         37.82268        45.95256         0.77897
C         36.64365        46.64724         0.92483
C         37.91720        48.85441         1.27784
C         36.62795        48.06930         1.35610
C         37.85841        50.36191         1.22213
C         36.51554        50.97688         1.12462
C         40.35973        20.30455         0.53327
C         39.15937        20.95205         0.36399
C         40.32321        23.05741        -0.10057
C         39.10432        22.34318         0.05208
C         40.28962        24.44288        -0.44272
C         39.07431        25.14964        -0.57327
C         40.25430        27.33892        -0.54754
C         39.08166        26.58943        -0.67531
C         40.24787        28.76525        -0.36780
C         38.99838        29.45890        -0.38957
C         40.21000        31.57062         0.03199
C         38.98242        30.87140        -0.21278
C         40.18227        32.96644         0.30493
C         38.93295        33.66014         0.25215
C         40.02106        35.68188         1.09110
C         38.90811        35.03785         0.50865
C         39.93121        37.08005         1.36012
C         38.97296        37.91124         0.72187
C         40.43870        40.14332         0.83228
C         39.18741        39.38119         0.49120
C         40.33871        41.62588         1.05785
C         39.09039        42.36850         0.75916
C         40.39050        44.49126         0.81418
C         39.11012        43.78667         0.75992
C         40.39170        45.94998         0.55124
C         39.08012        46.70930         0.59595
C         40.32597        48.83062         0.59769
C         39.13945        48.15768         0.80868
C         40.34734        50.32443         0.54409
C         39.09466        51.11487         0.78614
C         40.44733        53.17281         1.12164
C         39.24897        52.53767         1.18882
C         42.83554        20.34073         0.61683
C         41.59379        21.00507         0.40701
C         42.83220        23.08464        -0.02974
C         41.58366        22.38598         0.07949
C         42.84359        24.47817        -0.35525
C         41.56450        25.12735        -0.69075
C         42.77834        27.37588        -0.39735
C         41.54112        26.66259        -0.70861
C         42.73429        28.77438        -0.18204
C         41.47276        29.47847        -0.16658
C         42.69681        31.62104         0.27139
C         41.46341        30.88585         0.06328
C         42.69574        33.03047         0.57807
C         41.37889        33.64742         0.72649
C         43.11941        36.05441         1.35280
C         41.19056        34.90758         1.31543
C         43.08541        37.46593         1.27278
C         41.91844        38.23770         1.60881
C         42.93231        40.27810         0.80132
C         41.75956        39.54736         1.22594
C         42.90738        41.67559         0.74503
C         41.65085        42.38341         1.09033
C         42.90236        44.54934         0.91498
C         41.59603        43.83706         0.88633
C         42.90304        46.04821         0.84629
C         41.61666        46.74422         0.67147
C         42.84092        48.83312         0.18114
C         41.57879        48.10959         0.49922
C         42.85650        50.32746         0.22556
C         41.67279        50.97382         0.91954
C         42.88541        53.11734         0.65102
C         41.68205        52.47867         0.81945
C         44.02755        21.01961         0.51655
C         45.30449        23.13286         0.06577
C         44.06099        22.40711         0.19150
C         45.29987        24.53054        -0.21777
C         44.03468        25.21077        -0.39624
C         45.20815        27.39945        -0.39524
C         44.00146        26.66768        -0.43509
C         45.18762        28.79267        -0.20343
C         43.95314        29.49383        -0.04283
C         45.16361        31.63825         0.21794
C         43.93134        30.91729         0.16644
C         45.14749        33.06722         0.29709
C         43.93328        33.77460         0.56276
C         45.21248        35.94238         0.19293
C         44.06574        35.24486         0.68804
C         45.25898        37.37475         0.16219
C         44.14801        38.13706         0.61159
C         45.26288        40.25203        -0.00549
C         44.12901        39.55909         0.47659
C         45.26890        41.68752         0.00802
C         44.09058        42.39512         0.40791
C         45.33152        44.50402         0.30096
C         44.13246        43.81685         0.51052
C         45.39463        45.97341         0.51563
C         44.14383        46.76101         0.48436
C         45.36713        48.85672        -0.00740
C         44.13650        48.10908         0.23166
C         45.36148        50.28340        -0.08002
C         44.15314        51.04885         0.22237
C         44.11684        52.40986         0.42189
C         47.74352        23.17553         0.06958
C         46.56064        22.48410         0.19690
C         47.77168        24.57656        -0.20225
C         46.52670        25.24157        -0.34189
C         47.73931        27.46569        -0.66941
C         46.44647        26.66817        -0.85680
C         47.66366        28.85637        -0.21182
C         46.43650        29.51810        -0.08546
C         47.63755        31.65231         0.15207
C         46.40197        30.93013         0.13923
C         47.59268        33.06523        -0.00619
C         46.38937        33.76776         0.06112
C         47.56295        35.87217        -0.52169
C         46.40707        35.20354        -0.13580
C         47.53173        37.30972        -0.81305
C         46.38488        38.08787        -0.35260
C         47.63761        40.19606        -0.73882
C         46.42347        39.49743        -0.40342
C         47.58167        41.68530        -0.99552
C         46.44718        42.41111        -0.31216
C         47.74444        44.53041        -0.40858
C         46.50439        43.80419        -0.13232
C         47.80797        45.92062        -0.34922
C         46.65584        46.70511         0.14103
C         47.79783        48.82888        -0.44964
C         46.59278        48.15501        -0.14217
C         47.75141        50.23099        -0.60188
C         46.57207        50.93590        -0.39468
C         50.26814        24.65741         0.08551
C         49.04022        25.27905        -0.27485
C         50.33471        27.49064        -0.24317
C         49.06309        26.72341        -0.53639
C         50.22189        28.86029         0.32247
C         48.88079        29.54070         0.25892
C         50.12012        31.72639         0.36423
C         48.88229        30.99694         0.25082
C         50.11409        33.08514         0.10405
C         48.86457        33.71732        -0.34711
C         50.12192        35.94116        -0.61573
C         48.84782        35.17917        -0.69615
C         50.11798        37.32149        -0.87080
C         48.84735        38.05134        -1.05925
C         50.10434        40.20783        -0.98266
C         48.84082        39.51543        -0.90378
C         50.11536        41.64053        -0.96525
C         48.91245        42.37678        -0.83408
C         50.19261        44.46811        -0.84291
C         48.94603        43.77871        -0.70670
C         50.24144        45.91529        -0.74356
C         49.03157        46.64111        -0.58620
C         50.29454        48.71400        -0.62934
C         49.05166        48.07090        -0.55968
C         51.48202        25.30274         0.19111
C         52.76653        27.52544         0.56565
C         51.62047        26.75171         0.00990
C         52.69538        28.93484         0.69648
C         51.45985        29.66710         0.50735
C         52.57801        31.85688         0.95096
C         51.39126        31.05049         0.63943
C         52.55964        33.24807         0.76566
C         51.25491        33.97225         0.50281
C         52.54798        35.95889        -0.40932
C         51.32985        35.27689        -0.27770
C         52.55939        37.34482        -0.77821
C         51.33166        38.05180        -0.88690
C         52.57372        40.18885        -1.07650
C         51.32403        39.48877        -1.01241
C         52.58954        41.59534        -1.16233
C         51.36338        42.33049        -1.08973
C         52.60631        44.50436        -1.49687
C         51.36554        43.74374        -1.11180
C         52.74740        45.74060        -0.59146
C         51.48920        46.59371        -0.72286
C         51.49326        47.98733        -0.66335
C         55.07867        27.54237         1.30730
C         53.97623        26.85236         0.84688
C         55.01909        28.94559         1.50978
C         53.83199        29.66673         1.16534
C         54.81185        31.64000         2.13126
C         53.75712        31.08511         1.38533
C         54.83529        33.87245         1.67152
C         53.72070        34.13769         0.84746
C         54.99230        36.06672        -0.01811
C         53.77460        35.35265         0.09804
C         55.04345        37.21356        -1.01478
C         53.79417        38.05662        -0.91889
C         55.07402        40.16745        -1.12823
C         53.81378        39.44561        -1.05965
C         55.09472        41.55529        -1.25530
C         53.84849        42.30942        -1.30960
C         55.11571        44.41935        -1.88213
C         53.86175        43.67407        -1.50074
C         55.13996        45.82466        -1.31170
C         54.06145        46.44917        -0.82325
C         56.11935        29.61387         2.10914
C         55.99335        30.94034         2.45913
C         56.01626        34.61342         1.62376
C         56.11337        35.67577         0.72068
C         56.29974        38.03622        -0.96725
C         56.29660        39.38157        -1.06139
C         56.33130        42.32137        -1.28902
C         56.35775        43.64498        -1.54674
O         40.96979        41.96800         2.33282
O         40.19852        39.69484        -0.54631
O         29.77790        39.76149        -2.23745
O         36.23773        37.52531        -1.69720
O         39.67497        46.29337        -0.68862
O         31.30931        30.03107        -1.82974
O         35.97805        48.29947         2.65409
O         42.16930        35.42983         2.16516
O         48.01304        37.60795        -2.17828
O         32.04874        43.42957        -1.81599
O         30.78622        46.16681         1.54287
O         35.52082        45.51020        -0.87650
O         43.04142        45.34857         2.14922
O         41.61147        25.87350        -1.94488
O         48.88825        34.17030        -1.76995
O         37.68887        40.01713        -1.32148
O         51.27476        27.30913        -1.33036
O         48.59554        27.22929        -1.84825
O         35.38906        41.21569        -1.51204
O         54.69741        32.91845         2.69547
O         37.13398        26.89357        -2.11669
O         31.99810        37.82908         0.77103
O         49.39091        28.88895         1.53719
O         38.12685        49.66442         2.48537
O         42.62448        49.65032        -1.04019
O         36.74585        35.48297         1.55203
O         40.85074        37.60451         2.25763
O         29.99964        29.21869         1.39441
O         46.34061        46.39041         1.55764
O         39.58865        50.86691        -0.57952
O         34.05661        42.05576         1.74863
H         33.21259        42.41595         2.09427
O         52.76518        45.24509         0.77400
H         52.80085        46.01468         1.37896
O         33.44518        47.91000         2.66765
H         34.22684        47.77364         3.25137
O         52.40200        45.01816        -2.85722
H         52.03292        44.28864        -3.39877
O         41.86849        50.65006         2.33330
H         41.19262        51.13054         2.85698
O         50.83503        34.44952         1.85629
H         50.96192        33.70350         2.48215
O         47.25814        41.79526        -2.43694
H         47.82386        41.15268        -2.91652
O         55.09132        44.58943        -3.33898
H         54.21812        45.00539        -3.54200
O         46.22586        26.52102        -2.29332
H         47.11869        26.53165        -2.71536
O         55.01751        36.57392        -2.33725
H         54.99713        37.28750        -3.00920
H         26.93488        26.80124         0.37478
H         25.67021        28.97088         0.34010
H         25.67407        31.40603         0.24682
H         25.69756        33.31517         0.33889
H         25.70956        35.75218         0.26498
H         25.80011        37.76516         0.38651
H         25.89702        40.19049         0.11004
H         25.84168        41.91049        -1.15906
H         25.86528        44.38035        -1.08381
H         27.03033        46.49000        -0.73619
H         29.01235        25.52630         0.17151
H         29.01506        47.70797         0.06926
H         32.83022        23.35349        -0.21288
H         30.71155        24.54647        -0.14239
H         32.92221        49.87564         0.39053
H         30.87360        48.68966        -0.19562
H         34.48475        22.46784         0.21004
H         34.41834        50.82588         1.16633
H         36.60245        21.29414         0.32269
H         36.46236        52.05726         0.92109
H         40.37906        19.23257         0.77712
H         38.23209        20.37501         0.47359
H         40.50279        54.25172         1.33408
H         38.34767        53.09664         1.48072
H         42.82943        19.27065         0.86967
H         42.92130        54.21687         0.67978
H         44.96347        20.47366         0.69400
H         45.04127        53.00340         0.38351
H         48.68261        22.61513         0.16045
H         46.60560        21.40436         0.39065
H         48.66079        50.79023        -0.86010
H         46.58933        52.03040        -0.48936
H         50.26459        23.58280         0.31355
H         50.35199        49.81061        -0.60622
H         52.34512        24.72570         0.55123
H         52.44267        48.54086        -0.65279
H         56.00916        27.00788         1.54530
H         54.04199        25.76575         0.70299
H         56.09036        46.37426        -1.40711
H         54.16091        47.48641        -0.46350
H         57.02791        29.04726         2.35631
H         56.78526        31.46250         3.01145
H         56.84683        34.36567         2.29675
H         57.05225        36.24114         0.65314
H         57.26196        37.50302        -0.97621
H         57.26188        39.90591        -1.09347
H         57.28066        41.80487        -1.08890
H         57.31827        44.18166        -1.57208
