         236
 CSIRO Nanostructure Databank - Neutral Graphene Oxide Data Set
C        -10.26657         0.99302         1.77969
C         -9.57511         1.52292         0.60683
C         -8.60679         0.73676        -0.15663
C         -7.58541         1.42167        -1.05449
C         -6.24714         0.69750        -1.08073
C         -5.02628         1.45689        -1.47677
C         -3.70467         0.70544        -1.67396
C         -2.46793         1.43117        -1.33699
C         -1.21030         0.63574        -0.97445
C          0.03153         1.38272        -1.44065
C          1.08364         0.65389        -1.91058
C          2.93884         1.92958        -1.80134
C          4.13357         1.22141        -1.70975
C          5.11688         1.56826        -0.76790
C          6.24995         0.70314        -0.49044
C          7.41438         1.35907         0.12054
C          8.67641         0.71094         0.08719
C          9.84551         1.36228         0.55691
C         11.09627         0.61531         0.60614
C         -9.66966         2.88381         0.41453
C         -8.81220         3.63394        -0.57537
C         -7.47658         2.88404        -0.67436
C         -6.20878         3.62842        -0.89094
C         -4.95117         2.90736        -1.23685
C         -3.73675         3.56127        -1.29856
C         -2.48813         2.80717        -1.23479
C         -1.19531         3.48065        -0.79334
C          0.01187         2.92466        -1.59591
C          1.30878         3.67397        -1.09532
C          2.63378         3.00065        -0.97532
C          3.71453         3.51348        -0.18629
C          4.92856         2.78729        -0.07969
C          5.96140         3.25062         0.91141
C          7.31853         2.65164         0.65493
C          8.48479         3.32693         1.13991
C          9.74321         2.66363         1.06506
C         -8.57396         5.05844        -0.15471
C         -7.62416         5.83359        -1.01939
C         -6.29617         5.08867        -1.22217
C         -5.00772         5.82236        -1.34688
C         -3.70583         5.05649        -1.32116
C         -2.44758         5.77809        -0.94226
C         -1.23315         4.99255        -0.67144
C         -0.13102         5.62445        -0.17239
C          1.18135         4.94552        -0.31564
C          2.27731         5.39755         0.58959
C          3.59253         4.76502         0.50062
C          4.73870         5.43024         1.01147
C          5.96802         4.74380         1.08890
C          7.16273         5.39783         1.56756
C          8.37778         4.64365         1.65485
C         -7.41491         7.26825        -0.59837
C         -6.26354         7.96086        -0.74561
C         -4.95046         7.34350        -1.20546
C         -3.82944         7.77891        -0.25952
C         -2.51707         7.14037        -0.36885
C         -1.39559         7.73924         0.19192
C         -0.14649         7.01452         0.25881
C          0.98587         7.61704         0.79908
C          2.18745         6.81383         1.11529
C          3.45452         7.50492         1.41989
C          4.65865         6.83408         1.37292
C          5.95202         7.60918         1.48745
C          7.12283         6.75657         1.88223
C         -6.21262         9.40189        -0.47313
C         -5.07871        10.01610        -0.07616
C         -3.87461         9.22298         0.25744
C         -2.60207         9.86192         0.55498
C         -1.42560         9.12836         0.63321
C         -0.19886         9.73771         1.06336
C          0.97879         9.00962         1.17642
C          2.19305         9.60181         1.69647
C          3.38087         8.90912         1.78964
C          4.58996         9.50768         2.34546
C          5.78023         8.87275         2.29402
C        -10.21619        -0.25715         2.34380
C         -9.71825        -1.43187         1.68308
C         -8.56264        -0.63360        -0.12402
C         -7.36992        -1.38895        -0.39821
C         -6.17980        -0.63908        -0.77890
C         -4.86553        -1.33797        -0.72825
C         -3.75035        -0.82684        -1.63671
C         -2.42072        -1.51687        -1.39185
C         -1.20084        -0.81407        -1.46485
C          0.04290        -1.49580        -1.55223
C          1.29153        -0.79197        -1.67933
C          2.52995        -1.50224        -1.54780
C          3.90105        -0.97460        -1.65760
C          5.01742        -1.45527        -0.98616
C          6.21003        -0.67504        -0.69105
C          7.41434        -1.44542        -0.16739
C          8.70782        -0.67862        -0.37622
C         10.02121        -1.45134        -0.24375
C         11.17815        -0.69748         0.28186
C         -9.33603        -2.63378         2.27728
C         -8.71662        -3.67497         1.52683
C         -7.30908        -2.76337        -0.12880
C         -6.11100        -3.52100        -0.19729
C         -4.83799        -2.79906        -0.41464
C         -3.63457        -3.58506        -0.76221
C         -2.46945        -2.92752        -1.23137
C         -1.28845        -3.74391        -1.50124
C          0.07291        -2.96116        -1.67514
C          1.31891        -3.65200        -1.33020
C          2.47889        -2.91039        -1.18281
C          3.80580        -3.64310        -0.99538
C          4.91976        -2.81012        -0.31841
C          6.21912        -3.60791        -0.36146
C          7.48269        -2.86799        -0.72982
C          8.74656        -3.60098        -0.29050
C          9.92279        -2.89906        -0.06110
C         -8.35145        -4.91949         2.07206
C         -7.65520        -5.90737         1.34542
C         -6.07485        -4.92102        -0.10210
C         -4.86235        -5.64791        -0.18156
C         -3.63169        -4.96553        -0.47963
C         -2.40060        -5.71644        -0.51735
C         -1.26093        -5.13587        -1.03176
C          0.00307        -5.89869        -1.19789
C          1.30491        -5.14608        -1.27921
C          2.53973        -5.85229        -0.76208
C          3.64662        -4.97557        -0.22663
C          4.97787        -5.78675        -0.36822
C          6.22448        -4.95157        -0.16013
C          7.47702        -5.71865        -0.10011
C          8.70269        -5.00616        -0.13506
C         -7.32170        -7.18443         1.87100
C         -6.47676        -8.06582         1.19377
C         -4.83086        -7.07664        -0.02512
C         -3.68376        -7.80661         0.17864
C         -2.36780        -7.05305         0.20098
C         -1.21173        -7.92726        -0.16473
C          0.02811        -7.33205        -0.69313
C          1.28522        -7.90543        -0.15959
C          2.43811        -7.19003        -0.12059
C          3.57907        -7.71575         0.74713
C          4.92114        -7.00862         0.54279
C          6.21690        -7.76039         0.59322
C          7.43029        -7.09872         0.09823
C         -5.96313        -9.31029         1.68088
C         -4.78807        -9.86794         1.22900
C         -3.68445        -9.21842         0.54894
C         -2.49538        -9.93681         0.48231
C         -1.23332        -9.30916         0.15881
C         -0.02533       -10.01357         0.25869
C          1.19026        -9.20970         0.62322
C          2.51145        -9.93855         0.57297
C          3.66977        -9.23469         0.63418
C          4.96963        -9.89140         0.70721
C          6.14877        -9.22800         0.73276
O         -6.63770         3.23577         0.47257
O          4.19177         0.09729        -2.53734
O          9.50022        -0.96957        -1.54315
O         -9.69382        -1.36397         0.30235
O          4.63452        -2.54312         1.09078
H          5.48359        -2.20055         1.47469
O          5.07154        -6.24983        -1.68588
O         -8.24090         5.92996        -2.36650
H         -7.48385         6.04797        -2.99251
O         -6.07439        -7.74174        -0.09900
O         -2.10567        -6.68104         1.61896
H         -1.81921        -7.49420         2.08956
O         -0.07141        -7.01618        -2.13668
O         -4.20954         8.05700         1.11588
O         -4.13066        -1.29635        -2.95904
H         -4.46701        -0.51234        -3.45942
O          0.93018        -8.85790         2.02818
H          1.70236        -8.30754         2.33039
O          1.53793         4.97238        -1.75240
O         -4.51142        -1.75647         0.62296
O         -1.19591         0.44774         0.47002
H         -1.01910         1.33389         0.87371
O         -0.19057         3.24678        -2.96840
H          0.57353         2.89817        -3.47632
O         -0.66158        -3.52351        -2.79589
O         -4.45523         1.19136        -2.82500
O          5.53823         2.70578         2.23118
H          6.11176         3.12301         2.90947
O          2.27644        -5.78073        -2.17656
O         -0.93806         3.06937         0.59679
H         -1.60565         3.49504         1.17553
O          6.26257         8.07243         0.11198
H          5.51747         8.64295        -0.17478
O         -7.28823        -5.63235         0.02942
O          3.31474        -4.77321         1.14356
H          3.85676        -4.02397         1.50158
O         -4.62553         7.88430        -2.50662
H         -4.00587         7.24937        -2.93802
O         -9.49596         3.61585        -1.87499
H         -9.21323         4.44688        -2.34634
O          7.48354        -2.74808        -2.16990
H          7.09924        -3.56455        -2.55322
O         -8.09263         1.38056        -2.41701
H         -8.82104         2.05199        -2.47942
O          4.27621        -3.89342        -2.32877
H          4.49655        -4.87307        -2.41578
O          5.66687        -6.94385         1.77670
O          7.24041        -1.57498         1.28315
H          7.24191        -0.66894         1.66329
O          3.19212        -7.43047         2.12599
H          4.03320        -7.27947         2.62239
O         -2.84390         5.63126        -2.37651
O          2.00969         1.37825        -2.69072
O         -8.50092        -3.46679         0.16445
O          1.85858         5.65429         1.97296
O         -5.75130         5.38465        -2.54496
H         12.12157        -1.24345         0.43583
H         11.98401         1.13572         0.99597
H         10.64246         3.17629         1.43758
H          9.28669         5.15073         2.01043
H          8.03963         7.25932         2.22653
H          6.67791         9.34190         2.72445
H          4.49810        10.48512         2.84338
H          2.15651        10.65421         2.01644
H         -0.21471        10.79658         1.36167
H         -2.57615        10.95309         0.69548
H         -5.04926        11.10415         0.08226
H         -7.13667         9.98293        -0.61333
H         -8.31549         7.80902        -0.26598
H         -9.45261         5.61440         0.21584
H        -10.35626         3.46752         1.04868
H        -10.77603         1.76651         2.37910
H        -10.61656        -0.37989         3.36208
H         -9.44844        -2.76308         3.36243
H         -8.62072        -5.13332         3.11571
H         -7.65118        -7.43646         2.88836
H         -6.54192        -9.85273         2.44412
H         -4.55356       -10.87760         1.60608
H         -2.48129       -10.99038         0.79896
H         -0.03619       -11.09727         0.45276
H          2.52408       -11.04019         0.56482
H          4.96786       -10.99181         0.74963
H          7.09427        -9.78999         0.77294
H          8.35868        -7.68875         0.03833
H          9.63998        -5.54552         0.07622
H         10.80499        -3.43695         0.32213
