         620
 CSIRO Nanostructure Databank - Neutral Graphene Oxide Data Set
C         23.29289        27.55053         2.38788
C         23.34239        28.90926         2.58573
C         23.17059        31.80318         1.62010
C         23.15018        33.08252         1.17096
C         23.11220        36.03726         0.88558
C         23.09361        37.41312         0.65242
C         23.12260        40.33638         0.52867
C         23.08127        41.70090         0.38640
C         23.02051        44.59931         0.11630
C         23.01837        45.94596         0.25667
C         25.33717        24.74231         0.86079
C         24.23767        25.48928         1.29145
C         25.72557        27.00807         2.40555
C         24.40648        26.67619         2.04473
C         25.77538        29.25594         2.70988
C         24.50673        29.75923         2.48647
C         25.65067        31.89293         1.69655
C         24.40472        31.26551         2.29858
C         25.58783        33.23917         1.27920
C         24.35253        33.89866         1.13275
C         25.53140        36.02675         0.53703
C         24.31882        35.31880         0.86459
C         25.48942        37.40020         0.15254
C         24.25733        38.11100         0.30238
C         25.36282        40.19551        -0.42440
C         24.25962        39.55784         0.12248
C         25.29133        41.63099        -0.69255
C         24.15279        42.41932        -0.21352
C         25.41302        44.51051        -0.57373
C         24.18394        43.83510        -0.29994
C         25.43503        45.98214        -0.60641
C         24.16669        46.75258        -0.17015
C         25.55883        48.73253         0.23688
C         24.36426        48.10011         0.36490
C         27.93867        23.05101         0.36918
C         27.85057        24.51766         0.48519
C         26.65430        25.18536         1.08300
C         28.17039        26.94393         1.99973
C         26.85313        26.35098         1.86726
C         28.20830        29.19276         2.16466
C         26.97962        29.89379         2.24565
C         28.08023        31.80066         1.14930
C         26.89304        31.20584         1.70194
C         28.04953        33.16844         0.75646
C         26.87833        34.01254         1.19096
C         27.90283        35.97142        -0.02609
C         26.77191        35.34155         0.49080
C         27.86300        37.34146        -0.42578
C         26.66575        38.04956        -0.34105
C         27.87053        40.21191        -0.86150
C         26.56005        39.43350        -0.96195
C         27.89097        41.59396        -0.79179
C         26.63586        42.37387        -0.90304
C         27.89363        44.50902        -0.73424
C         26.64327        43.82310        -0.68881
C         27.92896        45.94126        -0.68687
C         26.72230        46.68208        -0.51274
C         27.98854        48.77519        -0.38937
C         26.74667        48.06768        -0.25333
C         28.08800        50.18430        -0.17146
C         30.40965        23.07755         0.19129
C         29.11946        22.40399         0.17721
C         30.40935        24.45057         0.44523
C         29.18385        25.25190         0.54515
C         30.46282        27.39002         1.17521
C         29.26810        26.55898         1.27111
C         30.46160        28.78951         1.16301
C         29.30629        29.63745         1.40319
C         30.40851        31.66885         0.44312
C         29.25915        31.01756         0.95277
C         30.39512        33.05053         0.14962
C         29.17558        33.78313         0.22654
C         30.39221        35.91116        -0.32522
C         29.10173        35.14062        -0.43057
C         30.37962        37.29822        -0.50761
C         29.10983        37.90606        -1.10278
C         30.37966        40.19259        -0.63580
C         29.16418        39.49501        -1.22262
C         30.36964        41.62322        -0.62663
C         29.13052        42.34303        -0.74747
C         30.36957        44.48637        -0.83078
C         29.12734        43.76744        -0.78305
C         30.40032        45.91155        -0.98651
C         29.15736        46.64705        -0.86242
C         30.33336        48.82399        -1.19326
C         29.14422        48.06182        -0.80107
C         30.43281        50.24293        -0.86186
C         29.26904        50.87350        -0.34886
C         32.91178        20.22724         0.05726
C         31.73064        20.89970        -0.03678
C         32.90937        23.03629         0.03173
C         31.66592        22.33729         0.11673
C         32.85529        24.51849        -0.00722
C         31.67970        25.16624         0.64896
C         33.00096        27.37345         0.70260
C         31.72876        26.64226         0.95117
C         33.03989        28.85872         0.98095
C         31.69202        29.45833         0.62106
C         32.91580        31.66449         0.11277
C         31.65586        30.91355         0.25232
C         32.87384        33.06909        -0.05271
C         31.62614        33.76235        -0.08175
C         32.83702        35.90815        -0.20872
C         31.61059        35.18644        -0.20283
C         32.79837        37.32033        -0.18477
C         31.59113        38.03098        -0.34738
C         32.77586        40.21677        -0.09305
C         31.58793        39.49568        -0.36034
C         32.81755        41.63751        -0.28697
C         31.59235        42.34689        -0.55455
C         32.83181        44.48477        -0.76760
C         31.60267        43.77497        -0.71564
C         32.87800        45.88802        -0.98729
C         31.63705        46.58682        -1.13276
C         32.90435        48.79839        -1.26799
C         31.66547        48.03671        -1.40377
C         32.89990        50.19751        -1.24244
C         31.66176        50.92849        -1.05831
C         32.89044        53.03194        -1.15976
C         31.70615        52.35031        -1.01797
C         35.54768        19.05379         1.50108
C         35.44512        20.13688         0.55229
C         34.15323        20.95658         0.51637
C         35.34266        23.15701        -0.34930
C         34.15241        22.37434        -0.07134
C         35.36277        24.53416        -0.17316
C         34.12549        25.29719        -0.02826
C         35.44605        27.42452         0.43288
C         34.14337        26.71383         0.39578
C         35.43391        28.88009         0.18743
C         34.20934        29.54985         0.29573
C         35.32719        31.66490        -0.32324
C         34.14463        30.96029         0.01699
C         35.32998        33.07486        -0.33712
C         34.10318        33.79426        -0.19391
C         35.32484        35.92325        -0.34676
C         34.09445        35.20992        -0.22644
C         35.34150        37.35542        -0.19071
C         34.05974        38.01606         0.12462
C         35.33130        40.22363         0.13627
C         34.03878        39.51701         0.23874
C         35.21866        41.69057         0.46996
C         34.03336        42.33317        -0.20828
C         35.37655        44.50892        -0.52014
C         34.08773        43.73085        -0.63939
C         35.33607        45.98336        -0.62651
C         34.12919        46.60539        -0.99306
C         35.40792        48.80739        -1.05517
C         34.18454        48.03459        -1.47747
C         35.41386        50.21584        -1.20983
C         34.14988        50.93857        -1.30595
C         35.37108        53.11612        -1.50719
C         34.12612        52.34101        -1.29785
C         35.45019        54.54571        -1.20970
C         37.92533        18.73199         0.89407
C         36.68624        18.30950         1.57381
C         37.93949        20.07698         0.26889
C         36.59843        20.46070        -0.12477
C         37.85807        23.05764        -0.54056
C         36.60306        22.54407        -0.73615
C         37.91174        24.52561        -0.54783
C         36.60582        25.27250        -0.37954
C         37.91635        27.39980        -0.24821
C         36.69417        26.66876         0.11882
C         37.84270        28.79291        -0.40689
C         36.62915        29.51045        -0.26493
C         37.82077        31.71020        -0.66626
C         36.54076        30.92003        -0.80766
C         37.81727        33.08313        -0.61026
C         36.55706        33.79946        -0.49410
C         37.78996        35.93128        -0.74112
C         36.53584        35.19924        -0.50096
C         37.77441        37.42984        -0.62404
C         36.51530        38.09748        -0.24228
C         37.81441        40.22117        -0.07460
C         36.53147        39.53282        -0.01369
C         37.85567        41.66291         0.20818
C         36.54447        42.43198         0.36773
C         37.78062        44.53860         0.04601
C         36.58400        43.85527         0.03293
C         37.73251        46.04006         0.19087
C         36.53842        46.70638        -0.45038
C         37.80906        48.84345        -0.48644
C         36.58288        48.11734        -0.67007
C         37.83953        50.24320        -0.73372
C         36.64766        50.91739        -1.10709
C         37.94912        53.11515        -1.17923
C         36.71754        52.34712        -1.43436
C         37.91025        54.51411        -1.25558
C         36.64844        55.19718        -1.19646
C         40.54105        16.46783         2.60002
C         39.35053        16.96981         2.19709
C         40.43211        19.03280         1.17189
C         39.27788        18.13323         1.28544
C         40.37406        20.28428         0.53853
C         39.10241        20.83501         0.07728
C         40.36591        23.07342        -0.30870
C         39.13620        22.21752        -0.66050
C         40.37317        24.49909        -0.33881
C         39.16360        25.25663        -0.35783
C         40.38124        27.39953        -0.44084
C         39.14007        26.66711        -0.37252
C         40.37696        28.79853        -0.58599
C         39.08919        29.49042        -0.80371
C         40.36140        31.70967        -0.69678
C         39.08753        30.99114        -0.88183
C         40.34553        33.10773        -0.59116
C         39.07731        33.83132        -0.59904
C         40.30883        35.98211        -0.22978
C         39.06875        35.20444        -0.59645
C         40.26437        37.45526        -0.57074
C         39.06653        38.14210        -0.49813
C         40.26526        40.30384        -0.50296
C         39.02242        39.57682        -0.38476
C         40.27270        41.72766        -0.38810
C         39.06606        42.42954        -0.11010
C         40.26646        44.56899        -0.12001
C         39.04213        43.83542         0.00365
C         40.25069        46.00885        -0.09459
C         39.03711        46.72634        -0.09799
C         40.25160        48.86295        -0.08727
C         39.03063        48.13821        -0.21808
C         40.23117        50.28099        -0.17029
C         39.07555        50.97601        -0.58414
C         40.37037        53.09065        -0.64103
C         39.14325        52.39748        -0.81087
C         40.47435        54.50882        -1.00928
C         39.17422        55.28282        -1.30988
C         40.40514        57.37882        -0.87068
C         39.23022        56.74024        -1.10154
C         43.01103        16.57706         2.47117
C         41.77053        17.15292         2.28244
C         42.97832        19.21321         1.37354
C         41.67333        18.54175         1.79748
C         42.87557        20.42858         0.55815
C         41.62222        21.02710         0.32040
C         42.83573        23.12692        -0.18888
C         41.59901        22.40266        -0.10205
C         42.83788        24.54454        -0.34152
C         41.60632        25.24555        -0.33344
C         42.83139        27.40561        -0.49367
C         41.60922        26.67547        -0.40685
C         42.82983        28.83537        -0.56243
C         41.58984        29.53838        -0.62310
C         42.81416        31.69995        -0.65664
C         41.58200        30.97856        -0.67875
C         42.79996        33.11928        -0.65009
C         41.58478        33.83128        -0.58457
C         42.76616        36.00133        -0.80135
C         41.58702        35.27153        -0.58068
C         42.69488        37.43953        -0.94556
C         41.50249        38.16024        -0.77746
C         42.67722        40.35721        -0.95449
C         41.47816        39.61349        -0.78731
C         42.71158        41.76043        -0.76593
C         41.49529        42.45515        -0.49106
C         42.72495        44.59093        -0.41658
C         41.48701        43.87398        -0.32625
C         42.72345        46.01787        -0.24141
C         41.49496        46.71942        -0.11128
C         42.72259        48.82720         0.16621
C         41.49139        48.14278         0.03022
C         42.73627        50.26500         0.43556
C         41.42201        51.03961         0.22600
C         42.76463        53.13470         0.03036
C         41.52611        52.45612        -0.12327
C         42.81765        54.56597        -0.13965
C         41.65630        55.26397        -0.56406
C         42.83377        57.37567        -0.30846
C         41.64530        56.67259        -0.62133
C         44.20906        17.18661         2.00560
C         45.39980        19.00784         0.76739
C         44.21580        18.42150         1.38040
C         45.35915        20.35457         0.29285
C         44.10418        21.06467         0.21300
C         45.31585        23.13510        -0.34373
C         44.08190        22.43463        -0.13723
C         45.30595        24.54654        -0.49795
C         44.06854        25.26684        -0.46016
C         45.28915        27.40146        -0.71402
C         44.06327        26.68392        -0.54114
C         45.30301        28.82983        -0.74888
C         44.06478        29.56818        -0.62700
C         45.28642        31.73166        -0.88775
C         44.06197        30.98287        -0.66616
C         45.27798        33.09682        -1.03786
C         44.09718        33.87645        -0.51160
C         45.22581        36.01448        -1.19155
C         44.03071        35.32194        -0.94216
C         45.20876        37.45139        -1.31083
C         43.91273        38.13925        -1.37019
C         45.19970        40.37061        -1.25151
C         43.90702        39.67602        -1.38444
C         45.19640        41.78241        -1.06139
C         43.95155        42.49014        -0.88098
C         45.16191        44.68236        -0.86386
C         43.92483        43.89723        -0.70726
C         45.19370        46.06632        -0.36879
C         43.95650        46.73769        -0.18598
C         45.19709        48.84804         0.17739
C         43.95491        48.14393         0.05180
C         45.21055        50.27301         0.31085
C         43.99356        51.00472         0.32792
C         45.23050        53.12631         0.39334
C         43.98284        52.41745         0.28655
C         45.24817        54.54879         0.37851
C         44.02416        55.28232         0.10451
C         43.99623        56.69639         0.01378
C         47.77296        18.91041         0.22380
C         46.61383        18.30226         0.69920
C         47.77890        20.25692        -0.16722
C         46.56488        20.99823        -0.12152
C         47.75349        23.13954        -0.59946
C         46.55005        22.42311        -0.39059
C         47.76736        24.54654        -0.72007
C         46.52869        25.25178        -0.67532
C         47.71336        27.35770        -1.10241
C         46.50247        26.66896        -0.82607
C         47.68193        28.76691        -1.27171
C         46.51861        29.51094        -1.00225
C         47.67072        31.63679        -1.68742
C         46.61763        31.01346        -0.80125
C         47.69582        33.10849        -2.02537
C         46.43895        33.84468        -1.59181
C         47.66838        35.98335        -1.64781
C         46.47928        35.30861        -1.40403
C         47.63781        37.46350        -1.71901
C         46.38373        38.18962        -1.45355
C         47.65329        40.32471        -1.14155
C         46.40272        39.63217        -1.34802
C         47.64730        41.74495        -0.97343
C         46.45468        42.46676        -1.00501
C         47.69334        44.65353        -0.53423
C         46.49071        43.94695        -1.00020
C         47.66381        45.99529        -0.16774
C         46.41603        46.72694        -0.14771
C         47.65321        48.80927         0.38585
C         46.42135        48.13031         0.14479
C         47.66041        50.22156         0.55404
C         46.44697        50.96376         0.45513
C         47.68038        53.08187         0.75489
C         46.45065        52.39378         0.54528
C         47.65854        54.49595         0.78068
C         46.48515        55.20485         0.58287
C         50.36236        20.30279        -0.34016
C         49.04017        20.91589        -0.58932
C         50.29899        23.16500        -0.45852
C         49.02545        22.40564        -0.77916
C         50.26909        24.59941        -0.90871
C         49.01148        25.27884        -0.90669
C         50.19370        27.47296        -1.18691
C         48.95530        26.67063        -1.12748
C         50.12709        28.87207        -1.67530
C         48.87392        29.45054        -1.73209
C         50.45659        31.85774        -2.59302
C         48.59175        30.79698        -2.21044
C         50.31544        33.26730        -2.26158
C         48.98836        33.90344        -2.10697
C         50.17600        36.11264        -1.86720
C         48.92379        35.28904        -1.90758
C         50.18036        37.48617        -1.32631
C         48.95106        38.24916        -1.52453
C         50.08710        40.25664        -0.60492
C         48.88401        39.63527        -1.08069
C         50.11419        41.65658        -0.38595
C         48.94866        42.43659        -0.83036
C         50.13029        44.50916         0.14176
C         48.96833        43.93081        -0.55425
C         50.08449        45.90975         0.44039
C         48.88422        46.65996         0.24665
C         50.07350        48.71962         0.89852
C         48.87379        48.05678         0.49858
C         50.07873        50.14728         1.06648
C         48.88740        50.90532         0.84416
C         50.12528        52.95835         1.27673
C         48.90115        52.32387         0.95455
C         51.52207        20.99770        -0.53694
C         52.72181        23.10959        -1.16824
C         51.55379        22.40767        -0.80864
C         52.68580        24.52796        -1.37452
C         51.48267        25.25733        -1.19101
C         52.74303        27.46090        -1.64805
C         51.51280        26.73602        -1.23136
C         52.71995        28.85485        -1.77233
C         51.43308        29.65946        -1.57065
C         52.77018        31.72562        -2.03123
C         51.50034        31.04540        -2.19973
C         52.77169        33.23454        -1.90137
C         51.47537        33.92536        -1.86550
C         52.64211        36.04735        -1.05545
C         51.50813        35.38188        -1.71090
C         52.58597        37.39009        -0.71333
C         51.32778        38.11118        -0.84285
C         52.42513        40.12723         0.13882
C         51.28500        39.50099        -0.43806
C         52.36746        41.48856         0.52490
C         51.24846        42.28679         0.17989
C         52.41127        44.34874         1.03067
C         51.25039        43.72486         0.44531
C         52.42276        45.76691         1.22740
C         51.25612        46.55028         0.93513
C         52.43212        48.61520         1.64062
C         51.25410        47.96289         1.14362
C         52.44198        50.03053         1.81113
C         51.27043        50.81022         1.46270
C         51.26720        52.22393         1.53710
C         55.17958        23.06981        -1.38596
C         54.00388        22.42757        -1.20529
C         55.23685        24.48861        -1.78319
C         53.90741        25.24810        -1.80121
C         55.20690        27.39252        -1.82309
C         53.96266        26.72737        -1.74418
C         55.21133        28.83027        -1.78009
C         53.97244        29.55742        -1.80179
C         55.18620        31.72012        -1.62009
C         53.98726        30.98041        -1.70988
C         55.22657        33.11961        -1.20525
C         53.91416        33.79086        -1.12447
C         55.07413        35.89439        -0.33424
C         53.82453        35.24083        -0.68659
C         55.10934        37.39869        -0.35239
C         53.75321        38.06669        -0.17886
C         54.84578        40.04854         0.81926
C         53.66923        39.37680         0.26238
C         54.75129        41.32768         1.32884
C         53.42118        42.04766         1.45051
C         54.64829        44.20514         1.99982
C         53.53636        43.56861         1.42211
C         54.68569        45.61753         2.15401
C         53.56608        46.40118         1.79558
C         54.68988        48.48236         2.57998
C         53.57466        47.83860         2.00236
C         54.66632        49.87180         2.77327
C         53.57983        50.63853         2.37792
C         57.71104        24.59171        -1.33410
C         56.48534        25.27205        -1.62664
C         57.75640        27.38320        -1.77310
C         56.46051        26.66285        -1.78123
C         57.77500        28.94223        -1.73580
C         56.42527        29.57254        -1.78499
C         57.98159        31.89014        -0.96811
C         56.35182        30.96189        -1.87988
C         57.57834        33.06770        -0.30502
C         56.32377        33.75698        -0.58980
C         57.33610        35.73980         0.59773
C         56.21565        35.13316        -0.11732
C         57.33742        37.14174         0.87535
C         56.19560        37.97197         0.52074
C         57.30585        39.99012         1.37906
C         56.09544        39.29283         0.91405
C         57.20709        41.31273         1.98266
C         55.88309        41.94364         2.05429
C         57.11044        44.09628         2.67422
C         55.81448        43.40242         2.47349
C         57.11841        45.49814         2.76334
C         55.79518        46.19439         3.01874
C         57.17662        48.33112         2.54212
C         55.90418        47.74603         3.11771
C         58.88608        25.27011        -1.11910
C         60.09600        27.41191        -0.96253
C         58.94561        26.68496        -1.26497
C         60.06190        28.81104        -0.80912
C         58.91779        29.57538        -1.03039
C         59.55365        31.31553         0.72756
C         58.84128        30.91463        -0.42717
C         59.41518        32.61079         1.22586
C         58.43753        33.50984         0.73547
C         59.33973        35.47272         1.97316
C         58.35144        34.90836         1.13954
C         59.38260        36.84046         2.18934
C         58.42312        37.69036         1.61127
C         59.55341        39.80004         2.58030
C         58.56624        39.15481         1.71159
C         59.50565        41.14126         2.80253
C         58.34220        41.93579         2.48284
C         59.54593        44.09246         2.78558
C         58.33049        43.37665         2.70769
C         59.55269        45.47807         2.73063
C         58.34073        46.19597         2.70989
C         58.32556        47.63523         2.49526
O         46.69348        33.48449        -3.01574
O         40.05876        54.81509        -2.37915
O         37.34813        42.07705         1.54354
O         54.51645        24.73140        -3.03702
O         39.03582        30.16076        -2.12499
O         25.79266        41.98123        -2.03349
O         42.37030        19.46578         2.69507
O         29.07434        37.38811        -2.42926
O         55.25085        45.71496         4.24558
O         55.50030        42.35261         3.44214
O         57.50003        31.66003        -2.26367
O         36.49750        21.25706        -1.26634
O         33.98909        38.66148         1.44776
O         30.83001        48.46822        -2.51984
O         31.92868        25.61211         2.02589
O         51.08991        35.99316        -2.99435
O         24.51771        46.58612        -1.57581
O         28.36986        25.25647        -0.68082
O         45.82515        44.53493        -2.16717
O         48.36561        38.00959        -2.85477
O         37.70508        36.77376        -1.95670
O         58.41270        39.84026         0.42846
O         49.01234        21.54365        -1.94490
O         53.48622        34.12441         0.24009
O         25.91322        28.01421         3.36135
O         36.29803        26.89497         1.52533
O         36.08566        52.69771        -2.70712
O         35.01472        43.88499        -1.81284
O         37.17137        25.10599        -1.71355
O         28.33446        28.00756         2.90868
O         58.07284        28.20091        -2.94788
O         51.00946        27.30875         0.05520
O         43.74602        38.90734        -2.61611
O         33.26600        25.13616        -1.25884
O         53.08792        32.63888        -3.17938
O         38.60053        17.74545         0.03631
O         49.38138        31.26728        -3.25173
O         49.27238        43.38900        -1.89989
O         31.55568        29.82119        -0.77357
O         41.90429        50.69291         1.56581
O         52.93234        41.72549         2.79834
H         53.66016        41.98470         3.42039
O         33.94276        21.21090         1.96069
H         33.06432        21.63743         2.06273
O         55.96269        48.05982         4.53405
H         55.62536        47.22883         4.97530
O         40.28300        35.99596         1.26261
H         40.59676        35.11814         1.57038
O         37.52112        46.24258         1.64796
H         38.27035        45.81398         2.11493
O         26.31206        39.23607        -2.38479
H         26.23760        40.13418        -2.78513
O         51.46094        29.99477        -0.13147
H         51.40148        29.13026         0.35009
O         34.84143        41.73388         1.88776
H         35.67013        41.57184         2.39731
O         28.90183        34.83905        -1.84275
H         28.92546        35.73015        -2.31620
O         36.34523        30.76553        -2.26107
H         37.20886        30.44433        -2.62403
O         24.34841        31.79358         3.68338
H         24.24662        32.76765         3.61570
O         29.33474        39.77519        -2.63731
H         29.21625        38.87764        -3.08521
O         27.19165        34.37655         2.59233
H         27.23095        33.54201         3.10788
O         55.51233        37.73007        -1.73492
H         55.76130        38.67904        -1.75377
O         34.30566        47.91516        -2.95148
H         34.27546        48.82201        -3.32579
O         33.19526        29.05260         2.41566
H         33.95955        28.51618         2.71610
O         39.30833        21.88745        -2.06573
H         38.47434        21.46307        -2.36618
O         50.28602        23.23489         1.02151
H         50.99947        23.84938         1.29708
O         44.34672        33.96132         0.95498
H         44.52871        33.05015         1.27164
O         47.03777        31.19051         0.59927
H         46.51626        30.57019         1.15099
H         22.29383        27.08663         2.36198
H         22.37315        29.41773         2.71152
H         22.24655        31.20718         1.61966
H         22.21448        33.50081         0.77189
H         22.16980        35.52740         1.12766
H         22.13273        37.93911         0.72708
H         22.26725        39.83497         0.99906
H         22.19461        42.23413         0.75180
H         22.11172        44.05144         0.39673
H         22.14591        46.45844         0.68811
H         25.16783        23.83052         0.27116
H         23.22385        25.16504         1.01621
H         25.64920        49.75999         0.61391
H         23.52695        48.58816         0.88508
H         27.01314        22.46509         0.47543
H         27.20972        50.74287         0.17607
H         29.10424        21.30858         0.08735
H         29.29258        51.94411        -0.10433
H         32.94144        19.13624        -0.07549
H         30.81212        20.34276        -0.27185
H         32.87345        54.12927        -1.17736
H         30.77327        52.92160        -0.92637
H         34.65678        18.76484         2.07514
H         34.53274        55.10969        -0.99339
H         36.70211        17.39367         2.17928
H         36.64899        56.28587        -1.04830
H         40.59083        15.52893         3.17070
H         38.42480        16.41712         2.40597
H         40.41725        58.47494        -0.77561
H         38.30309        57.32758        -1.16020
H         43.07116        15.56668         2.90105
H         42.83319        58.47449        -0.34600
H         45.13899        16.60819         2.09307
H         44.90715        57.27725         0.21050
H         48.69633        18.31797         0.17588
H         46.66323        17.25500         1.02545
H         48.58777        55.05934         0.93806
H         46.53106        56.30203         0.58890
H         50.42127        19.23390        -0.09103
H         50.17696        54.05254         1.35208
H         52.46788        20.44130        -0.46840
H         52.18500        52.76365         1.80455
H         56.11263        22.49876        -1.28650
H         54.03083        21.35461        -0.97430
H         55.51679        50.35818         3.26966
H         53.60523        51.72221         2.55138
H         57.71245        23.49851        -1.24053
H         57.18496        49.40863         2.31647
H         59.79776        24.72344        -0.83850
H         61.01373        26.87033        -0.69123
H         60.95247        29.30360        -0.39276
H         60.25557        30.62285         1.21285
H         60.05506        32.91257         2.06599
H         60.11972        34.83894         2.41450
H         60.20097        37.26014         2.78892
H         60.36375        39.20438         3.02274
H         60.30570        41.60949         3.39298
H         60.50076        43.54993         2.80522
H         60.50595        46.02513         2.70527
H         59.26861        48.12261         2.20380
