         467
 CSIRO Nanostructure Databank - Neutral Graphene Oxide Data Set
C         37.67972        49.99610         2.40614
C         36.50699        50.67565         2.68841
C         37.65080        52.78500         2.40354
C         36.49320        52.08133         2.68836
C         40.16830        48.57400         1.80961
C         40.11505        49.99004         1.82909
C         38.87977        50.69143         2.11316
C         40.07868        52.84350         1.79813
C         38.86602        52.11520         2.10935
C         40.08355        54.26789         1.75210
C         42.55191        48.59927         1.30469
C         41.34186        47.90042         1.54208
C         42.53355        50.01970         1.33738
C         41.30938        50.71903         1.56741
C         42.48827        52.88111         1.19519
C         41.28753        52.15592         1.53058
C         42.45167        54.32452         1.12576
C         41.21467        54.97247         1.43448
C         45.00609        45.82035         0.66484
C         43.81996        46.49466         0.88271
C         45.01025        48.63124         0.93865
C         43.78893        47.90052         1.04079
C         44.98295        50.06351         0.96659
C         43.74819        50.75437         1.11619
C         44.90991        52.87489         0.53936
C         43.69624        52.17423         0.99341
C         44.84709        54.41736         0.40417
C         43.60317        55.08982         0.81136
C         44.60642        57.27922         0.30386
C         43.54572        56.51955         0.69627
C         47.55136        44.38538         0.30614
C         47.50298        45.78219         0.53832
C         46.24335        46.50647         0.64344
C         47.48950        48.64637         0.81548
C         46.24501        47.91642         0.79244
C         47.44536        50.04326         0.84015
C         46.21708        50.80441         0.83980
C         47.46143        52.96685         0.38659
C         46.21018        52.20262         0.68583
C         47.40836        54.45681         0.01344
C         46.12837        55.20794         0.36974
C         47.00251        57.52698        -0.46901
C         45.96343        56.72265         0.24044
C         47.57001        58.71292        -0.12012
C         49.97781        44.28458         0.54971
C         48.74871        43.66999         0.26841
C         49.95700        45.71424         0.86134
C         48.71704        46.48841         0.71790
C         50.00099        48.58766         0.72571
C         48.75302        47.91034         0.79519
C         50.00608        50.05169         0.88251
C         48.69268        50.79142         0.93707
C         49.93592        52.84429         1.02121
C         48.72685        52.24516         0.71734
C         49.93158        54.93668         0.38199
C         48.65294        55.31529        -0.17360
C         49.91136        57.14651        -1.32820
C         48.69086        56.34811        -1.07214
C         49.82320        58.63517        -1.29568
C         48.75269        59.29393        -0.73293
C         52.48260        41.48939         0.71946
C         51.28556        42.17644         0.70993
C         52.47564        44.29386         0.40028
C         51.23783        43.58769         0.56570
C         52.50651        45.73431         0.35901
C         51.30964        46.47299         0.77742
C         52.46919        48.60329         0.35089
C         51.25079        47.92332         0.56953
C         52.44995        50.07453         0.18597
C         51.18884        50.83575         0.43077
C         52.39817        53.03823         0.46477
C         51.24008        52.28849         0.73065
C         52.40193        54.55285         0.32993
C         51.14942        55.22851        -0.16317
C         52.41989        57.32961        -0.71449
C         51.21301        56.48084        -0.95063
C         52.36051        58.72531        -1.21640
C         51.06418        59.36303        -1.60148
C         52.36667        61.42018        -1.96218
C         51.12377        60.68878        -1.94936
C         54.99615        40.00966         0.32358
C         54.98368        41.45083         0.42127
C         53.71444        42.15869         0.48416
C         54.92188        44.23628        -0.13354
C         53.68442        43.55622         0.28574
C         54.91324        45.75541        -0.27073
C         53.67073        46.46189         0.08850
C         54.93360        48.58692        -0.03424
C         53.69512        47.89274         0.18609
C         54.97524        50.05608         0.18682
C         53.69417        50.85530         0.38002
C         54.87200        52.98375         0.00404
C         53.65589        52.33782         0.22324
C         55.02965        54.50083         0.14724
C         53.70509        55.26132         0.04004
C         54.85679        57.23756        -1.03902
C         53.71435        56.59690        -0.64260
C         54.87447        58.66351        -1.35961
C         53.60536        59.30799        -1.85212
C         54.86325        61.53240        -1.74066
C         53.59337        60.81785        -1.80996
C         54.90315        62.93865        -1.90780
C         57.45422        39.92109         0.33548
C         56.13846        39.28672         0.18673
C         57.47259        41.43257         0.41774
C         56.19358        42.16233         0.34387
C         57.40355        44.32304         0.08172
C         56.21680        43.57652         0.10243
C         57.41859        45.74916        -0.13481
C         56.19847        46.47351        -0.22892
C         57.36991        48.62374        -0.66861
C         56.13633        47.89815        -0.27759
C         57.36624        50.15397        -0.77432
C         56.12143        50.83555        -0.24724
C         57.34389        52.90736        -0.58466
C         56.06842        52.21375        -0.24567
C         57.37107        54.36787        -0.80584
C         56.10498        55.08068        -0.73603
C         57.38247        57.21397        -0.96774
C         56.11363        56.45646        -1.30359
C         57.29156        58.68409        -0.88773
C         56.04191        59.38947        -1.26947
C         57.31637        61.56715        -1.47204
C         56.07875        60.83427        -1.50071
C         57.32283        62.98714        -1.62814
C         56.08961        63.64524        -1.84540
C         59.93767        37.26159        -0.82635
C         58.74967        37.90085        -0.35416
C         59.73154        40.10622        -0.83429
C         58.67180        39.25394        -0.19558
C         59.86558        41.52716        -0.32357
C         58.72735        42.16199         0.09329
C         59.98926        44.36373         0.17269
C         58.68956        43.61909         0.32489
C         59.91967        45.80051        -0.13103
C         58.68561        46.44724        -0.19596
C         59.95362        48.62219        -0.36109
C         58.68654        47.88418        -0.54904
C         59.88221        50.06076        -0.03372
C         58.56969        50.76360        -0.05751
C         59.86548        53.02578         0.00099
C         58.57745        52.26213        -0.03398
C         59.82745        54.45938        -0.40866
C         58.65191        55.10742        -0.68115
C         59.85626        57.26714        -0.88536
C         58.59633        56.55945        -0.80814
C         59.79992        58.66628        -1.31860
C         58.58409        59.45576        -1.00558
C         59.79674        61.58075        -1.36768
C         58.57820        60.89248        -1.34251
C         59.79713        63.02410        -1.37068
C         58.56807        63.72728        -1.51559
C         59.80274        65.82567        -1.29485
C         58.61414        65.14315        -1.50147
C         62.39974        35.87520        -0.65621
C         62.38124        37.19992        -1.16878
C         61.10897        37.95657        -1.10032
C         62.05792        40.24435        -1.50331
C         61.05512        39.40549        -1.05295
C         62.27894        41.59798        -1.04438
C         61.12657        42.25204        -0.50820
C         62.41699        44.33130        -0.45671
C         61.20310        43.62955        -0.24413
C         62.40086        45.77909        -0.32160
C         61.17135        46.48548        -0.27078
C         62.40510        48.63159        -0.06562
C         61.15386        47.92862        -0.23182
C         62.35533        50.09670         0.20782
C         61.11768        50.86558        -0.00337
C         62.39444        52.98661        -0.03740
C         61.14583        52.25629         0.00405
C         62.36428        54.47526        -0.01907
C         61.07653        55.23088        -0.23347
C         62.32543        57.33683        -0.92060
C         61.08993        56.63455        -0.72067
C         62.34271        58.69388        -1.27027
C         61.09309        59.42378        -1.51791
C         62.27946        61.54883        -1.22188
C         61.07230        60.88533        -1.34721
C         62.30213        63.01245        -0.86276
C         61.00734        63.73077        -1.16405
C         62.28836        65.82703        -0.79977
C         61.01793        65.13048        -1.09014
C         62.25972        67.16896        -0.27665
C         64.79957        35.58294        -0.95999
C         63.56189        35.12345        -0.47520
C         64.71355        36.80611        -1.63420
C         63.63968        37.70964        -1.60123
C         64.98301        39.94120        -1.45649
C         63.95279        39.13445        -1.88133
C         64.85922        41.47736        -1.43117
C         63.56556        42.22220        -1.09011
C         64.88016        44.36442        -0.66712
C         63.62513        43.61971        -0.76254
C         64.86426        45.78688        -0.39322
C         63.63300        46.50301        -0.30607
C         64.90509        48.70290        -0.31062
C         63.60332        47.94121        -0.14060
C         64.91480        50.12378         0.23030
C         63.63137        50.88003         0.28809
C         64.87953        52.98030        -0.28035
C         63.63012        52.32467        -0.01136
C         64.83265        54.39869        -0.71030
C         63.65330        55.21314        -0.27235
C         64.86187        57.27302        -1.23004
C         63.62519        56.65529        -0.68810
C         64.80775        58.69166        -1.59617
C         63.55428        59.44503        -1.37171
C         64.77740        61.60447        -1.29613
C         63.53239        60.84354        -1.34238
C         64.76666        62.98359        -1.25610
C         63.48703        63.75973        -1.49240
C         64.78048        65.99838        -0.89039
C         63.49892        65.18238        -0.95978
C         64.68022        67.18332         0.04442
C         63.40245        67.79054         0.17254
C         67.35144        32.84146        -0.29067
C         66.23858        33.49711        -0.68682
C         67.47501        35.67760        -0.75137
C         66.12377        34.97970        -0.45153
C         67.50992        37.16426        -0.66068
C         66.56388        37.90742        -1.29071
C         67.48993        40.09864        -0.65113
C         66.25729        39.31919        -0.98334
C         67.49237        41.56175        -0.94263
C         66.15290        42.25809        -1.14769
C         67.34210        44.38344        -0.45197
C         66.11054        43.68327        -0.72076
C         67.31142        45.81271        -0.31133
C         66.11164        46.49167        -0.26207
C         67.40225        48.69855        -0.12415
C         66.12280        47.93455         0.20630
C         67.42328        50.13567        -0.15348
C         66.18295        50.89099         0.10887
C         67.35013        52.98580        -0.56051
C         66.12612        52.33005        -0.24556
C         67.40249        54.36397        -1.20385
C         66.07439        55.11138        -1.14209
C         67.32828        57.30950        -1.18815
C         66.07505        56.60125        -1.19125
C         67.35540        58.72186        -1.36499
C         66.11422        59.45225        -1.72020
C         67.23643        61.54633        -1.13478
C         66.06417        60.89855        -1.38715
C         67.13144        62.85229        -0.39828
C         66.03399        63.70166        -0.99658
C         67.14918        65.67732         0.19043
C         66.05164        65.16860        -0.67981
C         67.06799        66.96207         0.74608
C         65.84703        67.74293         0.61003
C         66.99406        69.66742         1.56535
C         65.84598        69.09309         1.07537
C         69.37455        31.56205         1.40933
C         69.55499        32.88311         0.85740
C         68.54876        33.53130         0.17002
C         69.80083        35.74135         0.41572
C         68.70226        34.95775        -0.23896
C         69.80290        37.15488         0.43554
C         68.76433        37.86921        -0.32840
C         69.95681        40.07994         0.11181
C         68.80496        39.34797        -0.51527
C         69.91076        41.58730         0.10724
C         68.72149        42.30684        -0.49175
C         69.71750        44.44611         0.33579
C         68.57826        43.74147        -0.20850
C         69.77562        45.85338         0.22497
C         68.63134        46.53128        -0.47409
C         69.85140        48.68508        -0.11660
C         68.59504        48.00272        -0.19097
C         69.86601        50.12641        -0.39775
C         68.59706        50.85799        -0.33622
C         69.80698        53.05527        -0.29793
C         68.58292        52.30173        -0.42999
C         69.76860        54.49934        -0.35074
C         68.58071        55.18218        -0.72625
C         69.71355        57.37101        -0.61055
C         68.54647        56.61121        -0.84984
C         69.72165        58.78566        -0.77213
C         68.53840        59.45350        -1.18227
C         69.81468        61.77487        -1.29991
C         68.53272        60.91166        -1.60843
C         69.64559        62.87443        -0.24811
C         68.42345        63.57864        -0.18326
C         69.47164        65.42291         1.05145
C         68.34605        64.89363         0.34182
C         69.36947        66.67934         1.73034
C         68.20262        67.51669         1.46103
C         69.69170        69.31737         3.45246
C         68.16300        68.88769         1.75102
C         69.61573        70.32232         4.42194
C         71.57662        31.64539         2.45243
C         70.33109        30.97099         2.17882
C         71.84090        32.86551         1.93455
C         70.90605        33.54622         0.98112
C         71.74448        35.78379         1.87146
C         70.80202        35.04891         1.13387
C         71.72548        37.17547         1.89971
C         70.76729        37.89932         1.16327
C         71.59016        40.13871         1.93093
C         70.78646        39.36951         1.11579
C         71.59296        41.56684         1.89927
C         70.76466        42.30450         1.07768
C         71.87858        44.50572         1.46489
C         70.78463        43.75404         0.98715
C         71.96853        45.87360         1.24598
C         70.92650        46.57928         0.59785
C         72.16294        48.79278         0.65999
C         71.00645        48.01623         0.30932
C         72.21213        50.15676         0.55439
C         71.15568        50.92442        -0.09867
C         72.15098        53.16244         0.37946
C         71.03090        52.40251         0.03681
C         72.11775        54.56384         0.31572
C         70.96290        55.23870        -0.06231
C         71.95885        57.54538         0.41903
C         71.05038        56.70078        -0.43245
C         71.92828        58.90552         0.27468
C         70.89600        59.54137        -0.47676
C         72.23641        61.65391        -0.52678
C         71.09234        60.89071        -1.13631
C         72.07799        62.79260         0.17595
C         70.78529        63.43044         0.35957
C         71.69983        65.07406         1.99569
C         70.66073        64.63278         1.13952
C         71.51093        66.18148         2.79905
C         70.35638        66.99302         2.70108
C         70.64853        67.79529         5.04706
C         70.21709        68.04399         3.72919
C         70.56448        68.78351         6.02878
C         70.06017        70.04990         5.71776
O         52.33326        58.44691         0.23173
O         47.36643        53.46615        -1.03650
O         57.44433        53.36420        -1.97299
O         46.36388        56.07861         1.51514
O         68.49672        41.96062        -1.90937
O         49.47636        50.46544         2.17380
O         44.70333        53.55908        -0.75989
O         66.58133        39.69522         0.42349
O         50.74413        46.04936         2.05220
O         59.04165        52.81932         1.21764
O         70.71561        40.85552        -0.87216
O         65.62063        42.09655        -2.51145
O         51.62556        50.52274        -0.94134
O         60.31025        58.92078        -2.66401
O         63.90867        56.23463         0.72554
O         61.63764        55.03265         1.11830
O         54.79251        44.88104        -1.44914
O         57.63636        40.60100         1.62779
O         68.42512        35.12044        -1.68601
O         49.88612        54.14157         1.51627
O         66.51822        64.65331        -1.99540
O         58.00173        48.06567        -1.87568
O         47.50684        56.86054        -1.61927
O         69.29681        69.62128         2.13790
O         69.25111        38.50957        -1.61007
O         62.90743        39.80146        -2.51457
O         71.51161        33.32596        -0.41136
O         57.99413        59.20589         0.30641
O         50.78129        56.51958        -2.34509
O         58.98126        50.18050         1.19106
O         65.42300        58.99718        -2.90786
O         53.07060        55.32771         1.38218
O         54.46624        50.41399         1.53060
O         70.80306        50.50172        -1.45147
O         65.83527        37.28374        -2.30238
O         59.45257        44.04437         1.50907
O         65.66677        50.45022         1.44571
O         65.12664        54.56973        -2.15018
O         62.93293        50.48378         1.51733
O         66.03317        35.17654         1.00170
H         65.25617        34.67841         1.33222
O         65.06573        48.87393        -1.74979
H         65.17761        47.98754        -2.15554
O         68.43946        60.81865        -3.05462
H         68.70979        61.70635        -3.39714
O         66.05086        47.83059         1.64825
H         65.97493        48.75033         2.00680
O         66.65100        62.52608         0.95420
H         67.35243        62.01849         1.41361
O         67.66759        54.11678        -2.62160
H         66.79225        53.94961        -3.04214
O         53.48542        58.92256        -3.26099
H         54.32800        59.14170        -3.71116
O         71.51528        60.53768        -2.49318
H         70.86260        59.89887        -2.85577
O         56.13514        56.30140        -2.78151
H         56.65525        55.49287        -2.98754
O         71.66538        56.69901        -1.78558
H         71.09866        56.13698        -2.35731
O         70.05797        62.58307        -2.48454
H         70.83881        62.17878        -2.93931
O         59.22751        40.31039        -2.22203
H         59.28589        39.44684        -2.68518
O         62.51777        63.08303         0.57852
H         61.76715        62.63517         1.02179
O         57.49640        50.52184        -2.16401
H         57.78693        49.71422        -2.65273
O         63.25880        63.82039        -2.92354
H         63.94614        64.39985        -3.31463
O         72.75662        34.05856        -0.45261
H         72.53020        34.84572        -1.00623
O         68.91458        46.44549        -1.91786
H         69.07118        45.50102        -2.13537
O         55.54513        54.68685         1.50246
H         54.76673        54.89152         2.07552
O         64.90558        66.62100        -2.21810
H         65.54820        66.06766        -2.72348
H         37.66498        48.89833         2.41582
H         35.58813        50.11720         2.91412
H         37.61059        53.88200         2.41141
H         35.56338        52.62125         2.91428
H         39.26255        47.98492         2.00261
H         39.16559        54.82903         1.96817
H         41.32549        46.80295         1.53412
H         41.14832        56.06710         1.41552
H         44.97628        44.72969         0.54405
H         42.88918        45.91425         0.92036
H         44.47185        58.34622         0.07777
H         42.57792        57.02385         0.81276
H         46.62106        43.83562         0.11215
H         47.12647        59.27984         0.71203
H         48.71539        42.59841         0.02646
H         48.86258        60.38030        -0.58583
H         52.46755        40.40659         0.89946
H         50.35147        41.62186         0.87481
H         52.29054        62.51294        -2.05983
H         50.19947        61.24527        -2.16320
H         54.03546        39.48427         0.23655
H         53.97233        63.48989        -2.09640
H         56.08079        38.21439        -0.04808
H         56.06167        64.73423        -1.98292
H         59.91356        36.16615        -0.87181
H         57.92320        37.25389        -0.02631
H         59.78906        66.92430        -1.28739
H         57.69238        65.72592        -1.63227
H         61.47440        35.43623        -0.26444
H         61.29107        67.66493        -0.12618
H         63.49506        34.16274         0.05747
H         63.30120        68.74640         0.70531
H         67.38678        31.74516        -0.37777
H         65.37507        32.94454        -1.08514
H         67.02201        70.73343         1.82607
H         64.94901        69.71345         0.95342
H         68.41571        31.04902         1.24805
H         69.22371        71.31235         4.15550
H         72.31454        31.14580         3.09654
H         70.15856        29.97586         2.61131
H         72.81943        33.33054         2.11777
H         72.52656        35.26161         2.43783
H         72.49515        37.70266         2.47908
H         72.24775        39.65582         2.66721
H         72.26378        42.08521         2.59884
H         72.71013        43.99171         1.96611
H         72.87010        46.40152         1.58382
H         73.01298        48.28504         1.13675
H         73.04680        50.69356         1.02791
H         73.09689        52.66712         0.63666
H         73.04396        55.12223         0.50850
H         72.73763        57.07499         1.03591
H         72.69730        59.52844         0.75668
H         73.24311        61.24149        -0.68677
H         72.97015        63.28852         0.58311
H         72.63007        64.49855         2.08783
H         72.29370        66.46000         3.51841
H         71.04438        66.80446         5.31123
H         70.90408        68.56496         7.05025
H         70.01281        70.82953         6.49028
