         576
 CSIRO Nanostructure Databank - Neutral Graphene Oxide Data Set
C          5.78601        19.06181        -0.48754
C          5.77829        20.41176        -0.26922
C          4.56457        21.21296        -0.19582
C          5.75364        23.38854        -0.22200
C          4.55151        22.58195        -0.20185
C          5.79189        24.76462        -0.26924
C          8.42050        14.71864        -0.68149
C          8.32030        16.15138        -0.53482
C          7.10779        16.84372        -0.75044
C          8.29602        18.95761        -0.19527
C          7.06501        18.34369        -0.89205
C          8.34297        20.45783        -0.30891
C          7.05273        21.15454        -0.09700
C          8.27729        23.37160        -0.44615
C          7.02698        22.64830        -0.08227
C          8.30853        24.83244        -0.29921
C          7.02809        25.53199        -0.23513
C          8.26191        27.66937        -0.06623
C          7.03008        26.91068        -0.12075
C          8.27384        28.99633         0.24753
C         10.91435        10.61089        -1.45876
C         10.80830        11.99008        -1.65410
C          9.64665        12.70772        -1.24601
C         10.85956        14.67759        -0.19014
C          9.64535        14.03594        -0.73099
C         10.71358        16.12472         0.29145
C          9.53794        16.83981        -0.29791
C         10.81082        19.02216        -0.16648
C          9.59694        18.28918        -0.67325
C         10.78421        20.39106        -0.07294
C          9.53542        21.12432        -0.22976
C         10.78067        23.37993        -0.12374
C          9.57453        22.60100        -0.40602
C         10.77597        24.76577        -0.22531
C          9.52282        25.49064        -0.32890
C         10.81377        27.66033        -0.09827
C          9.53288        26.98579        -0.52962
C         10.81116        29.05781         0.16178
C          9.53605        29.74554         0.58700
C         10.72270        31.95110         0.38645
C          9.53367        31.21249         0.26100
C         10.73449        33.35546         0.46543
C         13.71809         6.76797        -2.54771
C         13.42428         7.66736        -1.32893
C         12.24126         8.57150        -1.56874
C         13.35912        10.63299        -0.73743
C         12.17961         9.91176        -1.26417
C         13.33859        11.85381        -0.08739
C         12.07013        12.50826         0.38798
C         13.19726        14.67441         0.83120
C         11.98849        14.00321         0.18873
C         13.22773        16.19658         0.68287
C         12.00965        16.90532         0.20367
C         13.30203        19.02703        -0.04492
C         12.02629        18.26633         0.03956
C         13.29525        20.47695         0.17857
C         11.99994        21.14037         0.32495
C         13.28035        23.36954         0.19897
C         11.99221        22.66989         0.31050
C         13.25918        24.80156         0.02729
C         12.03566        25.49796        -0.12556
C         13.29907        27.67301        -0.36287
C         12.00938        26.92987        -0.14379
C         13.27285        29.11920         0.07044
C         12.00812        29.79780         0.25166
C         13.20308        31.95012         0.44690
C         11.99809        31.22205         0.43604
C         13.21948        33.36272         0.50478
C         11.96833        34.06953         0.94691
C         13.20337        36.21887         0.52430
C         12.01518        35.55031         0.70947
C         13.27268        37.66583         0.59494
C         16.04422         6.06245        -1.97702
C         14.84262         6.05362        -2.81337
C         15.80828         7.81971        -0.72159
C         14.65379         8.48497        -0.98138
C         15.87103        10.55764        -0.40941
C         14.67332         9.99235        -1.12609
C         15.86527        11.91676         0.24051
C         14.54542        12.64958         0.14606
C         15.79189        14.72919         0.62482
C         14.51949        14.00105         0.42368
C         15.82177        16.17657         0.78405
C         14.54042        16.91163         0.69764
C         15.81500        19.09444         0.45732
C         14.60582        18.30853         0.17311
C         15.76128        20.48076         0.37757
C         14.48564        21.19440         0.29561
C         15.77316        23.35624         0.14711
C         14.46224        22.64069         0.31113
C         15.72093        24.83688         0.43245
C         14.51235        25.53051         0.17781
C         15.72481        27.65197         0.27448
C         14.52081        26.94196         0.12213
C         15.73590        29.10991         0.15814
C         14.46277        29.79493         0.16746
C         15.68376        31.93984        -0.09603
C         14.52227        31.24121         0.57091
C         15.54309        33.36024        -0.39027
C         14.39193        34.08254         0.19262
C         15.67200        36.19502         0.05469
C         14.43314        35.49386         0.24241
C         15.71806        37.61685         0.38398
C         14.46884        38.31478         0.58236
C         18.47309         6.50150        -1.52502
C         17.35780         5.96740        -2.33723
C         18.32048         7.77450        -0.82537
C         17.10947         8.43618        -0.63589
C         18.30988        10.54385        -0.06347
C         17.03303         9.84940        -0.32751
C         18.37341        12.01866        -0.00776
C         17.06214        12.77575        -0.20350
C         18.23432        14.69868         1.15404
C         17.00789        14.08239         0.53183
C         18.28356        16.18929         0.92127
C         17.01839        16.88975         0.79016
C         18.25299        19.02463         0.72314
C         17.05286        18.35508         0.69038
C         18.29501        20.50462         0.45219
C         16.97963        21.23609         0.61835
C         18.10895        23.34802         1.22767
C         16.93557        22.59814         0.74372
C         18.15577        24.84427         1.06525
C         16.92096        25.55315         0.61162
C         18.22745        27.68462         0.30438
C         16.92506        26.95693         0.52863
C         18.18582        29.19522         0.62091
C         16.90912        29.83850         0.16733
C         18.14907        31.93568        -0.40315
C         16.91829        31.27037        -0.12016
C         18.09137        33.30694        -1.08735
C         16.82124        34.13987        -0.78264
C         18.12277        36.28650        -0.32311
C         16.84960        35.54369        -0.35069
C         18.17886        37.62204         0.32634
C         16.92771        38.27570         0.54343
C         20.92928         6.44775        -0.99669
C         19.72972         5.92349        -1.62101
C         20.90446         7.85965        -0.53836
C         19.56255         8.51708        -0.46582
C         20.67169        10.42307         0.78546
C         19.38766         9.67646         0.51463
C         20.78840        11.81589         0.69541
C         19.58720        12.63920         0.56446
C         20.74614        14.72246         1.08925
C         19.55082        14.00285         0.86662
C         20.74279        16.14417         1.18185
C         19.48875        16.84635         0.97585
C         20.74590        19.01961         1.26763
C         19.57656        18.30327         0.62634
C         20.68673        20.46400         1.31186
C         19.46328        21.16565         1.11420
C         20.67876        23.39068         1.32496
C         19.38553        22.59334         1.41611
C         20.66137        24.83024         0.97987
C         19.47099        25.51861         0.92936
C         20.66084        27.65515         0.29034
C         19.45882        27.03371         0.96785
C         20.74502        29.18401         0.33532
C         19.42149        29.88008         0.08239
C         20.68968        31.88310        -0.57649
C         19.39410        31.20389        -0.33966
C         20.68629        33.35961        -0.74053
C         19.40920        34.10088        -0.93724
C         20.62009        36.07631         0.23171
C         19.40917        35.57329        -0.59259
C         20.65968        37.58903         0.35727
C         19.39726        38.24908         0.54385
C         23.27911         6.22075        -0.17288
C         22.06567         5.70104        -0.84649
C         23.26100         7.61969         0.44197
C         21.96630         8.36161         0.37914
C         23.61958        10.65200         0.05290
C         21.75032         9.49864         1.13223
C         23.32182        11.91525         0.78493
C         22.07029        12.51282         0.85820
C         23.26264        14.75427         1.33596
C         22.02238        13.99568         0.97695
C         23.14514        16.15726         1.82541
C         21.92219        16.88725         1.44525
C         23.19693        19.01295         1.79916
C         21.93493        18.31742         1.52344
C         23.19608        20.53229         1.83108
C         21.89514        21.16844         1.41850
C         23.16433        23.31456         0.79177
C         21.88941        22.58714         1.03264
C         23.14239        24.79242         0.70133
C         21.95082        25.46767         0.68864
C         23.19960        27.62191         0.10900
C         21.92314        26.87290         0.20522
C         23.17068        29.02449        -0.17261
C         21.86793        29.69268        -0.58501
C         23.21858        31.92134        -0.56831
C         21.87658        31.21286        -0.59154
C         23.15155        33.40659        -0.98989
C         21.94576        34.11418        -0.48819
C         23.13399        36.25562        -0.19299
C         21.92159        35.47060        -0.26034
C         23.14290        37.60768         0.28125
C         21.86335        38.25572         0.48829
C         25.73423         6.21535         0.01587
C         24.58889         5.65259        -0.49329
C         25.73595         7.55595         0.55201
C         24.56830         8.32420         0.55300
C         25.80102        10.39880         1.17356
C         24.67317         9.77132         0.65879
C         25.83595        11.83503         1.39334
C         24.51396        12.53344         1.42922
C         25.72989        14.76123         1.90249
C         24.47370        13.99565         1.76149
C         25.72106        16.12366         2.04323
C         24.43858        16.89265         2.11864
C         25.68164        19.18338         2.20906
C         24.40200        18.36859         1.97328
C         25.70859        20.46936         1.40959
C         24.38732        21.07238         0.98537
C         25.71170        23.31081         0.88332
C         24.43360        22.59225         1.08040
C         25.70302        24.76064         0.53984
C         24.39982        25.42834         0.12969
C         25.63542        27.71451         0.54682
C         24.38600        26.92489         0.28906
C         25.63297        28.98027        -0.28825
C         24.40004        29.68523        -0.45116
C         25.59983        31.49608        -1.45516
C         24.36775        31.00585        -1.01057
C         25.69165        33.70854        -1.31532
C         24.36881        34.30690        -1.13546
C         25.58179        36.21047        -0.10417
C         24.36038        35.64020        -0.51417
C         25.62254        37.56509         0.33845
C         24.38002        38.25614         0.46900
C         28.30605         6.10132         0.35814
C         27.00720         5.45219        -0.03164
C         28.29729         7.52579         0.76618
C         26.98397         8.14209         1.09941
C         28.29907        10.27570         1.90799
C         26.96906         9.58597         1.56634
C         28.28401        11.80439         1.83234
C         26.99175        12.49429         1.79126
C         28.26429        14.69606         2.25785
C         26.95664        13.94677         2.13148
C         28.26062        16.13258         1.90307
C         27.00106        16.86638         2.17862
C         28.20402        19.02222         1.51714
C         26.99825        18.37636         2.11011
C         28.14390        20.36643         1.12467
C         26.89532        21.08839         1.09552
C         28.20345        23.22933         0.63837
C         26.89818        22.47450         0.44929
C         28.19976        24.75407         0.87780
C         26.87775        25.42867         0.54047
C         28.16763        27.54620        -0.09786
C         26.92921        26.90973         0.44377
C         28.13455        28.95709        -0.52836
C         26.84753        29.61082        -0.59030
C         28.03553        31.73888        -0.81359
C         26.82318        30.92971        -1.09052
C         28.02972        33.20918        -0.53912
C         26.80881        34.06083        -0.64267
C         28.12228        36.01510         0.34148
C         26.79057        35.37060         0.03833
C         28.13424        37.49847         0.37111
C         26.91064        38.18598         0.49808
C         30.70610         6.29946        -0.27342
C         29.54332         5.57556        -0.23134
C         30.72562         7.64135         0.33199
C         29.45535         8.26084         0.71068
C         30.74940        10.44344         1.20043
C         29.45626         9.70998         1.07338
C         30.79778        11.68126         2.08964
C         29.48347        12.46528         1.93565
C         30.72367        14.66045         1.66177
C         29.57625        13.93063         2.31036
C         30.67207        16.05387         1.40107
C         29.41151        16.80768         1.52183
C         30.58609        18.92860         0.90663
C         29.38509        18.23734         1.28426
C         30.59742        20.29815         0.68779
C         29.31237        21.02122         0.41701
C         30.67144        23.23643         0.56919
C         29.36576        22.52967         0.62660
C         30.63973        24.72281         0.23116
C         29.36764        25.39772         0.14490
C         30.57430        27.45048        -0.72797
C         29.26807        26.67192        -0.65958
C         30.56768        28.87769        -0.93383
C         29.30309        29.60729        -0.88382
C         30.48155        31.78282        -1.17299
C         29.32296        31.05068        -1.03307
C         30.46999        33.22030        -0.94278
C         29.33355        33.90504        -0.57254
C         30.61574        36.05289        -0.22765
C         29.43370        35.22230         0.18993
C         30.60079        37.46417        -0.01114
C         29.38831        38.15048         0.26580
C         32.96949         6.28875        -1.45959
C         31.77294         5.74198        -1.10522
C         33.51764         7.45669        -0.80688
C         31.90874         8.30308         0.60343
C         33.21507        10.35738         1.00551
C         32.01362         9.69530         0.98493
C         33.38277        11.81105         1.28621
C         32.10848        12.51475         1.85192
C         33.11868        14.78685         1.68070
C         31.96521        13.99168         1.71456
C         33.11604        16.08050         1.12418
C         31.85597        16.72026         1.02110
C         33.12103        18.81123         0.53886
C         31.79001        18.11681         0.48687
C         33.15233        20.26959         0.71873
C         31.87149        21.04298         0.69689
C         33.04633        23.08337        -0.17400
C         31.91084        22.47037         0.27643
C         33.00931        24.46047        -0.74602
C         31.77949        25.28274        -0.56211
C         32.99894        27.39504        -1.10187
C         31.81008        26.75883        -0.76799
C         33.02146        28.85421        -1.48788
C         31.72727        29.57680        -1.23908
C         33.02954        31.74736        -1.15367
C         31.74147        31.05325        -1.60380
C         33.05621        33.22009        -1.19894
C         31.73535        33.98505        -1.07225
C         33.03969        36.07401        -0.63826
C         31.78041        35.39064        -0.62343
C         33.02083        37.48770        -0.40584
C         31.84799        38.16013        -0.14791
C         34.33941         8.40891        -1.35018
C         35.12211        10.77527        -1.21519
C         34.64850         9.63243        -0.64012
C         35.34246        12.02996        -0.49846
C         34.55971        12.49997         0.61947
C         35.86971        14.65829         0.48802
C         34.94063        13.76819         1.07885
C         35.63416        16.08855         0.61067
C         34.35563        16.70281         0.68119
C         35.42423        18.60705        -0.54785
C         34.27576        18.08710         0.28255
C         35.68055        20.51334         0.92498
C         34.41321        20.97451         0.35004
C         35.62137        23.12920        -0.17163
C         34.35722        22.38149        -0.20822
C         35.61343        24.51490        -0.70023
C         34.30610        25.15793        -1.07723
C         35.56275        27.41928        -1.03883
C         34.27382        26.65744        -1.24049
C         35.47582        28.85638        -0.62382
C         34.17837        29.58034        -0.78763
C         35.44578        31.75724        -0.61984
C         34.18432        31.06478        -0.85943
C         35.45557        33.16411        -0.58489
C         34.28815        33.93350        -0.80844
C         34.25187        35.33675        -0.69641
C         36.42290        12.80256        -0.95922
C         37.91463        14.75403        -1.05711
C         36.78867        14.09350        -0.47723
C         38.46886        15.96104        -0.55903
C         36.78982        16.95234         0.43254
C         38.00157        19.05436        -0.46611
C         36.77872        18.20858        -0.11702
C         38.15825        20.29223         0.56159
C         36.87217        21.09434         0.50816
C         38.08526        23.19821         0.08648
C         36.81014        22.44476         0.01527
C         38.07608        24.67782        -0.11869
C         36.81626        25.35087        -0.49833
C         38.03824        27.49107        -0.56349
C         36.81037        26.70775        -0.67224
C         37.97168        28.89107        -0.54411
C         36.74313        29.62322        -0.54307
C         36.66630        31.01473        -0.48718
C         39.28754        16.90919        -1.15583
C         40.51022        18.94591        -0.50594
C         39.33175        18.28053        -0.61848
C         40.67784        20.30845         0.14452
C         39.38454        21.09072         0.18275
C         40.54181        23.20405        -0.40574
C         39.35073        22.43952        -0.05514
C         40.52464        24.58695        -0.54416
C         39.33715        25.38703        -0.43122
C         39.28561        26.76759        -0.57533
C         41.81271        21.10370        -0.44566
C         41.75415        22.43833        -0.64413
O          8.91601        22.94780        -1.69441
O         15.78201         6.41208        -0.62915
O         20.45196         8.79880        -1.58309
O         23.14567        10.40766        -1.04926
O         27.97654        27.43034         1.34950
O         34.55570        29.04657         0.51907
O         25.18846        23.06707         2.23229
O         27.31223        35.42282         1.41380
O         20.25179        33.81153        -2.10393
O         23.57063        16.37563         3.20252
O         20.39535        35.55640         1.52804
O         34.39733         9.65696         0.75061
O         32.59062        20.75998         1.98220
O         23.15770         6.43177         1.29602
O         23.50609        33.96734        -2.28007
O         18.74337        11.29034        -1.25493
O         27.93927        32.25743         0.59831
O         38.07423        24.10862         1.25807
O         14.11312        18.53357        -1.18773
O         27.49111        14.33251         3.45394
O         34.43911        21.21824        -1.09316
O         21.01551        27.01112        -0.96607
O         15.79155        33.82249        -1.75760
O         22.42005        22.74597        -0.34770
O         18.85727        36.37313        -1.64805
O         27.19100        17.69404         3.39631
O         35.08808        27.12149        -2.39479
O         35.10191        24.51532        -2.10509
O         31.99986        24.55780        -1.82322
O         24.21720        13.01353         2.80652
O         38.00776        16.34325         0.73483
O         32.38429        33.79892        -2.36700
O         20.11582        23.02650         2.61281
O         22.92714        14.61702        -0.06560
O         27.59065         5.16919         1.26260
O         13.73393        16.82943         1.93701
O         17.84931        24.22729         2.37916
O         26.71661         8.50380         2.51829
O         35.18795        19.09270        -1.65980
O         30.95672        24.23542         1.61968
O         25.69208        32.65629        -2.22477
O         11.82862        21.91364         1.56412
O         11.22959        11.90666         1.03432
O         29.92591        10.59382        -0.00853
O          7.10079        21.91396         1.18983
O         33.11275         7.59422         0.53107
O         33.19142        12.08662         2.71401
O         34.30139        14.28715         2.21565
O         29.97371        13.87556         3.72440
H         29.13282        13.85837         4.24326
O         18.45502        27.56831        -1.12345
H         17.64026        27.84538        -1.59345
O          9.58281        29.69996         2.07624
H          8.86448        30.27894         2.40973
O         17.96727        32.92170        -2.47535
H         18.87535        32.96928        -2.86649
O         30.87576        11.21931         3.44400
H         30.79546        12.01344         4.02094
O         31.55245        17.97759        -0.98071
H         32.38064        17.64135        -1.38865
O         13.43902        27.70474        -1.83535
H         12.58031        28.00287        -2.20639
O         16.92246        13.09338        -1.60323
H         17.53550        12.49498        -2.09381
O         24.31827        25.18428        -1.31808
H         23.41291        25.41091        -1.62187
O         29.78637        34.78330         1.53804
H         28.94162        34.49876         1.96303
O         18.06032        14.50561         2.60755
H         17.23791        14.97061         2.87238
O         18.91500         9.09139         1.75390
H         18.79111         9.80573         2.41347
O         16.07918        11.68256         1.66748
H         15.26091        11.29149         2.04097
O         19.91444        18.30580        -0.81146
H         19.80312        19.23730        -1.12899
O         11.84098        12.70280        -2.18329
H         12.57105        12.09888        -2.43469
O         21.61682        29.34426        -1.96530
H         21.38133        28.38259        -1.99981
O         35.64455        19.60105         1.92364
H         36.57890        19.41671         2.20749
O         31.72478        31.13297        -3.05995
H         32.35601        30.45056        -3.39698
O         28.87119        26.33813        -2.03238
H         29.61437        25.85790        -2.45710
O         37.80262        19.65101        -1.75227
H         36.83457        19.63981        -1.97806
O         14.84756        31.25306         2.01549
H         14.02269        31.04261         2.50404
O         16.06766        23.32030        -1.30590
H         16.00347        22.38633        -1.60052
O         14.84283        10.30931        -2.55428
H         15.74024        10.01585        -2.82119
O         19.55291        27.35655         2.37147
H         18.79111        26.95667         2.84239
O          9.74618        18.32324        -2.12014
H          8.84415        18.35481        -2.52940
O         26.70128        22.26471        -0.97961
H         27.50301        21.78237        -1.31218
O         21.14650        29.54048         1.68381
H         20.47609        29.15290         2.29821
O          7.15098        18.65064        -2.34239
H          6.46254        18.11829        -2.79453
O         38.33594        19.71822         1.89062
H         38.59558        20.44798         2.49420
O         41.07044        20.01912         1.52992
H         40.41098        19.38020         1.88335
O         28.38555        24.90752         2.31128
H         29.33194        24.70289         2.50673
O         24.16572        20.67961        -0.38591
H         24.83610        21.14417        -0.94003
O         29.06961        20.86047        -1.04651
H         29.26249        19.92467        -1.27626
O          9.54327        27.16317        -1.99662
H          8.81048        26.62325        -2.36339
O         23.50496        32.08216         0.86571
H         23.32428        31.23111         1.32303
O         25.53459        28.17595         1.93073
H         26.46052        28.27916         2.25607
O         28.59736         9.97534         3.28496
H         28.06038         9.18686         3.53898
O         11.94429        33.91848         2.43675
H         11.19346        34.45654         2.76753
O         25.61878        19.63094         3.60004
H         25.97583        18.89192         4.15113
O         18.18457        29.38028         2.07306
H         17.88958        30.29839         2.25512
O         13.04509        14.39559         2.25337
H         13.49485        15.13397         2.73208
O         22.53339         9.81679         2.20005
H         23.13030         9.07001         2.41639
O         33.29134        28.96218        -2.92801
H         34.00573        28.30379        -3.13701
O          8.19494        18.65582         1.21492
H          7.54771        19.26844         1.62364
O         18.54349        20.62926        -1.02224
H         17.79808        20.18026        -1.47845
O         13.08328         6.79332        -0.22519
H         13.89066         6.26313        -0.02992
O         23.34783        20.99294         3.19177
H         24.18666        20.61493         3.56675
O         10.41965        15.97920         1.72106
H         11.11668        15.40356         2.11519
H          4.82823        18.52981        -0.61280
H          3.60493        20.67377        -0.20024
H          3.58301        23.10490        -0.19976
H          4.84749        25.32937        -0.31362
H          7.51954        14.17785        -1.01238
H          6.19956        16.26628        -0.98117
H          6.07794        27.44924         0.00589
H          7.32079        29.49689         0.49073
H          9.99287        10.05973        -1.21955
H          8.69972        12.14814        -1.20410
H          8.56956        31.74553         0.23416
H          9.77916        33.90309         0.43637
H         12.90294         6.69527        -3.28760
H         11.33355         8.09344        -1.97003
H         11.09433        36.12851         0.88930
H         12.33812        38.22592         0.74562
H         14.89354         5.49782        -3.76446
H         14.50574        39.40521         0.72381
H         17.61440         5.58578        -3.33793
H         16.92829        39.32741         0.86870
H         19.82702         4.97032        -2.16410
H         19.39768        39.29878         0.88028
H         22.09556         4.66642        -1.22341
H         21.86092        39.33192         0.72648
H         24.63917         4.69972        -1.04208
H         24.38945        39.30890         0.79012
H         27.03277         4.58799        -0.73392
H         26.94219        39.27810         0.63979
H         29.50348         4.57598        -0.69025
H         29.41948        39.24813         0.35056
H         33.55192         5.81401        -2.26408
H         31.48685         4.81036        -1.62115
H         33.97085        38.04089        -0.43983
H         31.86374        39.24932         0.00477
H         34.64792         8.32650        -2.40144
H         35.44273        10.74041        -2.26690
H         36.40067        33.68504        -0.36774
H         35.19617        35.87527        -0.52192
H         37.04231        12.37211        -1.76069
H         38.34945        14.31328        -1.96703
H         38.91185        29.46186        -0.49778
H         37.59991        31.58969        -0.38495
H         39.86148        16.67113        -2.06475
H         41.44741        18.40136        -0.70767
H         41.46821        25.09861        -0.79084
H         40.21783        27.33561        -0.71730
H         42.75141        20.56276        -0.63975
H         42.63749        22.97889        -1.01776
