         404
 CSIRO Nanostructure Databank - Neutral Graphene Oxide Data Set
C          1.28072         1.96976        -1.11498
C          1.22365         3.36778        -1.01485
C          2.49836         1.30800        -1.11480
C          2.39730         4.13521        -0.88520
C          1.18756         6.32618        -1.03459
C          1.15787         7.71286        -1.04304
C          2.37347         5.58528        -0.78599
C          2.29046         8.48073        -0.67669
C          1.13598        10.68242        -0.94860
C          1.09646        12.02225        -0.78723
C          2.33258         9.89224        -0.67680
C          2.32487        12.76607        -0.30849
C          1.14460        14.98965        -0.08147
C          1.20311        16.32151         0.14254
C          2.29991        14.26001        -0.62730
C          2.44175        17.05961         0.04204
C          2.44460        18.37299         0.61011
C          3.71219         2.04195        -1.00068
C          3.65510         3.46586        -0.85437
C          4.96521         1.39179        -1.04460
C          4.87327         4.20949        -0.73544
C          3.57305         6.28446        -0.47202
C          3.46854         7.73736        -0.18820
C          4.82213         5.63291        -0.47270
C          4.72040         8.51000         0.16082
C          3.57074        10.59147        -0.48223
C          3.56000        12.04746        -0.88446
C          4.76635         9.95459        -0.15790
C          4.83594        12.78919        -0.59162
C          3.59982        15.02148        -0.86522
C          3.63548        16.46705        -0.42719
C          4.84218        14.17132        -0.84683
C          4.83770        17.24143        -0.26569
C          3.61119        19.04043         0.87909
C          4.85720        18.46184         0.49101
C          6.16926         2.12842        -0.99933
C          6.10685         3.55142        -0.84789
C          7.42981         1.47634        -1.08168
C          7.35486         4.36540        -1.03369
C          6.05734         6.33562        -0.19288
C          6.00530         7.74218         0.27672
C          7.29076         5.72485        -0.38588
C          7.28226         8.53382         0.29690
C          6.03274        10.66693        -0.14440
C          6.05628        12.09531        -0.38300
C          7.24621        10.00115         0.08787
C          7.29824        12.80735        -0.36047
C          6.09568        14.73411        -1.14373
C          6.09641        16.85201        -0.80584
C          7.31903        14.17408        -0.75888
C          7.32726        17.26926        -0.31500
C          6.09016        19.07686         0.79703
C          7.32826        18.47497         0.47070
C          8.65205         2.18815        -0.93928
C          8.62877         3.60862        -0.76842
C          9.89621         1.51445        -0.94842
C          9.82514         4.32099        -0.56598
C          8.53860         6.43253        -0.21020
C          8.54247         7.82368         0.02646
C          9.78839         5.74651        -0.33891
C          9.75013         8.55564         0.10898
C          8.49343        10.70079         0.09145
C          8.53091        12.11560        -0.09826
C          9.72432         9.98934         0.21662
C          9.77506        12.80501        -0.11510
C          8.57069        14.96294        -0.84354
C          8.58315        16.53686        -0.61629
C          9.84317        14.20632        -0.58823
C          9.83765        17.13919        -0.11242
C          8.56641        19.10794         0.73035
C          9.79624        18.49200         0.40074
C         11.11295         2.21982        -0.81404
C         11.07988         3.64017        -0.60085
C         12.36520         1.55844        -0.88298
C         12.30040         4.36577        -0.45462
C         11.00608         6.45492        -0.16212
C         10.98849         7.86350         0.05768
C         12.26265         5.77242        -0.21307
C         12.20400         8.57494         0.30559
C         10.94325        10.70076         0.40219
C         10.96574        12.14062         0.27483
C         12.14487         9.96711         0.57981
C         12.19304        12.86557         0.46335
C         11.13514        14.98172        -0.33643
C         11.05625        16.44500        -0.09402
C         12.28038        14.25158         0.25127
C         12.25913        17.11719         0.27967
C         11.00662        19.19241         0.59554
C         12.24976        18.54387         0.46959
C         13.57936         2.26497        -0.76318
C         13.55089         3.68948        -0.54748
C         14.82903         1.59774        -0.83735
C         14.76934         4.42192        -0.43160
C         13.48026         6.49487        -0.02369
C         13.45383         7.89640         0.28529
C         14.71707         5.81582        -0.17609
C         14.66903         8.61030         0.61963
C         13.34035        10.62919         1.09826
C         13.35056        12.18053         1.05923
C         14.61772         9.92911         1.08449
C         14.67664        12.84332         1.08516
C         13.48021        14.97225         0.53485
C         13.48218        16.40534         0.46142
C         14.68364        14.28987         0.89039
C         14.69896        17.12676         0.62388
C         13.47412        19.25111         0.57303
C         14.70541        18.57207         0.57534
C         16.04536         2.29135        -0.68842
C         16.02977         3.71869        -0.49327
C         17.29305         1.60659        -0.70872
C         17.25183         4.38959        -0.28324
C         15.95364         6.60645        -0.10513
C         15.93128         7.93889         0.50633
C         17.27711         5.85575        -0.16209
C         17.14504         8.58490         0.85456
C         15.83299        10.62831         1.64980
C         15.81736        12.13041         1.37488
C         17.14467         9.96140         1.25040
C         17.07465        12.85211         1.67362
C         15.87006        15.02399         1.06340
C         15.91223        16.42983         0.84401
C         17.08847        14.34096         1.52157
C         17.16972        17.13672         0.78188
C         15.94308        19.26281         0.57371
C         17.17198        18.57284         0.60374
C         18.50544         2.27145        -0.48631
C         18.48446         3.69348        -0.24054
C         19.75342         1.56609        -0.45736
C         19.68937         4.38836         0.09641
C         18.44711         6.49295         0.45806
C         18.37590         7.82860         0.86748
C         19.64681         5.71445         0.53287
C         19.58376         8.50898         1.37211
C         18.38456        10.65564         1.39603
C         18.39749        12.12197         1.67495
C         19.59811         9.97508         1.34254
C         19.62709        12.88487         1.31252
C         18.41286        15.04256         1.26646
C         18.38463        16.44141         0.80354
C         19.61753        14.22276         1.05443
C         19.62691        17.10803         0.58673
C         18.41196        19.24991         0.50963
C         19.63370        18.54929         0.47914
C         20.97008         2.21034        -0.24174
C         21.01594         3.72147        -0.20160
C         22.20275         1.52080        -0.22407
C         22.19996         4.23269         0.58006
C         20.83066         6.28924         1.21785
C         20.87746         7.76328         1.49673
C         22.10619         5.52879         1.28476
C         22.16736         8.47357         1.25807
C         20.90625        10.64915         1.46041
C         20.92017        12.15168         1.30753
C         22.14981         9.90671         1.13150
C         22.13490        12.80509         0.77733
C         20.76449        14.87273         0.30897
C         20.82668        16.37338         0.48159
C         22.09584        14.17266         0.47029
C         22.05211        17.04050         0.25040
C         20.87856        19.20999         0.33189
C         22.07727        18.49267         0.21106
C         23.42803         2.16652         0.07209
C         23.38294         3.54513         0.56974
C         24.65318         1.48704        -0.02964
C         24.61683         4.21097         0.99388
C         23.37317         6.29397         1.67736
C         23.35788         7.74572         1.20404
C         24.63041         5.54805         1.29284
C         24.59509         8.40760         0.91285
C         23.30722        10.60931         0.78944
C         23.33485        12.04547         0.63231
C         24.51551         9.81725         0.46733
C         24.54599        12.73500         0.29603
C         23.28433        14.87615         0.13128
C         23.23668        16.29651        -0.00855
C         24.53603        14.15132         0.06810
C         24.42628        17.02871        -0.44855
C         23.31522        19.17640         0.03727
C         24.49742        18.49278        -0.25244
C         25.88965         2.07324         0.35073
C         25.86114         3.40242         1.00435
C         27.11029         1.41928         0.19252
C         27.18230         4.11098         1.22951
C         25.87926         6.33660         1.43548
C         25.83443         7.76052         1.00381
C         27.19189         5.60197         1.38069
C         27.07835         8.45000         0.75188
C         25.81193        10.55314         0.19979
C         25.79359        12.03847         0.20810
C         27.07971         9.82936         0.42413
C         26.98843        12.72930         0.01146
C         25.75574        14.82818        -0.19672
C         25.74311        16.25740        -0.55204
C         27.00192        14.15035        -0.17626
C         26.99489        17.01995        -0.47948
C         25.74297        19.14968        -0.37407
C         26.97042        18.46243        -0.48281
C         28.37834         2.05939         0.42250
C         28.41165         3.44599         0.77330
C         29.59747         1.39308         0.20108
C         29.62031         4.17051         0.74622
C         28.40063         6.33267         0.95390
C         28.33953         7.74167         0.79157
C         29.60680         5.61629         0.80360
C         29.56568         8.45256         0.58497
C         28.29563        10.53013         0.20169
C         28.23216        11.95755        -0.21887
C         29.52125         9.85885         0.30084
C         29.50837        12.74363        -0.42200
C         28.23371        14.88751        -0.36122
C         28.19934        16.31185        -0.46128
C         29.50051        14.21450        -0.29845
C         29.45454        17.06823        -0.62215
C         28.20082        19.18932        -0.47520
C         29.44082        18.54628        -0.50447
C         30.85212         2.04531         0.38726
C         30.85841         3.47565         0.63326
C         32.06102         1.34922         0.23360
C         32.07712         4.20290         0.69254
C         30.83687         6.32795         0.65278
C         30.79824         7.73813         0.60301
C         32.08649         5.61128         0.63793
C         32.08047         8.45864         0.64469
C         30.78712        10.56289         0.01823
C         30.82175        12.04554        -0.28679
C         32.05738         9.95720         0.48367
C         32.03577        12.81381         0.05982
C         30.71818        14.89186        -0.16482
C         30.75282        16.34216        -0.42395
C         31.98017        14.22802         0.07631
C         31.92291        17.14743         0.09175
C         30.67920        19.22826        -0.56076
C         31.92452        18.55685        -0.45896
C         33.32824         1.95336         0.63057
C         33.33377         3.45283         0.88522
C         34.62727         1.26587         0.40308
C         34.67088         4.19203         0.87218
C         33.34022         6.33087         0.45437
C         33.31437         7.73334         0.35122
C         34.57979         5.62958         0.39056
C         34.47642         8.46432        -0.17553
C         33.27656        10.69708         0.13248
C         33.26409        12.08654         0.11509
C         34.50368         9.96393        -0.18336
C         34.53361        12.80578         0.38676
C         33.19435        15.00118         0.15774
C         33.22332        16.39008        -0.03962
C         34.46673        14.31196         0.47453
C         34.44111        17.09604        -0.26281
C         33.13886        19.18128        -0.71859
C         34.39494        18.48999        -0.64279
C         35.79451         1.95091         0.22448
C         35.72173         3.45229         0.00280
C         37.07565         1.27405         0.10723
C         37.04341         4.16482         0.22844
C         35.79796         6.29855         0.09150
C         35.79129         7.72956        -0.29034
C         37.01250         5.61946        -0.01821
C         37.06080         8.49961        -0.17958
C         35.83578        10.68708        -0.12139
C         35.84998        12.13560         0.22151
C         37.05782         9.87624        -0.00486
C         37.02799        12.82806         0.26623
C         35.74989        15.07860         0.37962
C         35.70571        16.43715        -0.18652
C         37.06563        14.31532         0.32976
C         36.90194        17.06702        -0.57437
C         35.58613        19.12839        -0.99240
C         36.83272        18.44009        -1.01524
C         38.28333         1.93251         0.03996
C         38.32639         3.40869         0.16030
C         39.56887         1.26907         0.01872
C         39.58843         4.11832        -0.10210
C         38.23384         6.32609        -0.41978
C         38.30049         7.77819        -0.24972
C         39.58488         5.54309        -0.43779
C         39.54898         8.45080        -0.30614
C         38.33456        10.57822         0.19421
C         38.33063        12.10011         0.26893
C         39.57423         9.88058        -0.18939
C         39.55461        12.79591        -0.16278
C         38.24386        15.00675        -0.23201
C         38.17056        16.35277        -0.60715
C         39.52817        14.27180        -0.24492
C         39.33380        17.02812        -1.16517
C         37.98597        19.07782        -1.48805
C         39.21897        18.38468        -1.60656
C         40.74189         1.96948         0.06176
C         40.78612         3.42079        -0.01731
C         42.01419         4.16046        -0.06129
C         40.83281         6.30324        -0.32241
C         40.79777         7.72938        -0.39735
C         42.02266         5.54113        -0.14114
C         41.99309         8.50668        -0.48037
C         40.75699        10.61738        -0.35134
C         40.71805        12.08211        -0.43360
C         41.97415         9.88277        -0.50236
C         41.83824        12.77695        -1.04048
C         40.75784        14.98301        -0.81847
C         40.57673        16.36241        -1.34113
C         41.82812        14.10660        -1.31233
C         41.64973        17.02936        -1.94849
C         40.33467        19.03758        -2.19150
C         41.53078        18.36244        -2.36694
O         35.13102        10.48981        -1.40676
O         17.71711        12.43557         2.93772
O         38.47861        11.28687         1.48706
O         34.95887         7.94489        -1.47178
O         38.81570         5.82299        -1.67104
O          3.77838         8.12135         1.21204
O         10.81015        14.44948        -1.66270
O         26.66087         6.09072         2.65442
O         40.54271        14.89939         0.62390
O         37.72825         3.82893         1.47734
O          2.68868        14.67566        -1.97651
O          8.67577        15.90927        -1.92743
O          6.66732         8.03176         1.55167
O         36.58377        14.94241         1.56965
O         26.52160         3.39806         2.31734
O         34.40047        13.49931         1.68566
O         21.10278        11.52063         2.63025
O         16.76245         6.55446        -1.34693
O         13.06248        11.45489         2.28467
O         28.75124        12.24151        -1.56656
O         33.25113         2.53179         2.02008
O         17.80762        14.97809         2.61099
O         21.15697         5.47386         2.41644
O         32.11382         9.39566         1.82900
O         24.93911        16.57320        -1.74564
O         25.00752        10.00760        -0.90952
O          6.07835        15.93156        -1.85650
O         30.29526        16.65029        -1.77119
O         20.13174         8.07540         2.71172
O         30.99461        11.04897        -1.34855
O         15.76518        10.48387         3.10577
H         16.46909        11.07171         3.47770
O         20.40426        14.66821        -1.11282
H         21.10292        15.09385        -1.65571
O         31.68122        17.26789         1.53236
H         32.46528        17.69630         1.93636
O         35.14736         4.26451         2.22557
H         34.75434         3.50303         2.71349
O         21.29690         4.13230        -1.59701
H         20.60597         3.72745        -2.16438
O         35.31288         3.65572        -1.37105
H         35.98933         3.27000        -1.96553
O          7.40633         4.65623        -2.49717
H          7.42833         3.79015        -2.95869
O         23.42831         6.37697         3.12161
H         22.51859         6.18192         3.45555
O          2.36777        12.70048         1.13892
H          2.33387        11.75572         1.40126
O          3.43498        12.05285        -2.33441
H          3.26175        12.98843        -2.60760
H          0.34617         1.39823        -1.20272
H          0.23982         3.85574        -1.02398
H          2.53859         0.21361        -1.21044
H          0.26836         5.79013        -1.30690
H          0.22660         8.21330        -1.34075
H          0.22015        10.15738        -1.25491
H          0.15855        12.57106        -0.95785
H          0.23806        14.42190         0.17214
H          0.32650        16.85090         0.54449
H          1.48069        18.80501         0.91666
H          5.00384         0.29726        -1.14803
H          3.60110        20.00954         1.39719
H          7.45865         0.38372        -1.20273
H          6.08905        20.03634         1.33396
H          9.91654         0.42340        -1.08588
H          8.57639        20.10627         1.19096
H         12.38899         0.47022        -1.04179
H         10.97327        20.25520         0.87633
H         14.84496         0.50833        -0.99015
H         13.45641        20.34861         0.64211
H         17.29786         0.51918        -0.87650
H         15.94221        20.36106         0.50887
H         19.73913         0.47323        -0.58878
H         18.41887        20.34683         0.42569
H         22.21005         0.43833        -0.42479
H         20.90005        20.30787         0.26592
H         24.65845         0.46018        -0.42606
H         23.33062        20.27360         0.11774
H         27.11604         0.39532        -0.21091
H         25.76261        20.24739        -0.29857
H         29.58854         0.32631        -0.06703
H         28.16104        20.28795        -0.42890
H         32.05172         0.31257        -0.13457
H         30.67723        20.31830        -0.71686
H         34.64049         0.16654         0.47584
H         33.14495        20.22741        -1.06127
H         37.06739         0.17266         0.12542
H         35.56137        20.18224        -1.30737
H         39.58774         0.16905         0.01462
H         37.92700        20.12341        -1.82475
H         41.69815         1.42667         0.09192
H         42.96470         3.61606         0.03099
H         42.98937         6.06147        -0.08902
H         42.96138         7.99383        -0.56052
H         42.92897        10.41853        -0.58786
H         42.68199        12.17882        -1.41060
H         42.63707        14.53556        -1.92046
H         42.61348        16.51806        -2.07475
H         40.23183        20.08322        -2.51464
H         42.39236        18.86845        -2.82345
