         276
 CSIRO Nanostructure Databank - Neutral Graphene Oxide Data Set
C        -11.30398         0.61732         1.39889
C        -10.05525         1.38024         1.35382
C         -8.80263         0.61817         1.65440
C         -7.50292         1.35859         1.45966
C         -6.25901         0.73318         0.92528
C         -5.00814         1.46439         1.09229
C         -3.78505         0.84273         0.76591
C         -2.53009         1.35303         1.43415
C         -1.23906         0.68170         0.97429
C          0.02008         1.33743         1.45937
C          1.35564         0.57411         1.35577
C          2.54229         1.42604         0.90828
C          3.69636         0.79169         0.59482
C          4.93416         1.43590        -0.00652
C          6.16982         0.81427         0.59813
C          7.50041         1.47779         0.71834
C          8.56610         0.67170        -0.09645
C          9.99104         1.31833         0.07169
C         10.85046         0.45539         0.96828
C        -10.01653         2.64744         0.85055
C         -8.71239         3.26597         0.35641
C         -7.60418         2.87665         1.34058
C         -6.27310         3.61093         1.59494
C         -5.03533         2.81445         1.54983
C         -3.79511         3.59380         1.54319
C         -2.51094         2.86701         1.25671
C         -1.23316         3.62280         1.26643
C          0.02386         2.84957         1.59489
C          1.33914         3.60653         1.55824
C          2.58018         2.89014         1.14283
C          3.65045         3.72915         0.43899
C          4.93582         2.97089         0.06776
C          6.27183         3.64517         0.09010
C          7.52840         2.78946        -0.05495
C          8.82261         3.54285         0.17727
C          9.94155         2.80529         0.38477
C         -8.80229         4.67810        -0.19456
C         -7.98404         5.72071         0.15544
C         -6.21128         5.02688         1.24357
C         -5.07541         5.72288         0.80000
C         -3.79233         5.10557         1.22699
C         -2.51156         5.74073         0.82768
C         -1.26316         5.14410         1.49132
C          0.03994         5.64751         0.86073
C          1.30357         5.14911         1.55173
C          2.59899         5.86100         1.05757
C          3.90953         5.05294         1.21059
C          5.18356         5.82208         0.78264
C          6.48880         5.02063         0.72065
C          7.61358         5.66965        -0.08726
C          8.77577         4.96992        -0.15494
C         -7.56337         6.83233        -0.64537
C         -6.30013         7.44343        -0.58117
C         -5.11366         6.93718         0.07114
C         -3.80427         7.72232        -0.04091
C         -2.53022         6.89693         0.12157
C         -1.23228         7.66963        -0.12439
C          0.02240         6.78464        -0.10114
C          1.32051         7.35020        -0.71086
C          2.56004         7.04568         0.13982
C          3.84167         7.58355        -0.44284
C          5.14111         7.20533         0.21212
C          6.44592         7.89991        -0.23882
C          7.35924         6.89185        -0.94894
C         -6.17247         8.63428        -1.41486
C         -4.98386         9.20039        -1.72746
C         -3.73447         8.63949        -1.25167
C         -2.56902         9.03146        -1.81947
C         -1.23683         8.39505        -1.54129
C         -0.07912         9.43079        -1.53467
C          1.26116         8.80434        -1.15340
C          2.41177         9.46425        -1.41294
C          3.75154         8.84989        -1.23727
C          4.99115         9.65141        -1.37570
C          6.19479         9.17465        -1.01952
C        -11.33501        -0.72604         1.19007
C        -10.11257        -1.51052         0.99830
C         -8.93347        -0.90249         1.70326
C         -7.51059        -1.15183        -0.18167
C         -6.27748        -0.51290         0.36365
C         -5.04376        -1.14033        -0.16289
C         -3.74786        -0.36705        -0.04237
C         -2.44895        -1.09163        -0.27970
C         -1.23129        -0.53569         0.36095
C         -0.03756        -1.45987         0.48673
C          1.27083        -0.70536         0.52992
C          2.41347        -1.29199         0.09361
C          3.68034        -0.68230         0.54209
C          4.95213        -1.42339         0.60547
C          6.17032        -0.60265         1.05590
C          7.41860        -1.36918         0.70187
C          8.53544        -0.82670         0.16010
C          9.87049        -1.57247        -0.11482
C         10.82742        -0.88392         0.86312
C        -10.09357        -2.64710         0.24801
C         -8.88572        -3.37988        -0.32378
C         -7.57275        -2.63973        -0.05160
C         -6.26877        -3.37949        -0.15099
C         -4.90859        -2.65951        -0.07128
C         -3.78907        -3.23557        -0.93799
C         -2.46007        -2.49881        -0.83091
C         -1.21117        -3.31014        -0.74103
C         -0.03528        -2.71811        -0.37374
C          1.25924        -3.52164        -0.32088
C          2.49532        -2.63335        -0.53681
C          3.83999        -3.30535        -0.69902
C          5.18520        -2.65456        -0.28530
C          6.22840        -3.54005         0.42489
C          7.25357        -2.80679         0.95650
C          9.13379        -3.93263         0.68091
C          9.88645        -3.09938        -0.06481
C         -8.71330        -4.81343         0.14507
C         -7.53395        -5.51361        -0.11318
C         -6.36069        -4.77393        -0.75499
C         -4.99701        -5.50632        -0.57719
C         -3.83728        -4.71349        -1.20929
C         -2.53154        -5.45927        -1.56406
C         -1.29863        -4.79006        -0.93297
C         -0.01673        -5.54350        -1.05157
C          1.24207        -4.70698        -1.30542
C          2.53887        -5.51871        -1.23057
C          3.85208        -4.79231        -0.93403
C          5.07689        -5.59655        -0.49074
C          6.47467        -4.94829        -0.15662
C          7.61329        -5.87457         0.39392
C          8.87791        -5.37244         0.54515
C         -7.40248        -6.89162         0.12159
C         -6.32758        -7.65997        -0.50611
C         -5.11963        -6.94892        -1.05718
C         -3.85334        -7.74377        -1.43058
C         -2.55732        -6.96054        -1.25438
C         -1.39537        -7.66000        -1.21190
C         -0.08159        -6.99324        -1.42038
C          1.18797        -7.78198        -1.27955
C          2.50303        -7.03869        -1.16619
C          3.60753        -7.67389        -0.39837
C          4.65236        -6.90967         0.02101
C          6.44285        -8.07367         0.55174
C          7.54127        -7.33968         0.23810
C         -6.21790        -9.10450        -0.22826
C         -5.02437        -9.73430        -0.27331
C         -3.79373        -9.09640        -0.72455
C         -2.61750        -9.76177        -0.65964
C         -1.36704        -9.17995        -1.25829
C         -0.09921        -9.78088        -0.68092
C          1.10329        -9.17599        -0.77696
C          2.40269        -9.90990        -0.52363
C          3.49302        -9.08483         0.19574
C          4.80893        -9.87038         0.07951
C          6.08763        -9.44810         0.22845
O          5.49070         3.61876        -1.13424
O         -6.20327        -7.22734        -1.98272
O         -0.09778         5.39620        -0.57086
O         -0.13560         1.99756         2.76510
O         -6.92052        -3.20245         1.13082
O          5.19387         7.01259         1.65632
O          0.58359        -7.51479        -2.60804
O         -4.20966        -3.73599        -2.23005
O          2.76423        -6.34606        -2.41885
O         -1.86593         3.25811         0.00053
O          8.28951        -3.38188         1.68116
O          2.29690         3.14625         2.55205
O          8.11866         0.92975        -1.46460
O         -7.39915         5.69592         1.45069
O         -0.19191        -2.07512         1.79127
O          2.55281         7.22877         1.57779
O          3.18939        -2.61612        -1.82378
O         -1.13101         8.63099         0.88360
O          4.81431        -5.30318        -1.88837
O         -3.78209         4.61083         2.59177
O         -7.96876         1.01699         2.79460
O         -2.27596        -1.35754        -1.72122
O         -0.69746        -5.43954         0.24292
O         -8.21867        -1.55157         2.44630
O          5.37450        -7.35907         1.14149
O          1.67809         0.26258         2.81837
O         -4.54826        -0.39562        -1.28908
O          3.90956         7.52050        -1.88606
O          7.55277         2.31594        -1.46307
O         -8.31376        -0.50929        -0.84822
O          4.05844        -1.51696         1.74597
O         -7.37216         3.46054         2.59961
O         -8.32644         2.47896        -0.81729
H         -9.11282         2.32627        -1.38261
O         -1.33317         5.39591         2.88775
H         -1.20593         6.35366         3.04883
O         -0.39968        10.51003        -0.67380
H         -0.66236        10.09374         0.19961
O         -4.42500        -2.90223         1.28395
H         -5.17857        -2.73741         1.90168
O          7.19309         8.29195         0.93254
H          6.56875         8.67877         1.58241
O          4.93592         1.03748        -1.40770
H          5.66935         1.53951        -1.84163
O          6.18183        -0.51909         2.52138
H          5.25783        -0.75110         2.81069
O         -1.03078         7.43934        -2.57304
H         -0.09592         7.09698        -2.54519
O          3.12135        -8.99359         1.58522
H          3.81987        -8.46463         2.03242
O          1.12357        -4.18394        -2.63627
H          1.49363        -4.85600        -3.25160
O          6.95525         4.78109         2.05713
H          7.02025         5.64999         2.50708
O          6.69144         6.45030        -2.13085
H          7.19879         5.71725        -2.53484
O         -4.71144        -5.62852         0.83003
H         -4.50900        -4.73368         1.20829
O          5.78557        -2.16406        -1.50775
H          5.05094        -1.91120        -2.11518
O         -6.65605        -4.60201        -2.15654
H         -6.62585        -5.50358        -2.56467
O          1.50929         6.62590        -1.96223
H          1.37976         5.66613        -1.76661
O          1.42302        -4.05484         1.00976
H          0.81147        -3.52122         1.59838
O          4.13861         4.75408         2.59210
H          4.36644         5.60426         3.02824
O         -2.68119         1.05375         2.84044
H         -1.83306         1.30071         3.28471
O          3.01161         4.10591        -0.80830
H          3.72011         4.22178        -1.48629
O         -2.34542        -5.35391        -2.98968
H         -2.86689        -4.58080        -3.30802
O          7.89114         1.62513         2.08178
H          7.41831         0.93595         2.61046
O          7.08125        -4.64026        -1.43430
H          6.52965        -3.96206        -1.89290
O         -3.93057        -8.00975        -2.84806
H         -4.86690        -8.22677        -3.05515
O          1.85378        -1.10736         3.04599
H          0.97813        -1.54066         2.72628
O         10.62737         1.33006        -1.24281
H          9.92965         1.59250        -1.88886
O          2.90850       -10.32215        -1.80571
H          2.89455        -9.54991        -2.40953
O         -3.79786         8.60563         1.12027
H         -2.84130         8.87477         1.24807
O         10.28406        -1.30531        -1.46209
H         10.58950        -0.36669        -1.53518
O         -1.36353        -9.54759        -2.66878
H         -0.70803        -8.95610        -3.10986
O         -9.12680        -3.43552        -1.74912
H         -8.32827        -3.84770        -2.17149
O          1.18596         5.52503         2.93382
H          1.86442         5.01059         3.42676
H         11.47826        -1.49820         1.50430
H         11.53337         0.95139         1.67501
H         10.91521         3.30456         0.50808
H          9.65889         5.41136        -0.64625
H          8.34046         7.37980        -1.21131
H          7.08865         9.79435        -1.19055
H          4.91245        10.63640        -1.86147
H          2.37207        10.49462        -1.79986
H          0.01167         9.84736        -2.57420
H         -2.59993         9.76702        -2.64085
H         -4.94422        10.06257        -2.40998
H         -7.10009         9.05037        -1.83450
H         -8.25471         7.18822        -1.42510
H         -9.30580         4.73902        -1.17252
H        -10.95869         3.15669         0.59420
H        -12.24777         1.18126         1.43906
H        -12.30446        -1.23556         1.07793
H        -11.05284        -2.98135        -0.18353
H         -9.58551        -5.36166         0.53335
H         -8.19601        -7.43394         0.65792
H         -7.11728        -9.63397         0.11870
H         -4.95815       -10.79247         0.02324
H         -2.57817       -10.77476        -0.22739
H         -0.14938       -10.82508        -0.33264
H          2.20488       -10.83739         0.06710
H          4.67464       -10.93120        -0.18831
H          6.90635       -10.16110         0.04057
H          8.44119        -7.84865        -0.13991
H          9.72017        -6.07750         0.64598
H         10.50191        -3.54704        -0.85867
