         470
 CSIRO Nanostructure Databank - Neutral Graphene Oxide Data Set
C         37.74785        49.60189         0.66701
C         36.53521        50.27528         0.73523
C         37.70938        52.34440         1.15007
C         36.51593        51.65552         0.98057
C         40.30479        48.15295         0.84785
C         40.23001        49.53001         0.78168
C         38.97794        50.27580         0.84100
C         40.19351        52.43027         1.27954
C         38.95833        51.68458         1.08602
C         40.25585        53.75224         1.68143
C         42.76302        48.10944         0.71944
C         41.54732        47.45596         0.79389
C         42.78248        49.54367         0.75159
C         41.49641        50.27850         0.67227
C         42.73097        52.40137         1.45126
C         41.47048        51.76102         0.95095
C         42.72138        53.87442         1.63729
C         41.48157        54.47626         1.77500
C         45.22547        45.39918        -0.22460
C         44.08437        46.03327         0.09094
C         45.27618        48.20483         0.43184
C         44.07767        47.35600         0.82795
C         45.23099        49.57188         0.53282
C         43.98110        50.24724         0.79283
C         45.29049        52.39419         1.25990
C         44.01662        51.64730         1.26749
C         45.26905        53.90970         1.28212
C         43.98556        54.56198         1.77912
C         45.30798        56.59583         2.15984
C         44.06995        55.88348         2.16121
C         47.82689        44.04163        -0.85826
C         47.79654        45.39891        -0.55463
C         46.55342        46.02244        -0.02062
C         47.70695        48.26784        -0.42031
C         46.56560        47.49963         0.23685
C         47.73837        49.72629         0.04284
C         46.46987        50.39177         0.44645
C         47.75005        52.47431         1.13239
C         46.48375        51.75168         1.06023
C         47.78743        53.81512         1.46082
C         46.51267        54.45445         1.98621
C         47.78289        56.66840         1.92351
C         46.52012        55.96489         1.98227
C         47.81340        58.06610         2.07564
C         50.25381        44.06155        -1.10866
C         49.03049        43.38907        -1.15925
C         50.25255        45.46175        -0.79830
C         49.01941        46.14548        -0.56916
C         50.24540        48.27112        -0.30152
C         49.03975        47.55715        -0.33880
C         50.27770        49.68025         0.07823
C         49.02447        50.28324         0.56365
C         50.29632        52.45446         0.99124
C         49.02015        51.72167         1.03537
C         50.27268        53.88253         1.23963
C         49.03313        54.54714         1.47996
C         50.23041        56.71395         1.56594
C         49.01379        55.96868         1.67412
C         50.21959        58.13053         1.74281
C         49.00020        58.78017         1.99567
C         52.71320        41.37018        -2.08648
C         51.52228        42.01862        -1.81412
C         52.74346        44.04851        -1.27254
C         51.51066        43.36970        -1.39975
C         52.73607        45.41310        -0.69768
C         51.47692        46.17911        -0.67633
C         52.74443        48.30329        -0.40945
C         51.49643        47.56846        -0.44575
C         52.69096        49.82182        -0.49805
C         51.45533        50.40560         0.16423
C         52.76496        52.44534         0.82033
C         51.46298        51.76562         0.64943
C         52.77693        53.93230         1.10153
C         51.48149        54.63767         1.19489
C         52.69220        56.80917         1.13288
C         51.46828        56.04070         1.30515
C         52.65355        58.20935         1.24200
C         51.45646        58.88273         1.63635
C         52.73248        60.95122         1.99914
C         51.51481        60.23956         1.98347
C         55.30471        40.01963        -2.57963
C         55.17350        41.38748        -2.42797
C         53.94617        42.05458        -2.02840
C         55.23423        44.15064        -1.58049
C         53.96322        43.42290        -1.63262
C         55.27492        45.51364        -1.05938
C         54.03217        46.17145        -0.57088
C         55.20751        48.39390        -0.49683
C         53.96542        47.65448        -0.51739
C         55.23280        49.77693        -0.33352
C         53.98835        50.51218        -0.12894
C         55.30813        52.52219         0.63721
C         54.00181        51.79819         0.33449
C         55.21367        54.04646         0.56240
C         54.00560        54.71626         0.81202
C         55.15381        56.90546         0.71493
C         53.93724        56.13527         0.86023
C         55.13243        58.30254         0.82671
C         53.83638        59.05088         0.84004
C         55.16653        61.12198         1.57479
C         53.90462        60.40360         1.51672
C         55.18421        62.55253         1.82609
C         57.72233        40.12625        -3.06186
C         56.56745        39.40720        -2.81333
C         57.60975        41.58660        -3.24876
C         56.31408        42.24894        -2.77181
C         57.69982        44.20161        -1.92902
C         56.37642        43.58212        -2.13316
C         57.72619        45.58613        -1.33269
C         56.44173        46.23433        -1.02512
C         57.78214        48.38010        -0.42915
C         56.46683        47.62226        -0.50156
C         57.69583        49.85548        -0.39199
C         56.48735        50.50022        -0.29850
C         57.70708        52.72631        -0.13024
C         56.39147        52.01184        -0.32332
C         57.68554        54.11636         0.09188
C         56.41318        54.80645         0.36492
C         57.63862        57.00471         0.18890
C         56.38392        56.19961         0.46771
C         57.62523        58.35219         0.93712
C         56.36185        59.13693         0.56963
C         57.64422        61.15438         1.43645
C         56.35309        60.47800         1.26526
C         57.64320        62.66043         1.70341
C         56.31960        63.29411         1.76826
C         60.25095        37.58387        -1.93246
C         59.17296        38.38793        -1.94828
C         60.13353        39.77681        -3.69782
C         59.03286        39.45602        -2.93793
C         59.97060        41.99797        -3.95463
C         58.84051        42.41994        -3.25126
C         60.13387        44.38605        -2.57801
C         58.90512        43.69133        -2.64310
C         60.14577        45.81038        -2.18887
C         58.90507        46.45120        -1.63751
C         60.19696        48.46497        -1.11817
C         59.01627        47.77346        -0.99889
C         60.26248        49.86673        -0.64748
C         58.97501        50.58944        -0.32367
C         60.14368        52.78888        -0.41464
C         58.93630        52.06944        -0.32713
C         60.14435        54.18461        -0.16346
C         58.91270        54.81440         0.12741
C         60.18367        57.01795         0.45824
C         58.90313        56.23668         0.50019
C         60.10623        58.49590         0.40318
C         58.89446        59.14997         0.68524
C         60.03979        61.32603         0.65752
C         58.87442        60.54474         0.87759
C         60.02375        62.78215         0.84988
C         58.85781        63.43610         1.32983
C         59.99894        65.58455         1.20143
C         58.86708        64.82776         1.49390
C         62.58430        35.73642        -2.01079
C         62.61715        37.04889        -2.52749
C         61.31930        37.67922        -3.00337
C         62.82726        39.92176        -3.37989
C         61.46864        39.13224        -3.51671
C         62.99186        41.39563        -3.50938
C         61.19006        42.66050        -3.84019
C         62.65570        44.39512        -2.73078
C         61.35113        43.81439        -3.05495
C         62.62542        45.74441        -2.23240
C         61.44448        46.46576        -1.97795
C         62.63502        48.58540        -1.48159
C         61.44108        47.83960        -1.55143
C         62.64546        50.01728        -1.32179
C         61.44771        50.65903        -1.01869
C         62.61991        52.89839        -1.12246
C         61.34860        52.11758        -0.96257
C         62.63851        54.24670        -0.48587
C         61.37808        54.95854        -0.20431
C         62.59851        57.12921        -0.23602
C         61.41186        56.32854         0.02130
C         62.54059        58.57638        -0.09526
C         61.28748        59.24722         0.19821
C         62.43427        61.44028        -0.06932
C         61.22696        60.66322         0.26848
C         62.40847        62.93606         0.03656
C         61.17199        63.56925         0.56077
C         62.37056        65.77688         0.26341
C         61.17054        64.96602         0.74427
C         62.46069        67.15305         0.86597
C         64.48471        35.90035        -0.39904
C         63.44783        35.19436        -1.04034
C         65.03920        37.04555        -1.02492
C         63.79312        37.81261        -2.51380
C         64.92707        39.93775        -1.94513
C         63.88270        39.23270        -2.57811
C         65.08241        41.38052        -2.30445
C         63.89174        42.14659        -2.78636
C         65.10529        44.26551        -2.31648
C         63.87781        43.61574        -2.67243
C         65.14674        45.74678        -2.36047
C         63.89376        46.41037        -1.90400
C         65.17990        48.63806        -1.66227
C         63.91454        47.87353        -1.53593
C         65.13933        50.08289        -1.54564
C         63.90788        50.75349        -1.40575
C         65.09218        52.92557        -1.40245
C         63.91540        52.18374        -1.28945
C         64.97619        54.43138        -1.54990
C         63.89628        55.04337        -0.67390
C         64.99055        57.25723        -0.96903
C         63.77552        56.50187        -0.64594
C         64.98479        58.69896        -0.57264
C         63.72293        59.33885        -0.15392
C         64.93792        61.50917         0.03863
C         63.73552        60.75311        -0.03188
C         64.95188        62.91762         0.14585
C         63.70092        63.65877         0.20241
C         64.96404        65.73325         0.72964
C         63.67736        65.01554         0.38927
C         64.88529        67.22573         0.57075
C         63.63201        67.83267         0.92897
C         65.59003        33.90771         2.60803
C         64.88371        34.27881         1.46918
C         65.76994        36.53940         1.64231
C         65.02000        35.57159         0.92740
C         65.98890        37.94858         1.10166
C         65.66219        38.10532        -0.36782
C         66.86281        40.23288        -0.36773
C         65.79219        39.40406        -0.92959
C         67.20209        41.44535        -0.92601
C         66.30319        42.12023        -1.88756
C         67.48538        44.31120        -1.59474
C         66.30685        43.61003        -1.93998
C         67.62929        45.73590        -1.74908
C         66.42799        46.50337        -2.17444
C         67.62843        48.69117        -1.88488
C         66.36137        47.95847        -1.85189
C         67.59508        50.12422        -1.56901
C         66.38282        50.82222        -1.51049
C         67.56914        53.03388        -1.65646
C         66.37382        52.28072        -1.49643
C         67.49249        54.49228        -1.72262
C         66.28498        55.16150        -1.39997
C         67.49864        57.26040        -1.03950
C         66.28490        56.53570        -1.11000
C         67.54412        58.62568        -0.45463
C         66.25970        59.31901        -0.11851
C         67.52429        61.55186         0.00175
C         66.22934        60.79207         0.15070
C         67.44228        63.01300        -0.17125
C         66.20256        63.65844         0.06670
C         67.33810        65.82261        -0.17566
C         66.18535        65.08268         0.12122
C         67.24254        67.30177        -0.25820
C         66.02611        67.97187         0.25815
C         67.24396        70.09163         0.33249
C         66.04092        69.38753         0.31992
C         67.34942        33.01007         4.85066
C         67.36796        34.38603         4.33853
C         66.40445        34.83063         3.28635
C         67.19248        37.19034         3.61811
C         66.40733        36.17729         2.84994
C         67.85198        38.29258         2.83013
C         67.49357        38.31279         1.31339
C         69.05689        40.12134         0.67782
C         67.79731        39.61996         0.58746
C         69.51048        41.42955         0.18095
C         68.52484        42.08720        -0.75052
C         69.85189        44.26489        -0.53562
C         68.66822        43.53604        -1.12234
C         69.95894        45.73721        -0.79072
C         68.79951        46.42015        -1.41706
C         70.14837        48.59786        -1.15253
C         68.92489        47.87080        -1.65723
C         70.15089        50.10711        -1.13754
C         68.82945        50.82459        -1.23801
C         70.32314        52.81829        -1.54116
C         68.84431        52.35442        -1.31086
C         70.49027        54.29131        -1.67108
C         68.60265        55.33494        -1.96996
C         69.98487        57.37426        -1.41582
C         68.68718        56.65220        -1.48314
C         69.97877        58.78960        -1.00098
C         68.76837        59.44482        -0.62967
C         69.93026        61.60496        -0.62564
C         68.74739        60.83159        -0.42167
C         69.88138        63.04205        -0.60385
C         68.62844        63.74824        -0.41180
C         69.80049        65.93430        -0.64690
C         68.58361        65.17373        -0.43080
C         69.80278        67.36521        -0.64066
C         68.53008        68.12273        -0.43350
C         69.66543        70.22985         0.58723
C         68.49160        69.48551         0.13614
C         69.55883        71.10496         1.69377
C         68.62595        33.66013         6.83085
C         68.02660        32.66721         5.97865
C         68.56068        34.98225         6.52496
C         68.05388        35.42917         5.22030
C         68.54882        37.89342         5.62179
C         67.58975        36.86986         5.05936
C         69.14257        38.86985         4.90293
C         69.04162        38.95492         3.45249
C         70.79778        40.76357         3.11292
C         69.96554        39.64535         2.70519
C         71.01432        41.86368         2.34692
C         70.50058        42.24839         0.99362
C         71.75226        44.46616         1.06073
C         70.44215        43.77160         0.79765
C         71.92113        45.77114         0.74968
C         70.94820        46.53565        -0.01263
C         72.02600        48.70003         0.51178
C         71.07133        47.90133        -0.21644
C         72.06923        50.06912         0.47192
C         71.16849        50.84360        -0.32666
C         72.05481        53.10601         0.29383
C         71.21705        52.22474        -0.47268
C         72.07800        54.46549         0.11277
C         71.28648        55.10855        -0.91844
C         72.44267        57.38168        -0.65683
C         71.32296        56.58242        -1.16589
C         72.42004        58.74238        -0.70838
C         71.19909        59.49058        -0.90251
C         72.35353        61.70180        -0.93435
C         71.16994        60.92557        -0.80666
C         72.29812        63.07548        -0.95021
C         71.06598        63.77828        -0.81103
C         72.18804        65.95112        -1.21478
C         71.02130        65.22947        -0.87832
C         72.16404        67.32921        -1.31790
C         70.98189        68.02691        -1.01957
C         71.96732        71.03118         0.27170
C         70.90242        70.19881        -0.09326
C         71.82944        71.88367         1.36802
C         70.62731        71.90708         2.08543
O         66.23222        41.52718        -3.23918
O         69.68973        54.80804        -2.69944
O         60.00951        40.78088        -4.66756
O         65.85989        46.26683        -3.52467
O         66.97404        58.58614         0.91907
O         70.73970        49.38464        -2.24414
O         61.72859        52.77607        -2.26353
O         52.96643        52.95857         2.20191
O         43.33142        51.72602         2.60538
O         68.73719        34.89322         4.06219
O         70.92538        41.50468        -0.17233
O         70.72425        44.73067        -1.58833
O         67.00530        61.15181         1.33156
O         68.68858        51.66700        -0.03339
O         57.87400        61.70118         2.78420
O         49.01737        50.57813         1.99178
O         65.00237        37.10066        -2.43044
O         46.84232        46.57415         1.33847
O         62.24959        62.30301        -1.27854
O         56.64502        42.12345        -4.20752
O         66.65133        38.55861         3.65052
O         59.60685        56.51420         1.74793
O         71.06251        69.41203        -1.23180
O         47.04730        50.57451        -0.93610
O         67.61744        67.87770        -1.55547
O         64.90749        58.32810        -1.99375
O         69.09417        42.47692        -2.04272
O         59.20305        46.56080        -3.07893
O         62.42034        39.22317        -4.60322
O         64.00184        46.81643        -0.49194
O         62.25467        42.04726        -4.50758
O         70.90588        57.03990        -2.48345
O         57.23817        47.71483         0.75694
O         53.45572        45.49759         0.59580
O         41.52664        51.28098        -0.43140
O         63.64238        54.34750         0.58271
O         58.01414        44.42608        -0.49170
O         70.02449        39.34677         1.33016
O         59.84874        50.07026         0.75450
O         68.51862        48.29586        -2.98288
O         44.25579        47.05084         2.24541
H         45.18177        46.71732         2.34213
O         53.60513        59.39108        -0.62257
H         53.25465        58.57789        -1.04861
O         60.83886        36.92334        -4.14326
H         61.43687        37.12593        -4.89530
O         55.69350        52.18816         1.98676
H         54.92234        52.40058         2.56331
O         64.51958        54.68380        -2.91463
H         65.18621        54.32459        -3.53675
O         69.48495        44.21103         1.81730
H         69.63787        45.16323         1.99562
O         57.71977        57.22122        -1.24274
H         57.13629        57.99074        -1.46709
O         52.52196        50.11031        -1.93452
H         51.71116        49.64722        -2.23589
O         45.38568        54.30251        -0.11879
H         44.59089        53.98750        -0.59794
O         47.37994        48.25458        -1.83863
H         47.01938        49.15074        -2.05362
O         66.36788        36.96074         5.84121
H         65.97833        37.84255         5.65381
O         56.36189        59.45501        -0.86512
H         55.42032        59.67519        -1.09110
O         55.91930        52.38574        -1.65104
H         56.58951        52.11062        -2.31061
O         46.41756        54.04085         3.37692
H         47.22154        54.34668         3.84579
O         68.24282        37.25510         0.68491
H         69.18338        37.53865         0.64142
O         57.51158        58.09850         2.35001
H         58.30907        57.58175         2.62052
O         65.13755        65.54391         2.18993
H         65.24773        64.58101         2.34764
O         65.08171        38.89028         1.71140
H         65.25574        38.90305         2.68347
O         70.71561        52.25483        -2.82137
H         70.45944        52.89232        -3.52258
O         62.15396        65.98337        -1.17274
H         62.09561        65.09835        -1.59390
H         37.74400        48.52367         0.45660
H         35.59386        49.72770         0.59052
H         37.67517        53.42815         1.32619
H         35.55923        52.19325         1.03111
H         39.39168        47.55219         0.96080
H         39.33229        54.30315         1.90742
H         41.51794        46.35956         0.86195
H         41.41616        55.55372         1.98241
H         45.17889        44.42394        -0.73148
H         43.12360        45.53924        -0.11760
H         45.25258        57.68492         2.29586
H         43.16206        56.43977         2.43536
H         46.90221        43.44912        -0.83991
H         46.88570        58.62079         2.26462
H         48.98953        42.31720        -1.39053
H         48.96287        59.87011         2.11721
H         52.68768        40.31866        -2.40175
H         50.58425        41.45924        -1.92096
H         52.73029        61.95449         2.44667
H         50.61957        60.75517         2.35329
H         54.44808        39.35934        -2.38484
H         54.22367        63.07863         1.91338
H         56.62959        38.31338        -2.72310
H         56.24418        64.39066         1.77746
H         60.33724        36.78319        -1.18391
H         58.37646        38.26542        -1.19995
H         59.94755        66.67293         1.33116
H         57.97305        65.34253         1.87006
H         61.67412        35.15311        -2.22250
H         61.53416        67.68296         1.12568
H         63.12695        34.23832        -0.59850
H         63.61280        68.88897         1.23612
H         65.53211        32.86510         2.94755
H         64.28731        33.52333         0.93980
H         67.21386        71.16090         0.58655
H         65.11462        69.93758         0.53057
H         66.77417        32.24281         4.31374
H         68.62115        71.13833         2.26611
H         69.04190        33.33812         7.79607
H         68.02662        31.62157         6.31773
H         68.86461        35.73980         7.26179
H         68.71536        37.85706         6.70881
H         69.83329        39.56253         5.40809
H         71.18280        40.77767         4.14462
H         71.57650        42.67206         2.84210
H         72.56553        43.91919         1.55795
H         72.86948        46.25611         1.02157
H         72.75098        48.18220         1.15455
H         72.83817        50.59013         1.06002
H         72.68908        52.66918         1.07820
H         72.72235        55.08388         0.75278
H         73.34780        56.86416        -0.30776
H         73.32466        59.29437        -0.41663
H         73.32343        61.20396        -1.06649
H         73.23807        63.62726        -1.07523
H         73.12534        65.42792        -1.43804
H         73.05454        67.88796        -1.63209
H         72.89860        71.00572        -0.30870
H         72.66365        72.53187         1.66868
H         70.52115        72.56852         2.95562
