         324
 CSIRO Nanostructure Databank - Neutral Graphene Oxide Data Set
C          1.93642         1.90728         2.21916
C          1.84109         3.30171         2.03787
C          3.11003         1.23456         1.94104
C          2.92203         4.04922         1.55980
C          1.71866         6.23768         1.82955
C          1.65801         7.61232         1.67333
C          2.85356         5.50803         1.41351
C          2.73725         8.34572         1.13269
C          1.49619        10.50378         1.33455
C          1.44238        11.89574         1.32336
C          2.67285         9.79011         0.97564
C          2.50428        12.66768         0.84571
C          1.34313        14.82175         1.32583
C          1.34327        16.19576         1.41007
C          2.50403        14.10249         0.91226
C          2.51758        16.93857         1.11927
C          2.53902        18.36149         1.27434
C          4.24163         1.94583         1.44922
C          4.13813         3.36164         1.24407
C          5.45113         1.28403         1.14860
C          5.25130         4.06262         0.70647
C          3.93129         6.22555         0.84425
C          3.90855         7.64512         0.73342
C          5.08678         5.47498         0.33708
C          5.08710         8.39412         0.33762
C          3.79250        10.50291         0.50141
C          3.62716        11.96096         0.13231
C          5.02704         9.83321         0.23340
C          4.91220        12.75052         0.09838
C          3.68029        14.83014         0.57425
C          3.68942        16.25051         0.69660
C          4.88021        14.11718         0.16209
C          4.89319        17.00588         0.47104
C          3.68815        19.07705         1.07083
C          4.90474        18.41999         0.68433
C          6.57680         1.99229         0.68554
C          6.47403         3.41078         0.46783
C          7.80567         1.33183         0.42583
C          7.67175         4.15557         0.15689
C          6.35741         6.27379        -0.01152
C          6.31601         7.74199         0.12381
C          7.62768         5.56919         0.10789
C          7.52236         8.48329        -0.02721
C          6.19858        10.56278        -0.10759
C          6.11485        12.02959        -0.47853
C          7.45438         9.90897        -0.16479
C          7.40525        12.77036        -0.22841
C          6.04805        14.91105        -0.38824
C          6.08762        16.35629         0.06962
C          7.37165        14.19515        -0.22104
C          7.26460        17.09605        -0.05634
C          6.09347        19.15338         0.50688
C          7.29740        18.51282         0.15613
C          8.95027         2.00520        -0.04187
C          8.89761         3.45895        -0.10354
C         10.14297         1.22233        -0.24331
C         10.07890         4.23691        -0.32406
C          8.82639         6.38176         0.25963
C          8.78934         7.82413        -0.03968
C         10.19317         5.64443         0.10251
C          9.98437         8.53455        -0.28565
C          8.68135        10.64175        -0.31518
C          8.63956        12.07807        -0.28457
C          9.93369         9.96911        -0.40251
C          9.87100        12.79710        -0.29626
C          8.54136        14.93328        -0.22134
C          8.50564        16.39623        -0.43126
C          9.83326        14.25165        -0.09114
C          9.77730        17.19337        -0.52768
C          8.52317        19.25100         0.03804
C          9.75260        18.64670        -0.23966
C         11.22142         1.63550        -1.04881
C         11.12372         3.72908        -1.08528
C         12.57399         1.28037        -1.03982
C         12.47776         4.22723        -1.01938
C         11.33181         6.44384        -0.36512
C         11.25288         7.84914        -0.45391
C         12.57293         5.72358        -0.65891
C         12.43742         8.60668        -0.73629
C         11.14470        10.70899        -0.59182
C         11.09612        12.14417        -0.52653
C         12.38955        10.01434        -0.79763
C         12.28554        12.92896        -0.78168
C         11.11758        15.04600        -0.24509
C         11.07386        16.50616        -0.45978
C         12.31809        14.31476        -0.67008
C         12.24219        17.23318        -0.52611
C         10.98472        19.34533        -0.23591
C         12.23014        18.68906        -0.41144
C         13.62541         2.08787        -1.64351
C         13.54529         3.52340        -1.74854
C         14.79503         1.41437        -2.01712
C         14.70656         4.33432        -2.14339
C         13.74997         6.44483        -1.18118
C         13.73966         7.90884        -0.91347
C         14.78720         5.78739        -1.77888
C         14.94751         8.70201        -1.31138
C         13.57641        10.76608        -1.16210
C         13.45205        12.22075        -1.32678
C         14.79443        10.16524        -1.46648
C         14.74041        13.03057        -1.51767
C         13.53062        15.08775        -0.85517
C         13.50674        16.54115        -0.62973
C         14.71826        14.44859        -1.14550
C         14.67901        17.26291        -0.53424
C         13.45779        19.38132        -0.34972
C         14.70896        18.69938        -0.36512
C         15.98824         2.06231        -2.65946
C         15.99635         3.58613        -2.49796
C         17.20524         1.40171        -2.08275
C         17.24457         4.27747        -2.14210
C         15.99323         6.54118        -2.28545
C         16.09210         8.02552        -2.02354
C         17.27825         5.75068        -2.39845
C         17.37750         8.79591        -2.03312
C         16.00637        10.91072        -1.70415
C         16.01652        12.30779        -1.54886
C         17.25675        10.18577        -1.96866
C         17.23434        13.06915        -1.35640
C         15.98840        15.24314        -1.28455
C         15.94173        16.50314        -0.45712
C         17.25124        14.44528        -1.10223
C         17.20618        17.21001        -0.13796
C         15.94757        19.36809        -0.25457
C         17.21519        18.69813        -0.13911
C         18.35388         2.09461        -1.72734
C         18.37927         3.55667        -1.81159
C         19.54972         1.40584        -1.37712
C         19.62526         4.22609        -1.52517
C         18.58074         6.48857        -2.22130
C         18.71219         8.03959        -2.36477
C         19.58874         5.70683        -1.41389
C         19.94001         8.56551        -1.60366
C         18.38355        11.08281        -2.11008
C         18.45712        12.34508        -1.57349
C         20.21897         9.96951        -1.74153
C         19.78179        13.00422        -1.38340
C         18.47473        15.17198        -0.82723
C         18.47345        16.48557        -0.38518
C         19.76240        14.44639        -0.97444
C         19.68792        17.17052         0.13402
C         18.42728        19.36006        -0.11933
C         19.70085        18.68887         0.36076
C         20.77200         2.07640        -1.15059
C         20.76295         3.53028        -1.17405
C         21.95483         1.36244        -0.84739
C         22.04049         4.24816        -0.94605
C         20.75246         6.38322        -0.77688
C         20.84878         7.84270        -0.88225
C         22.00849         5.66597        -0.56060
C         21.85204         8.48987         0.00579
C         21.00752        10.69868        -0.90223
C         20.88474        12.16837        -0.75107
C         21.83023        10.00131         0.10674
C         22.06065        12.86750        -0.12513
C         20.98576        15.04678        -0.40224
C         20.98429        16.45368         0.03469
C         22.12618        14.32896        -0.23361
C         22.27186        17.17462         0.00039
C         21.02846        19.31375        -0.05742
C         22.24186        18.63642        -0.04189
C         23.19717         1.98333        -0.52177
C         23.29570         3.45893        -0.73112
C         24.27026         1.26029        -0.01510
C         24.55113         4.20039        -0.28974
C         23.14928         6.33257        -0.03242
C         23.09673         7.75746         0.35448
C         24.32801         5.61843         0.18785
C         24.20266         8.42506         0.87177
C         23.00424        10.71665         0.72422
C         23.26332        12.13075         0.33732
C         24.16718         9.87988         1.20923
C         24.45750        12.76921         0.54275
C         23.43824        14.98996        -0.21364
C         23.43370        16.46084        -0.12583
C         24.67905        14.17508         0.10742
C         24.73129        17.12897        -0.26743
C         23.51856        19.30143        -0.10404
C         24.73475        18.60551        -0.14001
C         25.40493         1.91890         0.66207
C         25.40751         3.41711         0.69148
C         26.65741         1.20999         1.02331
C         26.68146         4.12051         0.95937
C         25.38004         6.21816         1.07670
C         25.47522         7.72799         1.03792
C         26.69412         5.49423         1.00421
C         26.64483         8.37970         1.34970
C         25.44003        10.62541         1.56376
C         25.57888        12.11384         1.24402
C         26.67313         9.79599         1.75757
C         26.91500        12.80295         1.32902
C         25.94181        14.89227         0.44815
C         25.99995        16.31288         0.00748
C         27.04961        14.24705         0.99693
C         27.22684        17.08197         0.26692
C         25.99680        19.23616        -0.12244
C         27.21175        18.51566         0.00717
C         27.84841         1.87241         1.22812
C         27.91290         3.33810         1.03340
C         29.08070         1.24419         1.65762
C         29.14341         4.07951         1.55722
C         27.86455         6.19679         1.44679
C         27.96144         7.67396         1.34562
C         28.89257         5.44783         1.95116
C         29.28797         8.41404         1.44093
C         27.97643        10.53823         1.92052
C         27.87275        12.02440         1.94315
C         29.27335         9.91500         1.52008
C         29.72941        12.95904         1.45236
C         28.35715        14.97296         0.95979
C         28.37579        16.39755         0.61268
C         29.59136        14.34054         1.05768
C         29.66085        17.13606         0.55936
C         28.43959        19.19486        -0.10966
C         29.66608        18.51461         0.02682
C         30.23214         1.92895         2.00500
C         30.34928         3.35901         2.01293
C         31.57058         4.05208         2.10935
C         30.82334         6.44443         2.08330
C         30.64875         7.75569         1.57124
C         31.79815         5.44178         1.89554
C         31.72126         8.50381         1.02715
C         30.38620        10.58790         1.00054
C         30.45880        12.03774         0.73862
C         31.57152         9.83278         0.68360
C         31.25143        12.60060        -0.36129
C         30.95815        14.85357         0.64659
C         30.97624        16.35007         0.42169
C         31.45700        13.93517        -0.46219
C         32.08408        16.99565        -0.26868
C         30.88095        19.11302        -0.33665
C         32.05670        18.34848        -0.51902
O         18.20323         5.95504        -3.52406
O         13.85902        12.70403        -2.65145
O         19.53516        10.63417        -2.75685
O         28.70186         8.03465         0.09876
O         30.57495        16.98694         1.69097
O         16.43705        16.49440         0.91653
O         24.80292         2.75062         1.81653
O         29.73994         6.02997         2.89212
O         20.09836        14.00734        -2.38034
O         22.96901         3.89486        -2.09762
O         14.77682         8.27819         0.08340
O          9.02644        16.80248        -1.76214
O         25.20755        11.61435         2.58787
O         15.19876         4.20695        -3.54789
O          5.45203         5.76423        -1.04776
O         10.61616        14.69072         1.10145
O         19.53420         6.02400         0.03610
O         27.31143         9.91757         3.07798
O         20.24309        16.50155         1.33835
O         20.89360        12.46660         0.69061
O         28.97947        12.59253         2.57097
O         21.12920         9.18617         1.08679
O         24.27510        14.40852        -1.28497
O         15.72054         7.49232        -3.35697
O         10.88121         2.68434        -1.96387
O         25.53538        16.59779        -1.36528
O         23.11932        10.32679         2.11939
O         12.87428         4.68705         0.33160
O          9.65886         5.99052         1.40091
O         28.93810         3.82813         0.11353
O         15.95992         1.76441        -4.09080
H         15.45949         2.49643        -4.51879
O         16.02208        15.72943        -2.67095
H         15.93447        14.95405        -3.26590
O         19.67770        18.93214         1.80327
H         19.99722        18.09789         2.22813
O         18.97830         8.30982        -3.74926
H         18.41465         7.69799        -4.27870
O         24.89473         5.93586         2.44344
H         24.06362         6.44059         2.57999
O          5.90294        12.06888        -1.94473
H          5.88233        13.03094        -2.19001
O          3.21321        11.91861        -1.29315
H          4.03879        11.75709        -1.81901
O         25.41021         4.31460        -1.46556
H         24.80785         4.45957        -2.23350
O         31.86343        14.62586         1.76776
H         31.64105        15.30306         2.44508
O          5.81081        14.94055        -1.84617
H          6.48872        15.53179        -2.24172
H          1.06280         1.35648         2.59458
H          0.88946         3.79212         2.28225
H          3.18225         0.14831         2.09318
H          0.85859         5.72093         2.27482
H          0.74591         8.12766         2.00008
H          0.61576         9.96140         1.70115
H          0.54521        12.37808         1.73494
H          0.41859        14.27793         1.55969
H          0.43412        16.73037         1.72048
H          1.61436        18.87061         1.58273
H          5.52180         0.19642         1.29852
H          3.69836        20.16757         1.21114
H          7.85364         0.24192         0.56929
H          6.08272        20.24256         0.66071
H         10.20473         0.25199         0.27208
H          8.49137        20.33507         0.22537
H         12.87864         0.35212        -0.53434
H         10.97770        20.42984        -0.04775
H         14.82187         0.31972        -1.91307
H         13.44718        20.47576        -0.23281
H         17.21507         0.30154        -2.06320
H         15.94434        20.46805        -0.20345
H         19.52857         0.30618        -1.33624
H         18.43444        20.46032        -0.17544
H         21.89157         0.26539        -0.77254
H         21.05473        20.41467        -0.09887
H         24.18772         0.16360         0.05399
H         23.53939        20.40154        -0.07422
H         26.61845         0.11450         1.13342
H         26.04813        20.33396        -0.17845
H         29.09244         0.14511         1.71856
H         28.44213        20.25795        -0.39284
H         31.11615         1.34011         2.29558
H         32.47598         3.42493         2.17796
H         32.80128         5.73317         1.54665
H         32.70916         8.02842         0.93475
H         32.43755        10.37757         0.28381
H         31.66597        11.92010        -1.11950
H         32.07101        14.34890        -1.27574
H         32.93692        16.38288        -0.59281
H         30.87905        20.16887        -0.64373
H         32.93507        18.83414        -0.96743
