         244
 CSIRO Nanostructure Databank - Neutral Graphene Oxide Data Set
C          1.23907         2.26728         1.15809
C          1.25345         3.63259         0.85054
C          2.41627         1.52854         1.18774
C          2.46558         4.29595         0.55283
C          1.39212         6.56888         0.38559
C          1.41552         7.84817        -0.06022
C          2.51129         5.68362         0.16871
C          2.39250         8.30744        -1.11412
C          1.32428        10.54795        -1.40713
C          1.32342        11.94705        -1.43456
C          2.48304         9.82626        -1.11079
C          2.48555        12.67674        -1.15680
C          1.21878        14.92184        -1.08393
C          1.21814        16.25361        -0.81772
C          2.49844        14.18574        -1.40621
C          2.44104        17.01020        -0.67135
C          2.44664        18.41619        -0.52462
C          3.66440         2.15165         0.91439
C          3.68090         3.54720         0.58554
C          4.87837         1.43054         0.97183
C          4.91842         4.19675         0.32388
C          3.72601         6.24937        -0.29378
C          3.78413         7.56947        -1.06188
C          4.92577         5.55370        -0.11368
C          4.95780         8.41221        -0.57251
C          3.68114        10.52731        -0.83425
C          3.67349        11.95905        -0.86121
C          4.90430         9.80331        -0.56877
C          4.93388        12.66493        -0.72298
C          3.67676        14.89586        -0.79059
C          3.67818        16.28683        -0.60110
C          4.87765        14.12934        -0.50864
C          4.90483        17.02532        -0.37246
C          3.62549        19.12550        -0.34986
C          4.88940        18.45924        -0.28351
C          6.12147         2.07641         0.78767
C          6.13937         3.47426         0.47291
C          7.35404         1.37026         0.90962
C          7.39175         4.17016         0.42364
C          6.22225         6.21718        -0.51268
C          6.19212         7.72647        -0.34394
C          7.43520         5.56295         0.09132
C          7.41714         8.42171        -0.20698
C          6.11955        10.57472        -0.11772
C          6.12905        11.99643        -0.59767
C          7.43600         9.85534        -0.26200
C          7.41263        12.71274        -0.78135
C          6.15377        14.89258        -0.27442
C          6.14062        16.36058        -0.33254
C          7.42274        14.19923        -0.63085
C          7.36713        17.05907        -0.23369
C          6.10324        19.15829        -0.12324
C          7.35463        18.48806        -0.09578
C          8.58081         2.04883         0.89910
C          8.56786         3.46843         0.75984
C          9.85002         1.34524         0.94015
C          9.81505         4.22523         1.09444
C          8.66152         6.27811         0.11701
C          8.67162         7.71984        -0.10121
C          9.83358         5.61365         0.51823
C          9.86894         8.44795         0.01592
C          8.63232        10.55698        -0.23678
C          8.75059        11.98437        -0.71830
C          9.87274         9.87687        -0.00977
C          9.86760        12.77449        -0.03654
C          8.66629        14.90807        -0.30676
C          8.61638        16.34901        -0.21872
C          9.82176        14.18347         0.01785
C          9.82051        17.05955        -0.14876
C          8.58594        19.15941         0.13157
C          9.81568        18.46282         0.11957
C         11.05596         1.99519         0.75642
C         11.07764         3.49597         0.57756
C         12.30829         1.33744         0.54291
C         12.34793         4.08181         1.21748
C         11.14191         6.21862         0.41763
C         11.15968         7.76167         0.16397
C         12.27027         5.64542         1.27889
C         12.32083         8.52329         0.58851
C         11.07245        10.61918         0.20331
C         11.07169        12.05871         0.24865
C         12.29486         9.92077         0.51492
C         12.28739        12.75505         0.54338
C         10.97865        15.01727         0.55037
C         11.08542        16.25144        -0.39143
C         12.27134        14.22241         0.71715
C         12.37399        17.14080        -0.38130
C         11.05031        19.08944         0.47939
C         12.28437        18.41828         0.43185
C         13.50122         2.04399         0.32382
C         13.54788         3.48940         0.51517
C         14.67985         1.39532        -0.15807
C         14.67575         4.22381         0.27451
C         13.56257         6.34316         0.88919
C         13.54995         7.83561         1.13790
C         14.66274         5.67660         0.43948
C         14.80556         8.56259         0.72692
C         13.53294        10.65125         0.56842
C         13.52915        12.06127         0.54396
C         14.78474         9.91149         0.54817
C         14.81754        12.77637         0.56647
C         13.57653        14.96138         0.58636
C         13.66833        16.29349        -0.14228
C         14.83369        14.20090         0.51347
C         14.83365        17.07904         0.41169
C         13.46701        19.09186         0.78055
C         14.75748        18.47908         0.70016
C         15.86274         2.09271        -0.39680
C         16.00498         3.53580         0.05888
C         16.99519         1.46682        -0.96706
C         16.95990         4.30031        -0.87968
C         15.89077         6.45165         0.09385
C         16.07235         7.76538         0.83771
C         17.08732         5.77662        -0.49520
C         17.30717         8.51005         0.38269
C         16.03440        10.64104         0.12408
C         16.02242        12.07825         0.54489
C         17.32543         9.89056         0.37487
C         17.31658        12.76303         0.86647
C         16.06616        14.92479         0.46200
C         16.04438        16.39319         0.50889
C         17.26801        14.24320         0.59680
C         17.25454        17.12851         0.67484
C         15.94933        19.19495         0.92795
C         17.21422        18.55534         0.83168
C         18.20513         2.15551        -1.19684
C         18.28348         3.57139        -0.95665
C         19.38881         1.46556        -1.60461
C         19.49941         4.22663        -0.98381
C         18.41221         6.41480        -0.28131
C         18.49652         7.73115         0.09741
C         19.68072         5.59899        -0.37452
C         19.84372         8.40257         0.19486
C         18.57475        10.61072         0.25985
C         18.57709        12.06720         0.35621
C         19.77769         9.91547         0.09160
C         19.75907        12.76047         0.29751
C         18.52410        14.98549         0.69726
C         18.50504        16.45965         0.58625
C         19.80664        14.22910         0.52098
C         19.69712        17.17730         0.51491
C         18.44096        19.25823         0.91061
C         19.67591        18.60249         0.71077
C         20.57513         2.14304        -1.75727
C         20.66807         3.53405        -1.44613
C         21.84046         4.27341        -1.71713
C         20.83589         6.38423        -0.97017
C         20.90055         7.78207        -0.70857
C         21.88625         5.66190        -1.55865
C         22.00343         8.57412        -1.03765
C         21.01042        10.61453        -0.10746
C         21.09287        12.03948         0.40004
C         22.09130         9.93210        -0.66135
C         22.26114        12.86270        -0.08488
C         20.98868        14.98754        -0.01879
C         20.95244        16.50949         0.08899
C         22.23833        14.20101        -0.17741
C         22.17914        17.30718         0.12154
C         20.91089        19.30710         0.70816
C         22.12690        18.64777         0.44428
O         19.38730        14.59194         1.88464
O         11.47604         6.76666        -0.87658
O         11.90828         5.99687         2.62330
O         12.48720        17.68344        -1.69127
O          5.43007        14.38321         0.88068
O         12.97232        14.76572         1.90859
O          7.36220        13.59572        -1.97612
O          4.12356         7.24101        -2.40798
O         16.18031         6.60824        -1.33528
O         20.70301        15.77581        -1.20905
O          5.96885        10.69032         1.35865
H          5.17578        11.24352         1.52955
O         10.55976        15.48673         1.85267
H         11.33821        15.42137         2.45455
O          6.37095         5.98811        -1.95040
H          5.55061         6.42521        -2.36758
O         16.41665         4.22176        -2.21571
H         15.96779         5.08338        -2.39258
O          9.22626        11.83668        -2.09023
H          8.89624        12.62395        -2.58640
O         14.10401        15.86818        -1.46180
H         13.70599        16.56878        -2.06353
O         13.51482         8.00716         2.59644
H         12.84341         7.31423         2.91682
O         16.65683         3.52055         1.35881
H         16.03582         3.12983         2.00918
O          1.76312         7.90972        -2.35298
H          2.52498         7.53884        -2.89087
O         16.25580         7.46922         2.25041
H         15.38830         7.62158         2.70520
O         11.18369         3.75138        -0.84339
H         10.43850         3.31047        -1.30163
O         12.47812         3.59552         2.56218
H         12.37158         4.41453         3.12779
O          9.82065         4.33431         2.53986
H         10.54124         4.99914         2.78328
O          2.66397        14.30384        -2.86925
H          2.64663        15.25865        -3.09338
O         21.31747        11.91004         1.85022
H         20.53085        11.46423         2.23265
O         10.99413        15.73069        -1.73027
H         11.47780        16.42361        -2.27223
O         17.46243        12.66105         2.33933
H         18.19946        13.27817         2.58141
O         20.33641         8.12787         1.56354
H         21.21444         8.55890         1.64873
O         15.96280        10.70854        -1.35232
H         15.85843         9.79142        -1.68761
O         20.07701         5.33142         1.01392
H         20.17590         6.20895         1.46212
H          0.28112         1.77367         1.37329
H          0.30309         4.18278         0.81574
H          2.39165         0.45679         1.43188
H          0.56301         6.22701         1.02327
H          0.59735         8.53223         0.21675
H          0.40446        10.00170        -1.65805
H          0.39807        12.46850        -1.71549
H          0.25874        14.39935        -1.20390
H          0.26323        16.78668        -0.69136
H          1.48899        18.95616        -0.56170
H          4.85779         0.35780         1.21517
H          3.59582        20.22105        -0.25969
H          7.33270         0.27950         1.05179
H          6.08052        20.25376        -0.02124
H          9.82605         0.24817         1.03225
H          8.58150        20.24255         0.32432
H         12.32184         0.23791         0.47002
H         11.01979        20.12524         0.85635
H         14.62804         0.32494        -0.41515
H         13.40502        20.13757         1.12371
H         16.94544         0.39053        -1.19797
H         15.90448        20.27649         1.12293
H         19.33492         0.38571        -1.80664
H         18.43139        20.34618         1.07125
H         21.47503         1.61622        -2.10723
H         22.71128         3.75352        -2.14265
H         22.78527         6.19290        -1.90420
H         22.84532         8.14014        -1.59505
H         23.02556        10.46649        -0.88176
H         23.21592        12.34215        -0.25145
H         23.14051        14.74017        -0.50342
H         23.13574        16.83753        -0.14367
H         20.91092        20.38912         0.90008
H         23.05871        19.23108         0.45967
