         762
 CSIRO Nanostructure Databank - Neutral Graphene Oxide Data Set
C         23.05139        25.12134         2.47293
C         21.84878        25.82878         2.34704
C         23.06510        27.75955         1.49479
C         21.85604        27.13119         1.87561
C         23.06024        29.10522         0.95753
C         21.87508        29.92654         1.05928
C         22.87817        31.65710        -0.35890
C         21.80604        31.16618         0.51207
C         22.86457        33.09801        -0.76641
C         21.61889        33.54296        -1.41428
C         22.83952        35.35131        -2.47045
C         21.62293        34.61365        -2.24050
C         22.82556        37.63153        -2.50661
C         21.71282        38.17469        -1.93978
C         22.98065        40.10545        -1.09716
C         21.78899        39.42808        -1.25422
C         23.02396        41.49268        -0.62326
C         21.82647        42.19098        -0.35352
C         23.03431        44.27580        -0.02415
C         21.83036        43.54179        -0.05207
C         23.04065        45.71982         0.22802
C         21.85681        46.39116         0.55943
C         22.98919        48.52747         0.52268
C         21.83743        47.78077         0.72231
C         25.57324        23.51761         2.53148
C         25.53886        24.97290         2.33380
C         24.26553        25.70699         2.11040
C         25.51446        27.64178         1.10858
C         24.28928        27.03642         1.59055
C         25.47769        28.94179         0.51467
C         24.23763        29.64850         0.42856
C         25.45894        31.61597        -0.67261
C         24.19515        30.91425        -0.32887
C         25.44279        33.00525        -1.11568
C         24.16250        33.78285        -1.12511
C         25.31177        35.76880        -2.29175
C         24.07052        35.00175        -1.97395
C         25.38912        37.30630        -2.40487
C         24.17791        38.26892        -2.43861
C         25.43772        40.12345        -1.40816
C         24.22078        39.46899        -1.51997
C         25.56374        41.44854        -0.68741
C         24.24731        42.19691        -0.54695
C         25.51539        44.34406        -0.19885
C         24.24253        43.58369        -0.27122
C         25.49982        45.81962        -0.15810
C         24.24882        46.47607         0.09025
C         25.42236        48.66052        -0.03091
C         24.21131        47.89630         0.19847
C         25.39986        50.07479        -0.01994
C         27.98722        23.41025         2.05501
C         26.74011        22.82242         2.50114
C         27.97609        24.71248         1.58143
C         26.82384        25.60119         1.79575
C         27.88823        27.48650         0.54924
C         26.73574        26.91477         1.11309
C         27.86092        28.80294         0.04012
C         26.66382        29.54525        -0.01317
C         27.87023        31.45774        -1.19218
C         26.63747        30.88413        -0.60000
C         27.88100        32.91493        -1.61278
C         26.59710        33.64672        -1.51831
C         27.93030        35.79128        -1.96857
C         26.60752        35.02355        -2.06062
C         27.85012        37.26513        -1.79678
C         26.68149        37.94833        -2.00438
C         27.98424        40.19142        -1.67441
C         26.65331        39.44747        -1.88021
C         27.97339        41.62684        -1.37052
C         26.63855        42.33300        -1.37533
C         27.94237        44.50032        -1.00414
C         26.76421        43.67347        -0.67911
C         27.89598        45.87215        -0.80205
C         26.68150        46.54648        -0.37061
C         27.83452        48.76557        -0.50633
C         26.65371        47.99575        -0.29164
C         27.76841        50.16736        -0.55582
C         26.53303        50.80722        -0.32127
C         30.40179        20.49081         2.15622
C         29.23355        21.23537         2.23807
C         30.45669        23.25455         1.65463
C         29.21757        22.61971         1.97031
C         30.46503        24.61602         1.15581
C         29.15868        25.23797         0.88001
C         30.42174        27.35946         0.31065
C         29.13065        26.67889         0.39375
C         30.39375        28.81653         0.17912
C         29.14666        29.39061        -0.41011
C         30.44016        31.56575        -0.96009
C         29.18314        30.77250        -0.95839
C         30.40107        32.90875        -1.35174
C         29.17407        33.66261        -1.55106
C         30.38599        35.83923        -1.43276
C         29.17005        35.05546        -1.58197
C         30.34625        37.20049        -1.22759
C         29.03133        37.93898        -1.09688
C         30.36500        40.13019        -1.08426
C         29.17837        39.42013        -1.38570
C         30.39151        41.56984        -1.12966
C         29.15898        42.31789        -1.25026
C         30.38327        44.46582        -1.33120
C         29.18047        43.78825        -1.23562
C         30.40186        45.93578        -1.39424
C         29.09355        46.67681        -1.12267
C         30.44541        48.90342        -0.73972
C         29.16885        48.02782        -0.41123
C         30.16491        50.22448        -1.49748
C         28.91353        50.95533        -1.10367
C         30.22504        53.06106        -0.84186
C         29.03431        52.40531        -0.82551
C         32.88552        18.93774         1.92157
C         32.88364        20.34407         1.76931
C         31.64743        21.10426         1.88247
C         32.95059        23.19455         1.54123
C         31.66195        22.50787         1.69737
C         32.93305        24.63856         1.07792
C         31.63121        25.27436         0.79072
C         32.86882        27.35839         0.10366
C         31.62632        26.66133         0.36682
C         32.92053        28.73920        -0.08538
C         31.68729        29.55417        -0.03414
C         32.92686        31.46953        -0.93642
C         31.68370        30.88392        -0.69175
C         32.96714        32.83298        -1.49898
C         31.67091        33.58267        -1.66646
C         32.92733        35.80149        -1.34183
C         31.67550        35.13214        -1.64959
C         32.89179        37.20315        -0.89509
C         31.58433        37.94980        -0.89177
C         32.79697        40.15634        -0.71139
C         31.60515        39.43663        -0.92085
C         32.78346        41.56878        -0.59036
C         31.59731        42.26409        -0.89319
C         32.95122        44.44071        -1.02442
C         31.64927        43.71117        -1.22751
C         32.96480        45.94689        -1.03482
C         31.66612        46.68215        -1.17364
C         32.94669        48.72208        -0.84920
C         31.66882        48.04866        -1.11839
C         33.20085        49.99585        -1.23807
C         31.33194        51.11857        -1.71297
C         32.79624        53.05773        -1.08370
C         31.44224        52.40797        -1.29443
C         33.04429        54.37026        -1.70425
C         35.28757        18.80175         1.46530
C         34.03917        18.19265         1.77917
C         35.31835        20.23474         1.32114
C         34.12718        20.99443         1.47533
C         35.40402        23.09469         1.10548
C         34.18723        22.42148         1.34115
C         35.44147        24.46912         0.65309
C         34.13936        25.12182         0.35342
C         35.37886        27.24432        -0.28532
C         34.09705        26.57247        -0.12932
C         35.41897        28.65706        -0.29154
C         34.16302        29.41468        -0.30594
C         35.40737        31.53667        -0.57684
C         34.15893        30.79486        -0.60911
C         35.46438        32.88375        -0.82168
C         34.27103        33.59830        -1.35192
C         35.45404        35.83669        -0.89860
C         34.16731        35.07049        -1.11411
C         35.46075        37.29795        -1.20718
C         34.13527        38.01208        -1.15553
C         35.40666        40.25850        -0.82535
C         34.10848        39.49845        -0.99122
C         35.34105        41.67506        -0.26555
C         33.94540        42.26894         0.10357
C         34.81658        44.54962         0.57727
C         33.94767        43.77804        -0.14433
C         35.18688        45.91987         0.34195
C         34.10590        46.65431        -0.37201
C         35.27089        48.73946         0.14319
C         33.91373        48.06675         0.09015
C         35.27323        50.16912        -0.03096
C         34.19913        50.82284        -0.61537
C         35.36355        53.05360        -0.64149
C         34.07827        52.30958        -0.65203
C         35.42608        54.37492        -1.05146
C         34.25689        54.97786        -1.66896
C         37.65911        15.85651         1.35049
C         36.53944        16.62334         1.56420
C         37.70428        18.72193         0.76891
C         36.47257        18.02664         1.30895
C         37.75697        20.16887         1.17203
C         36.59251        20.92192         1.23553
C         37.87198        23.08103         1.14510
C         36.64357        22.38048         1.19543
C         37.90635        24.47291         0.68046
C         36.64097        25.09463         0.33816
C         37.88074        27.16810        -0.61554
C         36.58520        26.35134        -0.53604
C         37.89520        28.67659        -0.61182
C         36.63228        29.37141        -0.33446
C         37.92648        31.52427        -0.13215
C         36.59857        30.82442         0.02826
C         37.96903        32.94578        -0.25616
C         36.75814        33.61427        -0.79912
C         37.94307        35.86317        -0.38638
C         36.76404        35.10040        -0.97261
C         38.02618        37.30510        -0.88038
C         36.75216        38.09371        -1.07784
C         37.93494        40.27972        -0.51550
C         36.69240        39.52701        -0.77660
C         37.86189        41.65481         0.05187
C         36.61520        42.25069         0.30629
C         37.77083        44.35394         0.99667
C         36.66461        43.49080         0.97967
C         37.60061        45.83602         1.25884
C         36.36741        46.56075         0.70747
C         37.67575        48.76255         0.60818
C         36.42004        48.02087         0.48224
C         37.71229        50.15781         0.48337
C         36.46472        50.93036         0.36793
C         37.83718        53.06411        -0.01634
C         36.52238        52.39837         0.00738
C         37.80227        54.52415        -0.17789
C         36.65642        55.14560        -0.87663
C         38.02851        57.15030        -1.24310
C         36.79292        56.45019        -1.30469
C         40.32719        14.33273         0.76229
C         40.16370        15.76953         0.45477
C         38.88018        16.47732         0.79150
C         40.27098        18.60349         1.39240
C         38.95674        17.93939         1.12855
C         40.31237        20.07604         1.39695
C         39.01115        20.80072         1.67178
C         40.24806        22.82673         1.80832
C         39.06725        22.28873         1.38852
C         40.35478        24.86217         1.05794
C         39.10666        25.20246         0.44021
C         40.51672        27.15496        -0.48294
C         39.17788        26.43512        -0.38964
C         40.53390        28.67437        -0.39038
C         39.20109        29.40777        -0.42864
C         40.33109        31.52729         0.41182
C         39.11166        30.81852        -0.01204
C         40.39940        32.98249         0.20935
C         39.20029        33.63689        -0.17939
C         40.54244        35.80820        -0.30889
C         39.24276        35.07238        -0.53286
C         40.47885        37.27319        -0.10177
C         39.28690        38.02664        -0.55863
C         40.28113        40.09647         0.57154
C         39.23410        39.51247        -0.33563
C         40.26421        41.57916         0.73977
C         39.04528        42.36193         0.40183
C         40.27867        44.42655         1.15117
C         39.01976        43.72677         0.77369
C         40.26109        45.88809         1.52847
C         38.88318        46.63059         1.48429
C         39.87773        48.89500         1.54885
C         38.84911        48.08811         1.12401
C         40.20233        50.19067         0.97729
C         38.97575        50.91144         0.43374
C         40.27071        53.08118         0.41269
C         39.00711        52.39741         0.32158
C         40.37555        54.45745         0.07636
C         39.13809        55.25752        -0.12456
C         40.46711        57.28265        -0.77903
C         39.19641        56.58965        -0.75880
C         40.58895        58.58174        -1.20434
C         42.75586        14.52369         0.59135
C         41.54995        13.76241         0.84105
C         42.70942        15.85170         0.31690
C         41.42497        16.63597         0.24483
C         42.89624        18.53888         1.30910
C         41.55624        17.83100         1.20195
C         42.78386        20.00310         1.63928
C         41.54113        20.69124         1.63953
C         42.81417        22.94775         1.56550
C         41.54597        22.15194         1.89067
C         42.82431        24.23181         0.72577
C         41.61796        25.15070         0.59841
C         42.93824        27.18191         0.46261
C         41.83965        26.39696        -0.23070
C         42.83652        28.61440         0.61448
C         41.69477        29.32502         0.30004
C         42.83692        31.58110         0.93729
C         41.60384        30.76662         0.68655
C         42.83109        32.95520         0.88565
C         41.63209        33.67259         0.43064
C         42.88919        35.81414         0.49503
C         41.68894        35.07306         0.26007
C         42.87229        37.22473         0.33688
C         41.61295        37.93436         0.25251
C         42.74763        40.13120         0.12951
C         41.61063        39.35102         0.77517
C         42.84280        41.58771         0.45669
C         41.56954        42.30616         0.87177
C         42.78365        44.44278         0.73799
C         41.57106        43.77100         0.81535
C         42.79928        45.88613         0.95419
C         41.61486        46.55803         1.37140
C         42.83433        48.73584         1.37247
C         41.76162        47.89908         1.74983
C         42.76546        50.17977         1.36224
C         41.46852        50.92290         1.34910
C         42.79231        53.04039         0.72667
C         41.48277        52.40194         0.94679
C         42.84061        54.38800         0.24435
C         41.62297        55.10594        -0.01888
C         42.94845        57.13968        -0.76549
C         41.67244        56.62156        -0.12336
C         43.00733        58.60672        -0.98055
C         41.85095        59.27814        -1.19008
C         44.81300        16.07488        -0.91071
C         43.89681        16.64861        -0.01447
C         45.28751        18.60722         0.15566
C         44.06884        17.96287         0.50886
C         46.15714        19.66184         0.83433
C         43.93682        20.80678         1.88608
C         45.41481        22.83092         1.40523
C         44.05154        22.13357         1.45965
C         45.26770        24.32973         1.17428
C         44.10365        25.01630         0.95253
C         45.30631        27.21533         1.10254
C         44.07067        26.47344         0.86202
C         45.27198        28.61770         1.19856
C         43.97824        29.31538         1.27531
C         45.27179        31.54091         1.81512
C         43.98283        30.81369         1.48320
C         45.27590        33.07111         1.82920
C         43.94450        33.81356         1.54457
C         45.28243        35.94509         0.91818
C         44.10496        35.18312         0.88217
C         45.30693        37.32799         0.52061
C         44.07317        37.95024         0.26178
C         45.27170        40.13272        -0.37640
C         44.00370        39.37011        -0.13830
C         45.23548        41.65966        -0.40050
C         44.02648        42.38946         0.08969
C         45.33968        44.44983         0.63215
C         44.01903        43.73891         0.39980
C         45.28531        45.96514         0.64272
C         44.03165        46.62098         0.89073
C         45.25979        48.78143         1.07282
C         44.04000        48.04424         1.04894
C         45.22406        50.19711         1.25001
C         43.96528        50.90133         1.24347
C         45.23856        53.02012         0.97034
C         43.98044        52.33487         1.01016
C         45.29076        54.38136         0.53887
C         44.10470        55.01939         0.09398
C         45.51968        56.96902        -0.65236
C         44.20575        56.32215        -0.58909
C         45.87580        16.81773        -1.41231
C         47.20285        18.95445        -1.45098
C         46.12383        18.07977        -0.86744
C         47.27126        20.41934        -1.11173
C         46.44276        20.91555         0.03493
C         47.25611        23.18852        -0.50014
C         46.36848        22.23607         0.31886
C         47.66843        24.39178         0.35724
C         46.54265        25.05595         1.16314
C         47.80344        27.22428         1.17565
C         46.52763        26.51391         1.17996
C         47.81542        28.69701         1.01573
C         46.49873        29.41467         1.04451
C         47.75623        31.23184         2.02050
C         46.53448        30.78580         1.58487
C         47.74617        33.41445         2.24695
C         46.56153        33.85630         1.72385
C         47.81397        36.08890         1.40355
C         46.50438        35.32478         1.46820
C         47.79814        37.51296         0.90026
C         46.52996        38.13136         0.41816
C         47.81317        40.16447        -0.40924
C         46.54209        39.43479        -0.05798
C         47.86177        41.68231        -0.52703
C         46.54043        42.41736        -0.47520
C         47.81587        44.59754        -0.03804
C         46.50571        43.88974        -0.17277
C         47.78048        46.04245         0.35975
C         46.47900        46.68981         0.64924
C         47.71530        48.79705         1.23748
C         46.50068        48.09424         0.95062
C         47.66230        50.18106         1.52245
C         46.44617        50.90482         1.40659
C         47.66172        53.07555         1.38645
C         46.45108        52.34854         1.31566
C         47.70977        54.44469         1.00847
C         46.54428        55.07731         0.50845
C         46.60583        56.39156        -0.08542
C         49.52170        19.09263        -2.30973
C         48.46358        18.35263        -1.94392
C         49.48859        20.60101        -2.41484
C         48.46883        21.21913        -1.46812
C         49.58843        23.39619        -1.77299
C         48.49766        22.53071        -1.13425
C         49.72533        24.79845        -1.16641
C         48.73110        25.29596        -0.17294
C         50.19793        27.37553         0.20919
C         49.02210        26.55327         0.57763
C         50.30859        28.71843         0.79925
C         49.10238        29.39906         1.21865
C         50.26468        31.59785         1.63403
C         49.05606        30.72505         1.60855
C         50.20398        33.09495         1.55555
C         49.12588        34.03004         2.21791
C         50.30741        35.94092         1.00938
C         49.07438        35.34017         1.46774
C         50.34788        37.37676         0.53352
C         49.08679        38.17576         0.57088
C         50.41100        40.20553        -0.18947
C         49.10894        39.44914        -0.22107
C         50.40135        41.73488        -0.16338
C         49.10578        42.44478        -0.17270
C         50.28741        44.51907         0.46841
C         49.09409        43.83055         0.06266
C         50.23373        45.88955         1.11993
C         49.04475        46.73248         0.72523
C         50.19269        48.74927         1.51057
C         48.99125        48.11230         1.25849
C         50.19071        50.15457         1.96575
C         48.87898        50.88434         1.97057
C         50.18886        53.10947         1.71455
C         48.88971        52.41384         1.87040
C         50.12446        54.52338         1.46035
C         48.95940        55.15450         1.13619
C         52.02761        20.63127        -2.69263
C         50.85036        21.27826        -2.27712
C         52.13051        23.34675        -2.04644
C         50.90691        22.64743        -1.93570
C         52.23366        24.79937        -1.74500
C         51.02878        25.54518        -1.27039
C         52.62751        27.27654        -0.22594
C         51.21188        26.81770        -0.51945
C         52.71581        28.72619         0.24548
C         51.50270        29.41216         0.75787
C         52.74076        31.60387         0.63295
C         51.59062        30.83322         1.17223
C         52.65282        33.06551         0.67394
C         51.52609        33.74728         1.39904
C         52.82844        35.98154         0.90145
C         51.59276        35.25253         1.29209
C         52.76146        37.44739         1.28144
C         51.59772        38.16736         0.63065
C         52.86574        40.27756         0.31642
C         51.59427        39.50364         0.36450
C         52.83799        41.75778         0.46629
C         51.61201        42.44719         0.30213
C         52.76540        44.56732         0.79551
C         51.53997        43.84178         0.55391
C         52.75556        45.99709         0.89335
C         51.50951        46.69738         1.02889
C         52.67239        48.86749         1.17323
C         51.46531        48.07653         1.28170
C         52.69905        50.25154         1.37054
C         51.47998        50.95019         1.86313
C         52.65763        53.11142         1.57593
C         51.40580        52.42633         1.73552
C         53.20657        21.34072        -2.88869
C         54.39612        23.53175        -3.07321
C         53.26523        22.71911        -2.61287
C         54.72592        24.78916        -2.37418
C         53.59611        25.40269        -1.53908
C         54.85020        27.53478        -1.50699
C         53.68569        26.83390        -1.23333
C         54.87093        28.97868        -1.14880
C         53.90125        29.54249        -0.14865
C         55.04641        31.77436        -0.25462
C         53.84039        31.02306         0.01942
C         55.13238        33.13117        -0.00577
C         53.89822        33.87282         0.28099
C         55.30182        35.93618         0.65893
C         53.99168        35.30693         0.65450
C         55.37440        37.38142         0.95713
C         54.09825        38.13961         1.10744
C         55.38280        40.26417         0.79946
C         54.12356        39.53721         0.59250
C         55.27381        41.70369         1.06503
C         54.01261        42.44616         0.82278
C         55.23259        44.64057         0.93243
C         54.01379        43.88349         0.85848
C         55.22893        46.04858         0.81250
C         53.97106        46.71567         0.81895
C         55.20566        48.97140         0.66899
C         53.89056        48.18098         0.70450
C         55.16221        50.38401         1.06012
C         53.91243        51.01610         1.25871
C         53.83916        52.44558         1.41578
C         56.11025        24.03885        -4.69942
C         55.08702        23.18876        -4.21126
C         56.43904        25.21793        -4.05301
C         55.78116        25.69828        -2.87035
C         57.21260        27.76428        -2.38758
C         55.95238        26.99494        -2.30399
C         57.32723        29.03326        -1.80825
C         56.12626        29.75360        -1.34307
C         57.38227        31.87284        -1.23320
C         56.33194        31.01395        -0.51785
C         57.52214        33.23403        -0.59201
C         56.40904        33.85208        -0.07412
C         57.76581        35.95627         0.40837
C         56.44880        35.25878         0.32043
C         57.79034        37.44046         0.50227
C         56.61755        38.12918         0.63307
C         57.83596        40.30742         0.61674
C         56.58926        39.58505         0.74720
C         57.75345        41.77269         0.53408
C         56.56284        42.46032         1.11563
C         57.81120        44.70680         0.94296
C         56.52412        43.95543         1.13047
C         57.73822        46.15717         0.71596
C         56.48752        46.80748         0.74217
C         57.68036        48.96986         0.84313
C         56.47978        48.23442         0.74790
C         57.60626        50.38883         1.04532
C         56.41165        51.05042         1.20581
C         59.69766        25.54520        -4.25252
C         58.52700        26.20390        -3.89020
C         59.72357        27.64220        -2.37548
C         58.46593        27.17717        -2.86659
C         59.79570        28.94070        -1.74159
C         58.59934        29.69587        -1.61250
C         59.92239        31.71616        -1.14757
C         58.67467        31.08354        -1.29869
C         60.02217        33.16921        -1.01937
C         58.75675        34.00607        -0.96672
C         60.22693        36.01472        -0.45499
C         58.97885        35.25971        -0.13840
C         60.33205        37.44660        -0.05285
C         59.08078        38.17223         0.43567
C         60.25127        40.39165         0.07740
C         59.03873        39.65726         0.35290
C         60.28679        41.80354         0.17674
C         59.03400        42.55979         0.30510
C         60.25020        44.70174         0.50861
C         59.06623        43.99774         0.61339
C         60.23005        46.16606         0.63504
C         58.97424        46.86873         0.67643
C         60.18623        48.99214         0.80081
C         58.95430        48.29318         0.76742
C         60.88931        25.86535        -3.58506
C         60.90512        26.92613        -2.69327
C         61.02876        29.55957        -1.42234
C         61.09167        30.90967        -1.14243
C         61.20337        33.85611        -1.09908
C         61.27778        35.29111        -0.93970
C         61.40843        38.30469        -0.57939
C         61.39846        39.65228        -0.41278
C         61.48187        42.58871         0.13941
C         61.46349        43.95881         0.25807
C         61.41386        46.90440         0.67819
C         61.38849        48.30625         0.75597
O         52.82129        33.62575        -0.67960
O         29.58178        46.54627        -2.46960
O         53.67411        39.72387        -0.80586
O         47.78341        32.23320         2.99067
O         58.06069        42.28769        -0.80298
O         36.23389        51.94040         1.40350
O         55.99649        41.96569         2.35371
O         51.84085        34.59998         2.57223
O         40.10508        29.34395        -1.60582
O         28.94736        25.55829        -0.54152
O         36.18515        37.65914        -2.39517
O         40.65596        31.02888         1.79544
O         47.66396        24.32610         1.77817
O         30.99428        29.57026         1.28221
O         40.10748        35.35832        -1.65107
O         23.25177        30.79536        -1.47466
O         41.30138        51.94003         2.36140
O         48.83048        26.61391         2.01491
O         47.01854        36.02931         2.65382
O         35.51134        43.92551         1.62872
O         29.13618        50.43262        -2.49794
O         47.18172        29.13942        -0.24972
O         38.24463        55.23190         1.03675
O         43.61355        29.90471         2.58215
O         33.87833        25.41243        -1.03583
O         39.00927        40.23695        -1.56573
O         40.27475        24.13866         2.25246
O         39.40163        18.09943         2.51131
O         38.01153        46.27283         2.59267
O         40.74006        48.43656         2.53984
O         51.00430        50.40682         3.14914
O         54.91278        37.86843         2.28761
O         48.61184        46.75142        -0.65931
O         48.47909        39.44317        -1.51977
O         46.56342        19.97289        -2.31121
O         35.47482        41.46437        -1.68996
O         38.96094        37.60780        -1.93231
O         34.70808        35.43948         0.27653
O         32.46509        50.54136        -2.29177
O         34.08958        46.49237        -1.82273
O         27.33843        40.02447        -3.03598
O         37.87681        27.91010        -1.87059
O         43.01822        39.67162        -1.20502
O         24.30375        39.18845        -3.52692
O         51.29120        31.11219         2.57157
O         57.28696        44.41467         2.30824
O         45.13355        40.86958        -1.62277
O         39.95333        50.25157        -0.46570
O         33.14771        24.33283         2.48086
O         40.27343        44.87214         2.56530
O         50.31311        36.32979        -0.46422
O         37.02266        34.28964        -2.12321
O         32.64138        43.88323        -2.32674
O         54.43651        48.69063        -0.55840
O         55.03335        29.86185        -2.32143
O         43.44387        56.35284        -1.87688
O         32.21253        37.45522         0.38509
O         29.28696        29.58605        -1.85157
O         39.84952        40.66443         1.84429
O         23.51957        33.98188         0.20208
O         47.21804        42.17132        -1.73723
O         25.37508        36.44829        -3.57232
O         33.99064        38.86941        -2.32098
O         54.62732        24.60646        -0.91523
O         26.45275        25.69916         3.22004
O         50.67163        40.94764        -1.39961
O         27.77803        31.84131        -2.60170
O         51.45779        25.63953        -2.68745
O         57.40016        25.98713        -4.69651
O         29.22002        47.68953         0.96038
O         22.69815        36.48015        -3.28760
O         31.63953        34.34594        -2.89459
O         42.48485        41.78147         1.87783
O         48.58372        25.62176        -1.59749
O         45.17662        32.29020         3.06290
O         33.15758        52.92849         0.32696
O         42.34337        22.80213         2.94008
O         47.03633        44.59541        -1.30760
O         53.90077        28.85104         1.14623
O         39.16516        16.06674        -0.59197
O         48.50762        38.37800         1.88860
O         58.69210        35.20313         1.28228
O         27.46601        35.20528        -3.22293
O         60.08308        37.66444         1.37911
O         42.38688        17.64122         2.37606
O         26.46883        43.70201         0.76070
O         39.93340        26.49371        -1.65222
O         47.06987        19.25740         1.55622
O         48.68758        51.71426         3.14758
O         33.85577        33.07091        -2.63629
O         44.99540        20.18480         2.47482
H         44.74624        19.28074         2.76026
O         33.33188        48.07234         1.42016
H         32.51974        48.63714         1.38739
O         45.69609        44.06404         2.00793
H         44.94543        44.29458         2.59712
O         37.63217        18.68294        -0.69372
H         36.79047        19.10493        -0.96712
O         41.35485        17.23432        -1.07047
H         40.47741        16.98975        -1.45607
O         36.35552        30.85552         1.48733
H         36.25267        31.79155         1.76081
O         30.87783        49.43215         0.55358
H         30.33086        48.90211         1.21702
O         52.42203        37.49020         2.69146
H         53.25024        37.30039         3.19155
O         38.88508        20.72733         3.14907
H         38.94686        19.76761         3.38202
O         56.93964        32.14374        -2.59765
H         56.34530        31.42107        -2.89991
O         36.40357        25.79645        -1.87259
H         36.64892        26.50650        -2.50994
O         46.02102        22.68069         2.70029
H         46.19501        21.72764         2.85924
O         43.38462        34.14201         2.84208
H         43.64122        33.41515         3.45773
O         41.87721        39.20829         2.17938
H         41.39117        39.92937         2.64887
O         42.93758        23.65106        -0.61328
H         42.97654        24.41181        -1.25254
O         46.46908        23.71758        -1.58774
H         47.08149        24.16789        -2.21519
O         49.13003        23.63353        -3.14643
H         49.70335        24.33806        -3.52660
O         28.67860        37.87460         0.33317
H         29.46428        38.15341         0.85235
O         26.24057        42.60228        -2.73360
H         26.39597        41.78311        -3.26275
O         58.50354        34.49186        -2.32408
H         58.07872        33.75596        -2.82562
O         56.89068        30.63385         0.76044
H         56.18675        30.22051         1.30415
O         37.68497        36.00459         1.03745
H         37.58519        35.11629         1.44077
O         52.94144        26.45294         0.94441
H         53.62924        26.93733         1.45855
O         50.00727        45.61082         2.54712
H         50.82851        45.22178         2.91624
O         41.70614        57.09704         1.25773
H         40.86085        56.84533         1.68788
O         33.70720        41.98721         1.50217
H         34.27321        42.59691         2.03394
O         42.39877        26.07847        -1.53819
H         41.63428        26.00021        -2.15899
O         49.48578        34.26495         3.59768
H         49.19145        33.48994         4.12271
O         49.04220        20.90143        -3.76418
H         48.90079        21.87876        -3.81514
O         26.04023        41.10139         0.64147
H         26.17156        41.95852         1.12411
H         23.02785        24.10153         2.87917
H         20.90230        25.35108         2.63383
H         20.90176        27.66441         1.77923
H         21.04225        29.58075         1.68601
H         20.96155        31.83209         0.73991
H         20.71906        32.92153        -1.30007
H         20.71355        34.93609        -2.76446
H         20.73551        37.69265        -2.07331
H         20.84410        39.86750        -0.90989
H         20.86018        41.67189        -0.39304
H         20.86904        44.03606         0.13699
H         20.91969        45.83716         0.69867
H         22.93580        49.61790         0.63339
H         20.89763        48.28302         0.99014
H         24.63517        22.97809         2.72313
H         24.46601        50.61524         0.18030
H         26.71202        21.74678         2.72129
H         26.46217        51.90199        -0.37428
H         30.34212        19.40896         2.33158
H         28.30086        20.71016         2.48190
H         30.27731        54.11275        -0.52591
H         28.15011        52.93545        -0.44364
H         31.95149        18.40949         2.15263
H         32.21868        54.83989        -2.25919
H         33.97813        17.10287         1.89685
H         34.36302        55.96043        -2.14855
H         37.62187        14.77124         1.51991
H         35.64180        16.11652         1.94794
H         38.04705        58.16471        -1.66382
H         35.94786        56.97158        -1.77282
H         39.41775        13.73546         0.91648
H         39.71331        59.13030        -1.57757
H         43.72270        14.00227         0.63682
H         41.64644        12.69379         1.07725
H         43.97681        59.11735        -1.05603
H         41.86009        60.35510        -1.40822
H         44.62337        15.06096        -1.28875
H         45.61483        57.92768        -1.17913
H         46.52169        16.40915        -2.20094
H         47.57262        56.90758        -0.14813
H         50.42886        18.56875        -2.64281
H         48.55007        17.25545        -1.92431
H         51.04388        55.12159         1.50394
H         48.98401        56.23658         0.95510
H         52.01242        19.56455        -2.95118
H         52.68082        54.20839         1.60745
H         54.08946        20.82494        -3.29019
H         54.75931        53.03718         1.32620
H         56.63163        23.78632        -5.63097
H         54.83833        22.27266        -4.76336
H         58.53439        50.96640         1.14363
H         56.43636        52.12177         1.44503
H         59.68159        24.80493        -5.06211
H         60.20332        50.08800         0.86048
H         61.81856        25.33318        -3.82860
H         61.86378        27.23901        -2.26048
H         61.96132        28.98061        -1.44545
H         62.06989        31.36644        -0.94139
H         62.15271        33.32585        -1.26073
H         62.24793        35.77334        -1.12734
H         62.25622        37.83248        -1.09644
H         62.25805        40.22890        -0.78323
H         62.45015        42.08656         0.00387
H         62.41671        44.49982         0.18868
H         62.38704        46.39645         0.65823
H         62.33572        48.86206         0.78376
