         324
 CSIRO Nanostructure Databank - Neutral Graphene Oxide Data Set
C          1.79510         2.33732        -2.27757
C          1.70741         3.70962        -1.97456
C          2.92008         1.61528        -1.93489
C          2.73425         4.38011        -1.30186
C          1.55389         6.59026        -1.45430
C          1.45254         7.93876        -1.11390
C          2.65098         5.82211        -1.02879
C          2.46948         8.58894        -0.40836
C          1.17673        10.82030        -0.43801
C          1.09424        12.14146        -0.21379
C          2.30609         9.99319         0.13830
C          2.18768        12.88936         0.45837
C          1.02246        15.18163         0.02237
C          1.16054        16.37810        -0.56731
C          2.18729        14.40667         0.50953
C          2.52077        16.95444        -0.87151
C          2.52061        18.46056        -0.93305
C          3.99392         2.25254        -1.25097
C          3.89241         3.63906        -0.90422
C          5.16717         1.53713        -0.93060
C          4.95342         4.25243        -0.16225
C          3.68461         6.46905        -0.30845
C          3.63166         7.86323        -0.03118
C          4.76555         5.65621         0.27749
C          4.81858         8.56646         0.46752
C          3.61963        10.75935         0.11421
C          3.53531        12.22664         0.40702
C          4.84701        10.02999         0.50093
C          4.70638        12.89602         1.04616
C          3.49136        15.12772         0.56150
C          3.58088        16.39428         0.05869
C          4.68816        14.43631         1.12044
C          4.75267        17.23352         0.37899
C          3.62304        19.19539        -0.68352
C          4.85313        18.59956        -0.18608
C          6.25047         2.16900        -0.29771
C          6.12313         3.53811         0.12072
C          7.46727         1.45710        -0.09681
C          7.29896         4.15287         0.78299
C          5.95581         6.40349         0.88129
C          5.98539         7.86550         0.71756
C          7.23077         5.63883         1.10626
C          7.29565         8.62725         0.72635
C          5.97535        10.73786         0.89317
C          5.99620        12.17768         1.01056
C          7.13575         9.95098         1.50888
C          7.20053        12.90213         1.09188
C          6.00851        15.08570         1.01767
C          6.01868        16.55896         0.87515
C          7.18290        14.35485         1.05553
C          7.29961        17.26585         0.65033
C          6.03223        19.28767        -0.12725
C          7.28724        18.67631         0.27704
C          8.66012         2.03890         0.38094
C          8.62663         3.45977         0.69814
C          9.84833         1.23976         0.27589
C          9.77364         4.24228         0.82181
C          8.47993         6.43637         1.12760
C          8.48406         7.79874         1.13018
C          9.71068         5.71478         0.72119
C          9.76444         8.52836         1.31885
C          8.49396        10.77224         1.59123
C          8.46161        12.18264         1.03122
C          9.72865         9.99416         1.18316
C          9.65092        12.81155         0.68320
C          8.47536        15.08984         0.97629
C          8.46672        16.54918         0.69320
C          9.72006        14.30226         0.65068
C          9.77232        17.23445         0.60555
C          8.46560        19.37721         0.13040
C          9.77571        18.76641         0.36023
C         11.09801         1.57305         0.81522
C         11.07616         3.70077         1.06096
C         12.39675         1.14703         0.48194
C         12.30258         4.23334         0.62781
C         10.98649         6.43404         0.45742
C         11.08653         7.80506         1.05306
C         12.26923         5.67112         0.06334
C         12.34691         8.56947         0.96198
C         10.91311        10.66740         0.94381
C         10.91076        12.09967         0.66152
C         12.18831         9.96619         1.04760
C         12.11819        12.76681         0.37651
C         10.85856        14.98738        -0.05802
C         10.88745        16.47566        -0.00861
C         12.16400        14.15097        -0.15682
C         11.82980        17.21545        -0.68287
C         10.99757        19.41261        -0.17874
C         12.07658        18.64594        -0.56046
C         13.54451         1.98742         0.63728
C         13.48458         3.43866         0.58095
C         14.81945         1.34632         0.54820
C         14.73765         4.10402         0.15219
C         13.53003         6.43422         0.42680
C         13.58686         7.79315         0.78217
C         14.73680         5.68078         0.08301
C         14.90781         8.40439         0.74745
C         13.28104        10.85847         1.25300
C         13.35391        12.13060         0.71372
C         15.15130         9.76615         1.09621
C         14.67168        12.75515         0.38608
C         13.47234        14.85501        -0.11825
C         13.58830        16.13093        -0.62807
C         14.70003        14.23900         0.33774
C         14.64492        17.06322        -0.28601
C         13.41144        19.17625        -0.84482
C         14.61769        18.48377        -0.74999
C         16.04702         2.02914         0.47455
C         16.04342         3.45084         0.30458
C         17.29760         1.34160         0.38137
C         17.26108         4.14745         0.13661
C         16.04646         6.31164         0.14344
C         16.06184         7.72092         0.26762
C         17.24572         5.59009        -0.00237
C         17.25202         8.42983        -0.07905
C         16.09423        10.54760         0.47163
C         15.98148        12.01845         0.29057
C         17.17755         9.87727        -0.21343
C         17.27774        12.75337         0.39452
C         15.90584        14.90481         0.25512
C         15.94078        16.37372         0.10884
C         17.19873        14.22753         0.55598
C         17.16325        17.00153        -0.51906
C         15.89371        19.14911        -0.81241
C         17.12678        18.50997        -0.61678
C         18.52046         1.99807         0.26194
C         18.52622         3.45794         0.21875
C         19.70709         1.17943        -0.02408
C         19.71296         4.23652         0.10126
C         18.45791         6.32356        -0.18623
C         18.45504         7.74863        -0.31598
C         19.68526         5.62847        -0.21979
C         19.70197         8.48059        -0.42755
C         18.52375        10.68302        -0.24767
C         18.47117        12.07767         0.27991
C         19.72910         9.86986        -0.25086
C         19.76295        12.76221         0.51523
C         18.48488        15.02080         0.44487
C         18.47142        16.41300        -0.06297
C         19.79050        14.27164         0.45775
C         19.62958        17.07685        -0.35055
C         18.37451        19.18697        -0.67510
C         19.62179        18.51874        -0.60390
C         20.98367         1.54340         0.32670
C         21.02135         3.69921         0.36067
C         22.29199         1.09243        -0.07193
C         22.18570         4.16449        -0.21850
C         20.89866         6.32917        -0.50204
C         20.93736         7.72989        -0.56710
C         22.10216         5.52544        -0.79432
C         22.20864         8.42149        -0.67623
C         21.01894        10.53141         0.02749
C         21.04279        11.99291         0.33944
C         22.25369         9.85046        -0.42778
C         22.34088        12.80138         0.22871
C         20.99960        14.91852        -0.09786
C         20.89379        16.32540        -0.51770
C         22.18688        14.24064        -0.23908
C         22.18120        17.10856        -0.68316
C         20.85986        19.21661        -0.60880
C         22.12156        18.57765        -0.52927
C         23.42313         1.91627        -0.11431
C         23.43108         3.39652        -0.23864
C         24.69742         1.24633        -0.13765
C         24.61448         4.04545        -0.56593
C         23.39326         6.26449        -1.06585
C         23.40849         7.72272        -0.87524
C         24.66180         5.48783        -0.91223
C         24.67510         8.40784        -0.73199
C         23.40960        10.58038        -0.58671
C         23.38915        12.06182        -0.59347
C         24.65785         9.88127        -0.91439
C         24.69157        12.83682        -0.76355
C         23.43145        14.96433        -0.46278
C         23.43675        16.38410        -0.45992
C         24.66864        14.27981        -0.46806
C         24.63803        17.10769        -0.31959
C         23.34089        19.24379        -0.32533
C         24.58480        18.55149        -0.24332
C         25.90705         1.90235        -0.25256
C         25.93408         3.32017        -0.76330
C         27.15341         1.25137        -0.03704
C         27.13085         4.08866        -0.21146
C         25.91680         6.27748        -0.61245
C         25.86364         7.75065        -0.50198
C         27.05561         5.53527        -0.00110
C         27.05533         8.51063         0.06720
C         25.97836        10.65730        -0.84039
C         25.95504        12.10982        -0.66614
C         27.17680         9.92911        -0.42315
C         27.12691        12.80114        -0.31127
C         25.90017        14.97256        -0.31581
C         25.88676        16.42289        -0.23951
C         27.09874        14.22893        -0.18647
C         27.10928        17.15305        -0.20748
C         25.79808        19.23565        -0.02944
C         27.05347        18.59372        -0.04088
C         28.34889         1.96832         0.03925
C         28.32212         3.42474         0.04286
C         29.60307         1.29842         0.21849
C         29.56476         4.15593         0.23502
C         28.34949         6.32933         0.24027
C         28.36489         7.76995        -0.01017
C         29.60251         5.57133         0.21924
C         29.58772         8.46128        -0.02315
C         28.36819        10.63986        -0.21753
C         28.37346        12.07362        -0.19881
C         29.61004         9.90835        -0.06715
C         29.61244        12.78695        -0.08017
C         28.33583        14.94880         0.28425
C         28.33295        16.38680        -0.18876
C         29.62503        14.21219        -0.02407
C         29.55352        16.95158        -0.49069
C         28.20770        19.39477         0.32220
C         29.48698        19.07251        -0.07393
C         30.77575         1.99887         0.32924
C         30.79054         3.43302         0.30703
C         32.01122         4.15052         0.33084
C         30.83151         6.28407         0.17277
C         30.82801         7.73243         0.08424
C         32.03499         5.53016         0.23954
C         32.03070         8.47563         0.11426
C         30.83353        10.60889        -0.03426
C         30.84622        12.06369        -0.07855
C         32.03934         9.85750         0.04965
C         32.05448        12.79585        -0.10401
C         30.84595        14.91029        -0.08481
C         30.82668        16.37725        -0.15272
C         32.05724        14.18060        -0.14038
C         31.90660        17.20335         0.13166
C         30.76253        19.44387         0.47081
C         31.85893        18.60635         0.42209
O          9.48143        14.79903         2.01350
O         12.67757        16.56098        -1.59609
O         23.75101        12.56950        -1.89399
O         15.19172        12.28338        -0.93676
O         19.93927        13.56616         1.73327
O         14.33444        10.38711         2.03386
O         10.02018         6.29545        -0.65130
O         15.14612        17.05032         1.10749
O         25.35259        10.25457        -2.14315
O          5.10662        17.22044         1.80829
O          7.09959         4.64588         2.16403
O         27.40638         5.96082         1.35427
O         11.08928         2.54849         1.84217
O         17.80984        14.84859         1.74044
O         11.27322        14.36400        -1.29945
O         29.57384        18.17678        -1.16470
O         22.58495         5.73638        -2.16629
O         17.68197        10.47498        -1.42588
O          4.87921         5.89687         1.71849
O         10.53959         7.92038         2.41227
O         10.03021        18.16641         1.68649
O         25.63663         5.80320        -1.98103
O         14.61584         4.83131        -1.09941
O          6.70265         9.64648         2.79506
O          4.45472        13.60035         2.28704
O         21.45132        16.58970        -1.85149
O         21.14410        11.00674         1.43153
O          3.80705        11.74159        -0.95807
O          1.87403        13.58158         1.68526
O         21.07412         2.62266         1.23995
O          2.02040         9.82823         1.55878
H          1.25393         9.22610         1.65570
O         12.27587         5.57012        -1.37625
H         11.34209         5.67016        -1.67954
O          2.88604        16.50746        -2.22413
H          2.77207        15.53422        -2.25825
O         17.06469        16.51724        -1.91232
H         17.79212        16.92814        -2.42769
O         26.13926         3.18199        -2.20581
H         26.03525         4.08511        -2.59323
O         22.90489        12.88233         1.56501
H         22.15436        12.94970         2.19728
O          7.60530         9.01713        -0.64897
H          7.87336         8.21924        -1.15252
O          8.74886        10.96519         3.00519
H          7.99721        10.47941         3.46546
O         26.73925         8.62757         1.51663
H         26.88441         7.72708         1.90029
O         28.25090        14.95757         1.75605
H         27.39428        15.37006         1.99780
H          0.96312         1.84879        -2.80328
H          0.80228         4.24853        -2.28359
H          3.00236         0.54855        -2.18670
H          0.73303         6.13212        -2.02076
H          0.55000         8.48424        -1.42054
H          0.34012        10.31902        -0.94661
H          0.21008        12.70277        -0.55234
H          0.02254        14.77043         0.22453
H          0.27313        16.94112        -0.89435
H          1.60645        18.94968        -1.30237
H          5.25033         0.47854        -1.21794
H          3.60936        20.28521        -0.83967
H          7.49462         0.40240        -0.41091
H          6.06895        20.32687        -0.48883
H          9.77762         0.32998        -0.33990
H          8.43753        20.39066        -0.29893
H         12.54820         0.16040         0.01850
H         11.05488        20.51201        -0.18123
H         14.83520         0.24622         0.54414
H         13.47148        20.26554        -1.00763
H         17.28364         0.24120         0.39094
H         15.89627        20.23401        -1.00598
H         19.54552         0.25650        -0.60163
H         18.37286        20.28189        -0.79157
H         22.43929         0.02065        -0.28337
H         20.83368        20.31713        -0.62479
H         24.70225         0.16389         0.06868
H         23.34487        20.33937        -0.22083
H         27.16525         0.16371         0.13424
H         25.77065        20.32706         0.10842
H         29.61237         0.19884         0.23720
H         28.04266        20.24475         1.00162
H         31.73237         1.46573         0.42872
H         32.95634         3.59162         0.38980
H         33.00720         6.03998         0.22455
H         32.99397         7.95512         0.19749
H         33.00841        10.37257         0.07667
H         33.01900        12.27153        -0.11860
H         33.01407        14.71728        -0.19932
H         32.87190        16.72073         0.35050
H         30.86322        20.41372         0.98103
H         32.80078        19.01860         0.81788
