         490
 CSIRO Nanostructure Databank - Neutral Graphene Oxide Data Set
C         37.59111        50.07734        -0.43207
C         36.38564        50.75346        -0.53797
C         37.50616        52.83943        -0.05935
C         36.34158        52.14295        -0.34216
C         40.14144        48.65009        -0.19917
C         40.05020        50.05905         0.04895
C         38.79208        50.76446        -0.13270
C         39.98678        52.90466         0.27797
C         38.75159        52.17427         0.04343
C         40.01236        54.31495         0.20879
C         42.47446        48.56892         0.50083
C         41.31242        47.94846        -0.03217
C         42.38045        49.97982         0.85364
C         41.18611        50.75495         0.49698
C         42.42253        52.93091         0.66058
C         41.20228        52.20004         0.53087
C         42.42124        54.32401         0.50446
C         41.20767        55.00600         0.28953
C         44.94048        45.77288         0.69349
C         43.74878        46.44828         0.65768
C         44.94521        48.59298         0.81016
C         43.69794        47.87330         0.70341
C         44.95560        50.00775         0.78391
C         43.75385        50.75969         1.05623
C         44.94213        52.94938         0.45314
C         43.73463        52.28402         1.08395
C         44.96567        54.31362         0.41591
C         43.69334        55.11669         0.30439
C         45.00643        57.06776         1.01128
C         43.81678        56.41962         1.04673
C         47.48252        44.29786         0.84842
C         47.44757        45.73951         0.71695
C         46.19105        46.46823         0.74974
C         47.48380        48.62306         1.00041
C         46.18426        47.87162         0.78800
C         47.47089        50.02594         0.44653
C         46.17534        50.68772         0.28999
C         47.45175        52.90805         0.05381
C         46.16191        52.19154         0.11245
C         47.42621        54.31175         0.10024
C         46.21136        55.04572         0.28968
C         47.45162        57.20043         0.41148
C         46.21598        56.44169         0.50308
C         47.48811        58.61102         0.51495
C         49.94494        44.29704         0.84404
C         48.64229        43.59659         0.93051
C         49.87586        45.63982         0.12750
C         48.65509        46.44347         0.52803
C         49.90210        48.55832         0.27269
C         48.69585        47.85287         0.53241
C         49.91737        49.98474         0.20509
C         48.66283        50.71024         0.20375
C         49.92021        52.83300        -0.03213
C         48.67513        52.15599         0.00823
C         49.95682        54.29652        -0.18928
C         48.65928        55.07688        -0.11232
C         49.90224        57.21824         0.23361
C         48.68202        56.52175         0.20668
C         49.92211        58.62836         0.33820
C         48.68687        59.30637         0.43286
C         52.48006        41.40196         0.64476
C         51.34471        42.08815         0.88062
C         52.43873        44.29341         0.29333
C         51.26580        43.56691         0.83752
C         52.39783        45.65358         0.04883
C         51.16327        46.42416         0.16065
C         52.38174        48.55744        -0.27145
C         51.13074        47.80344         0.11117
C         52.39347        50.02739         0.05920
C         51.16200        50.70933         0.11172
C         52.40613        52.86895         0.06900
C         51.15933        52.14648         0.06180
C         52.40712        54.33217         0.07334
C         51.21481        55.01246         0.06946
C         52.38199        57.20909        -0.22454
C         51.21153        56.48005         0.42158
C         52.39935        58.65394         0.20840
C         51.21641        59.33414         0.38802
C         52.43314        61.47515         0.43960
C         51.27086        60.77104         0.59113
C         55.03361        39.92213        -0.02533
C         54.97597        41.34231        -0.08488
C         53.78402        42.07242         0.41766
C         54.83161        44.21806        -0.57481
C         53.73670        43.56906         0.24493
C         54.84473        45.69524        -0.26911
C         53.66643        46.36425        -0.11104
C         54.90474        48.61146         0.11808
C         53.63360        47.83070         0.15015
C         54.87898        50.08095         0.00748
C         53.62679        50.74855         0.09232
C         54.88413        52.92903         0.52050
C         53.61388        52.17524         0.17387
C         54.91626        54.27459        -0.23522
C         53.66754        55.07978         0.03970
C         54.92868        57.20084        -0.10172
C         53.68400        56.45238        -0.01485
C         54.92485        58.60571        -0.02446
C         53.71316        59.33342         0.50589
C         54.88068        61.50845        -0.02655
C         53.69628        60.82185         0.22004
C         54.93570        62.96006        -0.09842
C         57.35998        39.88011        -0.96176
C         56.15130        39.21513        -0.37514
C         57.35024        41.37123        -0.76369
C         56.17131        42.06054        -0.45050
C         57.36497        44.21142        -0.67969
C         56.16999        43.51273        -0.49282
C         57.39899        45.68983        -0.50329
C         56.13162        46.41339        -0.23770
C         57.35338        48.63446        -0.64491
C         56.08629        47.88930        -0.42563
C         57.39436        50.01264        -0.06913
C         56.12443        50.79626         0.03217
C         57.44187        52.90853         0.55970
C         56.15976        52.15566         0.26236
C         57.40037        54.35146         0.04493
C         56.21582        55.03819        -0.05919
C         57.36516        57.23475        -0.22506
C         56.17745        56.49417        -0.16731
C         57.35820        58.65018        -0.32979
C         56.12671        59.34869        -0.18431
C         57.34491        61.47158        -0.37267
C         56.13185        60.78511        -0.19887
C         57.41292        62.97757        -0.51376
C         56.08528        63.64144        -0.28279
C         59.95138        37.16054        -0.31792
C         58.74886        37.81666        -0.57547
C         59.86082        39.96248        -0.38551
C         58.68156        39.21844        -0.58045
C         59.80299        41.46937        -0.25418
C         58.63892        42.07146        -1.09630
C         59.83327        44.28101        -0.86656
C         58.60680        43.55711        -0.86502
C         59.84621        45.68843        -0.92577
C         58.55151        46.42716        -1.15580
C         59.82405        48.57602        -0.86796
C         58.61987        47.89333        -0.78636
C         59.88594        50.02811        -0.69294
C         58.72369        50.69681        -0.04561
C         59.97899        52.91660        -0.24936
C         58.75784        52.17754         0.20185
C         59.92981        54.38245        -0.41958
C         58.69427        55.07873         0.01945
C         59.84610        57.28643        -0.65290
C         58.66894        56.56476        -0.12937
C         59.82343        58.64617        -0.70979
C         58.58812        59.36803        -0.46039
C         59.85499        61.49448        -0.42590
C         58.57772        60.77025        -0.45802
C         59.85868        62.83827         0.00104
C         58.55114        63.49297         0.40638
C         59.85715        65.62512         0.57306
C         58.65948        64.98883         0.46504
C         62.37473        36.00901         1.07332
C         62.42729        37.11130         0.02516
C         61.13463        37.88142        -0.13529
C         62.34333        40.06504        -0.21955
C         61.10348        39.29688        -0.21386
C         62.34274        41.46354        -0.46775
C         61.10822        42.17685        -0.56476
C         62.33178        44.29106        -0.90833
C         61.10248        43.56171        -0.79642
C         62.32616        45.71169        -1.07270
C         61.05881        46.41897        -1.03402
C         62.22158        48.53402        -1.59132
C         61.03062        47.82282        -1.11245
C         62.15440        50.03224        -1.68879
C         61.00092        50.75286        -1.08466
C         62.21997        52.92317        -1.24183
C         61.08747        52.18911        -0.91305
C         62.27894        54.35394        -1.09147
C         61.03881        55.06525        -0.84420
C         62.32441        57.24245        -0.98734
C         61.01235        56.52711        -1.22062
C         62.32481        58.63189        -0.94032
C         61.03858        59.39837        -1.21231
C         62.30570        61.49058        -0.53744
C         61.06915        60.82000        -0.69726
C         62.30299        62.85342        -0.16000
C         61.08788        63.53538         0.11952
C         62.35472        65.55400         0.85125
C         61.10812        64.92638         0.50163
C         62.39564        66.89266         1.41485
C         64.81597        35.96004         1.00886
C         63.51021        35.42114         1.48392
C         64.79579        37.42366         0.73742
C         63.61759        38.00267         0.28529
C         64.81769        40.10456        -0.09439
C         63.58099        39.39582        -0.00654
C         64.81667        41.48749        -0.45747
C         63.59055        42.17138        -0.60283
C         64.79995        44.31339        -0.90413
C         63.58360        43.59845        -0.82251
C         64.80110        45.74914        -1.07469
C         63.53226        46.43498        -1.19787
C         64.71298        48.57934        -1.52004
C         63.53257        47.85065        -1.46554
C         64.72131        50.01071        -1.70090
C         63.44990        50.76333        -1.85227
C         64.72194        52.94641        -1.43859
C         63.45144        52.25124        -1.70182
C         64.75106        54.31613        -1.23332
C         63.50147        55.05063        -1.14003
C         64.77737        57.16652        -0.85875
C         63.54195        56.48951        -0.98073
C         64.78180        58.59903        -0.74341
C         63.55975        59.33793        -0.80033
C         64.80515        61.42436        -0.51805
C         63.57163        60.76312        -0.65880
C         64.86729        62.88874        -0.30133
C         63.56367        63.61046        -0.07496
C         64.82007        65.37150         1.32287
C         63.55951        64.88607         0.65130
C         64.84851        66.86681         1.52718
C         63.57423        67.52582         1.67166
C         67.35316        33.38757         2.20924
C         66.19688        33.91940         1.75098
C         67.43870        36.09528         1.10260
C         66.13896        35.26659         1.15540
C         67.15587        37.54134         1.56837
C         66.00277        38.16593         0.80441
C         67.35202        40.05523        -0.11712
C         66.03100        39.44691         0.26206
C         67.27875        41.53326        -0.36927
C         66.08264        42.18936        -0.59939
C         67.25730        44.33910        -0.90749
C         66.06654        43.62649        -0.83745
C         67.29732        45.82607        -0.72755
C         65.98867        46.47203        -1.05214
C         67.24510        48.55881        -1.65840
C         66.00237        47.96858        -1.02406
C         67.17832        49.99324        -2.10749
C         65.91211        50.69738        -1.69046
C         67.25786        52.85624        -1.33420
C         65.93734        52.13717        -1.38425
C         67.23723        54.33040        -1.31586
C         66.02226        55.01758        -1.14819
C         67.26083        57.08972        -0.72592
C         66.03101        56.43431        -0.91530
C         67.27689        58.53596        -0.28976
C         66.01372        59.30054        -0.61843
C         67.31031        61.44796        -0.52427
C         66.02314        60.69452        -0.53791
C         67.33317        62.80671         0.05864
C         66.12457        63.49330         0.22538
C         67.32960        65.43698         1.07492
C         66.11373        64.79671         0.78427
C         67.32926        66.79991         1.62305
C         66.05411        67.50889         1.75263
C         67.26643        69.55199         2.37795
C         66.12198        68.93881         2.01718
C         69.82394        32.15899         3.18955
C         69.78439        33.52841         2.80827
C         68.59076        34.13832         2.27926
C         69.72930        36.29704         2.14738
C         68.59307        35.50173         1.90646
C         69.67728        37.81483         2.18657
C         68.40555        38.41962         1.59731
C         69.78377        40.37823         0.61510
C         68.47380        39.70183         0.83906
C         69.81266        41.62893        -0.03330
C         68.56989        42.17660        -0.62385
C         69.78997        44.44033        -0.86870
C         68.54309        43.66141        -0.97071
C         69.75453        45.80816        -1.28093
C         68.49997        46.48358        -1.38881
C         69.61663        48.54455        -2.49722
C         68.42179        47.84007        -1.80749
C         69.76319        49.95626        -1.82245
C         68.47724        50.75510        -1.82837
C         69.71250        52.95777        -2.02793
C         68.48623        52.10544        -1.68654
C         69.70944        54.29385        -1.32597
C         68.49148        55.00678        -1.20606
C         69.76121        57.03020        -0.61954
C         68.49724        56.39435        -0.84130
C         69.81547        58.51217        -0.29901
C         68.55294        59.19723        -0.85700
C         69.86593        61.34206        -0.19505
C         68.60327        60.71214        -0.66773
C         69.82476        62.68831         0.27498
C         68.57437        63.40591         0.40467
C         69.81010        65.38464         1.21064
C         68.56984        64.74996         0.87916
C         69.83827        66.86085         1.52527
C         68.50517        67.42925         1.94650
C         69.82282        69.52158         2.49353
C         68.51465        68.76529         2.67022
C         69.86315        70.92195         2.44029
C         72.16960        32.33713         3.74868
C         70.98978        31.57566         3.64949
C         72.16330        33.67200         3.38435
C         70.98275        34.29825         2.91124
C         72.12924        36.49330         2.55402
C         70.94937        35.70390         2.57492
C         72.14146        37.79485         2.03893
C         70.96465        38.46847         1.70589
C         72.18160        40.52369         0.95240
C         70.97701        39.78727         1.11170
C         72.19021        41.79127         0.39644
C         71.01047        42.39247        -0.10157
C         72.18878        44.55053        -0.68210
C         71.00238        43.78463        -0.57368
C         72.17202        45.85266        -1.17849
C         70.97681        46.50099        -1.52709
C         72.19195        48.62095        -2.24258
C         70.97896        47.72776        -2.42575
C         72.20056        49.95672        -2.31867
C         70.93652        50.76666        -2.48342
C         72.06840        52.71441        -1.25229
C         70.97262        52.15272        -1.87513
C         72.08841        54.07317        -0.86553
C         70.93343        54.88986        -0.92730
C         72.19074        57.01529        -0.31358
C         70.94697        56.30221        -0.60156
C         72.27876        58.36004        -0.36865
C         71.09659        59.20016        -0.81161
C         72.26810        61.29792         0.08908
C         71.07935        60.63530        -0.27428
C         72.25102        62.60797         0.53591
C         71.04102        63.33265         0.64731
C         72.24763        65.38741         1.49976
C         71.01702        64.70372         1.10668
C         72.24538        66.57063         2.14081
C         70.96162        67.27372         2.50605
C         72.24831        69.48963         2.36245
C         71.03489        68.79504         2.45929
C         72.27372        70.88403         2.30678
C         71.07899        71.60121         2.34336
O         58.21020        49.99522         1.14687
O         58.92025        55.94064         1.20204
O         42.96064        50.25536         2.17230
O         49.28814        54.78270        -1.41757
O         63.41350        51.63104        -3.04400
O         59.80818        52.49867         1.17883
O         64.28765        63.68446        -1.38995
O         54.30106        48.17395         1.39424
O         68.67849        42.62897        -2.01677
O         66.66385        52.33290        -0.08224
O         54.14587        43.01164         1.51893
O         56.40962        48.40690        -1.75922
O         68.07638        39.70417         2.25844
O         50.73044        44.22363         2.06321
O         61.88874        49.21268        -2.87491
O         69.29724        48.70054        -3.85576
O         57.05863        46.06401         0.86709
O         68.01610        61.39598        -1.83572
O         45.96119        51.28878        -1.05132
O         65.42293        35.23874        -0.14739
O         67.06149        49.98547        -3.55846
H         67.85410        49.46320        -3.91132
O         68.51172        58.93919        -2.28196
H         68.09214        59.73636        -2.69288
O         54.85620        53.92071        -1.65231
H         54.63270        54.72771        -2.16197
O         43.63502        55.48795        -1.12234
H         44.46580        55.96495        -1.33581
O         58.27061        46.35250        -2.59230
H         58.97524        46.84482        -3.06482
O         59.46627        41.76694         1.13008
H         60.19483        41.44353         1.69994
O         60.91830        59.46420        -2.66682
H         60.83146        58.53153        -2.98255
O         67.89448        36.14293        -0.26237
H         67.12743        35.90138        -0.83280
O         64.73088        64.79186         2.69095
H         65.51454        65.10928         3.18943
O         68.44217        68.45160         4.11924
H         67.58233        68.00699         4.27910
O         49.67600        45.27251        -1.28144
H         49.62259        46.10108        -1.80285
O         71.15151        47.10658        -3.72146
H         70.44152        47.53431        -4.28877
O         51.46532        56.53784         1.85980
H         50.78890        55.99854         2.31957
O         54.40584        44.06029        -1.97032
H         55.02074        44.57208        -2.53820
O         71.16004        59.25672        -2.25115
H         70.24219        59.14230        -2.60511
O         58.95336        41.84487        -2.49684
H         58.55299        40.97780        -2.75937
O         60.80588        56.55406        -2.68778
H         61.53720        56.04141        -3.09632
O         43.88199        52.63919         2.50066
H         43.36546        51.97027         3.00843
O         67.56453        46.06544         0.71443
H         67.28767        47.00152         0.89177
O         62.66501        36.44531        -1.25233
H         63.51019        35.94953        -1.17597
O         67.31079        58.55186         1.17770
H         66.53250        58.04658         1.49565
O         66.70182        37.41713         2.93937
H         66.78148        38.30614         3.34993
O         58.20643        63.03406         1.74730
H         58.90347        63.34535         2.36178
O         70.16469        67.53739         0.26675
H         69.52229        67.23784        -0.41064
O         57.46588        53.06976         2.00915
H         58.41597        53.15950         2.26815
O         70.09608        49.70236        -0.44154
H         69.80209        50.45998         0.10605
O         70.64209        66.84840         3.84794
H         69.91973        67.43232         4.19321
O         54.78494        53.21450         1.93832
H         55.70011        53.25192         2.31149
O         52.15578        57.20598        -1.66415
H         52.81096        57.80401        -2.07973
O         57.83220        63.29828        -1.86676
H         57.17090        62.92973        -2.48823
O         57.27749        39.66787        -2.44305
H         56.38841        39.97271        -2.72720
O         67.74128        39.44215        -1.38800
H         67.20910        39.85044        -2.10312
O         69.51801        53.27578        -3.44203
H         69.81758        52.47151        -3.94784
O         47.63253        48.77232         2.46577
H         47.73396        47.87162         2.84158
O         53.86694        59.23618         1.97330
H         53.05275        59.60776         2.37523
O         69.63936        38.12188         3.62234
H         69.31204        39.04864         3.69047
O         66.10377        48.36996         0.41642
H         65.26534        48.09969         0.85034
O         70.64700        50.91261        -3.89062
H         70.18115        50.06394        -4.17915
O         52.43180        48.49570        -1.74418
H         51.69013        49.03540        -2.09155
O         69.90603        58.67407         1.13176
H         69.05610        58.37722         1.53488
H         37.59498        48.98809        -0.56930
H         35.46352        50.20033        -0.76357
H         37.44453        53.92452         0.09707
H         35.38451        52.67799        -0.41279
H         39.26714        48.11354        -0.58866
H         39.08923        54.87772         0.01943
H         41.33894        46.88375        -0.30125
H         41.21972        56.09606         0.15165
H         44.92377        44.67608         0.66386
H         42.81222        45.87566         0.61834
H         45.08877        58.07008         1.45612
H         42.93100        56.89495         1.49245
H         46.53666        43.75146         0.96271
H         46.55466        59.17752         0.63436
H         48.61844        42.52024         1.15302
H         48.65888        60.40320         0.48202
H         52.44652        40.30246         0.65273
H         50.42120        41.53189         1.09935
H         52.38962        62.57256         0.48178
H         50.34071        61.32363         0.77915
H         54.16060        39.36802         0.34843
H         54.00121        63.52771         0.01633
H         56.13226        38.11881        -0.30663
H         56.04892        64.73912        -0.35216
H         59.97890        36.06206        -0.31161
H         57.85121        37.22001        -0.78522
H         59.86334        66.71691         0.70301
H         57.73302        65.57531         0.54783
H         61.39793        35.63730         1.41919
H         61.45524        67.43404         1.58315
H         63.49113        34.57274         2.18458
H         63.54528        68.56807         2.01839
H         67.33344        32.35816         2.59020
H         65.27853        33.31530         1.73578
H         67.24950        70.63142         2.58207
H         65.21266        69.54234         1.88922
H         68.92249        31.53677         3.11690
H         68.93709        71.51133         2.47441
H         73.09359        31.87120         4.11784
H         70.99699        30.51515         3.93671
H         73.09297        34.24880         3.47870
H         73.09296        36.04224         2.82500
H         73.11928        38.26745         1.86985
H         73.13058        40.10838         1.31623
H         73.14420        42.33353         0.35268
H         73.16194        44.09765        -0.44785
H         73.13538        46.35763        -1.32997
H         73.16450        48.10595        -2.19100
H         73.16664        50.48544        -2.31261
H         72.99356        52.13237        -1.13062
H         73.03766        54.49295        -0.50639
H         73.08832        56.42782        -0.07003
H         73.25501        58.83602        -0.19541
H         73.23386        60.78174         0.00792
H         73.20512        63.07998         0.80297
H         73.21054        64.89492         1.30619
H         73.19866        66.98132         2.50438
H         73.19987        68.94249         2.32693
H         73.23434        71.41231         2.23164
H         71.08946        72.69909         2.30014
