         349
 CSIRO Nanostructure Databank - Neutral Graphene Oxide Data Set
C          1.57421         2.11096         2.26803
C          1.47802         3.48696         2.04474
C          2.70066         1.39986         1.86495
C          2.53093         4.17869         1.39851
C          1.25423         6.34327         1.21613
C          1.23562         7.69717         1.32406
C          2.49451         5.61537         1.19967
C          2.50142         8.39174         1.75696
C          1.23466        10.69221         1.45563
C          1.18385        12.00323         1.12682
C          2.48878         9.93629         1.69528
C          2.37204        12.87819         1.07381
C          1.19580        14.93902         0.17261
C          1.20516        16.29704        -0.28248
C          2.34009        14.26189         0.52079
C          2.36748        17.03626        -0.38430
C          2.42376        18.37204        -0.92914
C          3.77484         2.06015         1.20759
C          3.67824         3.46163         0.99805
C          4.95005         1.34023         0.83528
C          4.64900         4.17654         0.09931
C          3.69931         6.33861         0.93925
C          3.71922         7.75265         1.09320
C          4.86756         5.63360         0.47834
C          4.89427         8.47478         0.78404
C          3.77093        10.67307         1.37204
C          3.72317        12.16448         1.13436
C          4.93363         9.90585         0.86096
C          4.90676        12.82454         0.55213
C          3.63124        14.99033         0.54801
C          3.63578        16.45258         0.08287
C          4.89685        14.24021         0.37433
C          4.89679        17.06850        -0.36293
C          3.60359        19.04453        -1.08031
C          4.88831        18.42009        -0.82428
C          6.09749         1.99151         0.32275
C          5.94877         3.40672        -0.14655
C          7.34522         1.37679         0.34038
C          7.19128         4.17084        -0.46130
C          6.02743         6.32965         0.14752
C          6.05994         7.76781         0.29488
C          7.23817         5.64618        -0.32385
C          7.21911         8.47611        -0.04470
C          6.07309        10.60779         0.45041
C          6.07743        12.05353         0.35317
C          7.25597         9.88890         0.06622
C          7.29607        12.70978         0.06782
C          6.05449        14.92595        -0.02608
C          6.09838        16.34177        -0.29062
C          7.27806        14.14862        -0.24076
C          7.34565        17.03315        -0.51746
C          6.10024        19.09325        -1.02099
C          7.35018        18.43936        -0.80973
C          8.61738         2.18108         0.27366
C          8.48564         3.40786        -0.59524
C          9.87969         1.41826         0.02597
C          9.70016         4.10430        -1.10525
C          8.40524         6.30603        -0.60113
C          8.41903         7.81591        -0.68322
C          9.65803         5.60864        -1.04520
C          9.71824         8.46484        -0.24162
C          8.48727        10.58537        -0.09765
C          8.50269        11.99057        -0.01530
C          9.74079         9.84361        -0.14402
C          9.77739        12.71558         0.17628
C          8.57216        14.89460        -0.37001
C          8.58140        16.36278        -0.39359
C          9.80988        14.20814         0.07701
C          9.81987        17.03557        -0.44380
C          8.59314        19.10670        -0.93138
C          9.82386        18.44090        -0.72841
C         11.04115         2.01580        -0.48613
C         11.03892         3.35278        -1.22246
C         12.27279         1.37134        -0.43292
C         12.28592         4.14515        -0.88211
C         10.96833         6.29383        -0.74711
C         10.96525         7.62836         0.00652
C         12.24057         5.50208        -0.67210
C         12.19938         8.41727        -0.46397
C         10.98260        10.59458        -0.01745
C         11.04332        11.97174         0.08697
C         12.22419         9.82300         0.12255
C         12.29124        12.71279         0.11695
C         11.09088        14.91713        -0.07852
C         11.07666        16.33753        -0.26445
C         12.27493        14.16330         0.01509
C         12.29800        17.06617        -0.22669
C         11.08314        19.09396        -0.88766
C         12.31226        18.47260        -0.63071
C         13.50200         1.90193        -1.13244
C         13.53040         3.43838        -1.14482
C         14.74470         1.31706        -0.42063
C         14.68194         4.15873        -1.44550
C         13.51860         6.20592        -0.44233
C         13.52915         7.69840        -0.12859
C         14.79223         5.55476        -0.96492
C         14.72414         8.50460        -0.73631
C         13.52439        10.55967         0.28187
C         13.52335        12.03590         0.17065
C         14.81318         9.80690         0.04620
C         14.77689        12.73376         0.14914
C         13.50945        14.87577         0.03854
C         13.48587        16.30181         0.05991
C         14.75235        14.18377         0.14863
C         14.71486        16.93965         0.33658
C         13.51824        19.21957        -0.98539
C         14.75962        19.01724        -0.39190
C         15.93268         1.86476        -0.26650
C         15.85447         3.54547        -2.10501
C         17.17842         2.28407        -0.09710
C         17.17772         4.28610        -2.08435
C         15.97966         6.42434        -1.25955
C         16.03145         7.75150        -0.90283
C         17.16849         5.77690        -1.87281
C         17.26409         8.55619        -0.99173
C         16.07301        10.57706        -0.06080
C         16.01684        12.05085         0.04566
C         17.27448         9.93063        -0.63607
C         17.25036        12.75104        -0.00178
C         15.96397        14.90758         0.16784
C         15.95566        16.31716         0.19271
C         17.22640        14.16221         0.52312
C         17.20724        17.09091        -0.20848
C         16.09562        19.37626        -0.71196
C         17.22948        18.63093        -0.22562
C         18.28111         2.11783        -1.17520
C         18.45859         3.49365        -1.87771
C         19.54574         1.60331        -0.53086
C         19.74639         4.25645        -1.70804
C         18.47160         6.53448        -1.85499
C         18.48109         7.94994        -1.39921
C         19.76084         5.76028        -1.86469
C         19.69013         8.68433        -1.39794
C         18.47024        10.68728        -0.66872
C         18.45912        12.10863        -0.31606
C         19.67985        10.04265        -1.01712
C         19.69421        12.85441        -0.25880
C         18.47703        14.94758         0.27330
C         18.41562        16.43471         0.43582
C         19.64210        14.28968         0.01396
C         19.67014        17.21006         0.60262
C         18.46570        19.27302        -0.14666
C         19.71279        18.65712         0.24058
C         20.74446         2.27878        -0.45917
C         20.86945         3.63387        -0.95354
C         21.92503         1.65243         0.10370
C         22.09017         4.29033        -0.88076
C         20.96374         6.50994        -1.31874
C         20.99623         8.00889        -1.83289
C         22.21583         5.63813        -1.38629
C         22.21540         8.70170        -1.21786
C         20.96691        10.83155        -1.04784
C         20.92404        12.20643        -0.43248
C         22.11652         9.99582        -0.50702
C         22.17690        12.84506        -0.15448
C         20.90035        15.06809        -0.03592
C         20.96967        16.41806         0.68472
C         22.18834        14.31721        -0.04822
C         22.16756        17.25167         0.17508
C         20.89893        19.34322         0.33687
C         22.16256        18.64804         0.82620
C         23.15741         2.27655         0.12374
C         23.28646         3.62556        -0.40744
C         24.35652         1.60985         0.59076
C         24.52438         4.25564        -0.44860
C         23.48259         6.10190        -1.62399
C         23.46150         8.26174        -1.49379
C         24.68862         5.56928        -1.02754
C         24.65207         8.53437        -0.60704
C         23.39656        10.68197        -0.13985
C         23.38738        12.15065        -0.03739
C         24.70265        10.01410        -0.31508
C         24.63219        12.78917         0.28918
C         23.37415        15.00857         0.54657
C         23.45520        16.48650         0.43646
C         24.62948        14.21289         0.69592
C         24.63139        17.14822         0.60400
C         23.48191        19.32471         0.50495
C         24.63921        18.61503         0.48112
C         25.58133         2.23299         0.62794
C         25.68276         3.71457         0.33495
C         26.77326         1.56383         1.08340
C         27.01379         4.13792        -0.26634
C         25.85477         6.32375        -0.84783
C         25.92295         7.82484        -1.14779
C         27.17404         5.58178        -0.77909
C         27.21472         8.51918        -0.63215
C         25.86820        10.68451        -0.05762
C         25.82638        12.07752         0.34554
C         27.17351         9.98001        -0.18758
C         27.03222        12.73348         0.90896
C         25.91169        14.93719         0.80041
C         25.86118        16.42243         1.13135
C         27.06456        14.22317         0.93116
C         27.16967        17.11023         0.81588
C         25.95685        19.32520         0.25934
C         27.19990        18.50423         0.55144
C         28.02026         2.14415         1.00151
C         28.20373         3.41760         0.25654
C         29.21931         1.48091         1.44864
C         29.47064         4.15879         0.41281
C         28.34296         6.32419        -0.14794
C         28.38450         7.72068        -0.17641
C         29.51343         5.57527         0.23276
C         29.58157         8.42589         0.18537
C         28.36601        10.56647         0.44234
C         28.34871        11.94784         0.95696
C         29.58068         9.86169         0.37181
C         29.61988        12.69122         0.96048
C         28.32539        14.93638         1.25135
C         28.36873        16.39146         0.96107
C         29.64667        14.13961         1.23083
C         29.62791        17.05025         0.88648
C         28.42366        19.16064         0.51054
C         29.64633        18.46702         0.69979
C         30.44057         2.07980         1.34195
C         30.58192         3.45721         0.90983
C         31.81283         4.14264         1.07370
C         30.74264         6.25901         0.48352
C         30.78144         7.70241         0.42499
C         31.88777         5.50229         0.84983
C         31.98396         8.42368         0.65360
C         30.81555        10.55697         0.59122
C         30.81537        12.01154         0.69323
C         32.00388         9.80949         0.69311
C         32.02641        12.76034         0.57042
C         30.88581        14.88693         0.96534
C         30.87368        16.33124         0.96263
C         32.04015        14.14547         0.65416
C         32.07398        17.06820         0.94542
C         30.88621        19.16090         0.67655
C         32.07551        18.46439         0.82084
O         23.58933         7.23958        -2.43574
O         14.69373        18.24295         0.79190
O         10.39133         6.32373        -2.09451
O         21.67037        14.95474        -1.27756
O          6.32563         3.64595        -1.54357
O          8.79451         3.38728        -2.01724
O         12.79958        10.03387         1.44850
O         27.68152         3.20632        -1.15203
O         27.49156        12.12791         2.15783
O         15.75852         2.59103        -2.88849
O          9.69088        13.57090         1.39631
O         15.68704         9.83379         1.19797
O         19.23812         6.29434        -3.08757
O         16.99524         5.20018        -3.21968
O          3.18809        12.86571         2.29363
O         14.44371         5.54521         0.48332
O         19.42418         3.52394        -2.94838
O         27.55201         9.58629        -1.56967
O         22.46753        10.01262         0.90465
O         18.78537        16.93204         1.75900
O          3.37460        10.41474         2.76290
O         23.74343        14.48202         1.86686
O         28.95976        14.53737         2.48774
O          3.66995        16.08734         1.50811
O          7.93735        14.35811        -1.57951
O         24.33337         7.90844         0.67608
H         23.67560         8.49775         1.12628
O         20.71178         6.61345         0.11445
H         21.46714         7.08650         0.52651
O         17.89838         1.12955        -2.12812
H         17.13387         1.47272        -2.65277
O         21.09038         8.10921        -3.25867
H         21.93725         7.68655        -3.53084
O         22.10790        18.59109         2.27125
H         21.77979        17.69609         2.53832
O          8.76720         2.77758         1.63698
H          8.86943         2.03721         2.27278
O         11.21798         3.05933        -2.62732
H         10.34451         2.76102        -2.97047
O         22.02853        17.52395        -1.23212
H         22.01751        16.65999        -1.71110
O         21.29549        11.04736        -2.45909
H         21.14513        10.20136        -2.94467
O         25.99487        20.55410         0.99506
H         25.85184        20.34487         1.94119
O         25.71733        16.47046         2.58481
H         24.95067        15.89196         2.81145
O         25.94564         7.97459        -2.57816
H         26.67399         7.40845        -2.91738
O         13.67530         7.77618         1.30168
H         14.30506         7.06739         1.57226
O         21.19763        16.09283         2.07855
H         20.30363        16.06373         2.50368
O         27.54942         5.50511        -2.19701
H         27.84856         4.57184        -2.34760
O         14.46829         8.94308        -2.10932
H         14.72061         8.22686        -2.73127
O          2.62643         8.04078         3.17346
H          3.18991         8.74315         3.57900
O          3.93264         4.25370        -1.17423
H          4.62812         4.24261        -1.87717
O         17.15891        14.02133         1.98936
H         16.40275        13.43032         2.19696
O         11.02302         7.33228         1.41361
H         11.85833         7.71136         1.78448
O          8.31836         8.12744        -2.11661
H          9.09149         7.68717        -2.54775
O         17.36480        16.75642        -1.62855
H         16.67295        17.23408        -2.13366
O         25.66484         4.39775         1.63372
H         24.79131         4.23596         2.04855
O         13.45668         1.35485        -2.46055
H         14.22987         1.71805        -2.96116
O         11.97540         8.53357        -1.87725
H         12.71253         9.04860        -2.28293
H          0.75090         1.58525         2.77175
H          0.58732         4.03432         2.38249
H          2.76539         0.31720         2.04453
H          0.31489         5.78843         1.07319
H          0.27626         8.23186         1.30751
H          0.28724        10.13432         1.46960
H          0.20560        12.45007         0.89304
H          0.22557        14.42202         0.20780
H          0.25095        16.74610        -0.59444
H          1.47621        18.86150        -1.19990
H          5.02272         0.27693         1.11024
H          3.59859        20.07596        -1.46243
H          7.41275         0.33602         0.69682
H          6.09091        20.14949        -1.32908
H          9.96561         0.41424         0.47290
H          8.60150        20.17774        -1.18426
H         12.33790         0.37512         0.03228
H         11.08359        20.14486        -1.21474
H         14.61499         0.27887        -0.06207
H         13.41393        19.97656        -1.77773
H         17.45211         2.83111         0.82344
H         16.29066        20.30748        -1.26819
H         19.49749         0.56730        -0.16301
H         18.48904        20.35900        -0.33162
H         21.83248         0.62322         0.48261
H         20.92425        20.41916         0.10184
H         24.27897         0.55117         0.88383
H         23.52463        20.42347         0.44011
H         26.67557         0.54887         1.49943
H         26.01082        19.61482        -0.82903
H         29.13257         0.47003         1.87350
H         28.44384        20.24664         0.33825
H         31.34357         1.55274         1.68305
H         32.69785         3.58898         1.41781
H         32.84935         6.00671         1.01109
H         32.93007         7.88603         0.79565
H         32.96212        10.31857         0.86288
H         32.96383        12.23787         0.34076
H         32.98765        14.66856         0.46592
H         33.03692        16.54941         1.04436
H         30.88916        20.25242         0.54800
H         33.03282        19.00380         0.81975
