         477
 CSIRO Nanostructure Databank - Neutral Graphene Oxide Data Set
C         27.87749        27.29123         0.29689
C         27.82893        28.72836         0.35372
C         26.60571        29.41111         0.37779
C         27.76207        31.55149         0.48892
C         26.58249        30.80932         0.42441
C         27.68176        33.03652         0.58149
C         26.59345        33.77296        -0.08043
C         27.84112        35.88901         0.11062
C         26.64834        35.12068        -0.20689
C         27.82818        37.32319        -0.07861
C         26.65963        38.07960        -0.02671
C         27.86219        40.19710        -0.45089
C         26.66017        39.46343        -0.23310
C         27.85706        41.62177        -0.65095
C         26.68497        42.40351        -0.69787
C         27.95384        44.49693        -1.00117
C         26.71443        43.77377        -0.93410
C         28.00102        45.90675        -1.11374
C         30.32477        27.32863         0.25157
C         29.06850        26.62705         0.27958
C         30.30092        28.78175         0.25170
C         29.05160        29.46429         0.38064
C         30.27088        31.58507         0.65116
C         29.02986        30.88551         0.49664
C         30.23577        33.02632         0.98623
C         28.95973        33.80649         0.82799
C         30.25170        36.03273         0.88855
C         29.01689        35.23815         0.47249
C         30.33148        37.39179         0.21252
C         29.11933        37.98228        -0.47054
C         30.34499        40.18159        -0.43206
C         29.09609        39.48806        -0.43273
C         30.38301        41.58715        -0.59850
C         29.14456        42.28484        -1.07638
C         30.39013        44.46672        -0.75015
C         29.16830        43.77603        -0.87382
C         30.42558        45.87466        -0.96759
C         29.22768        46.57268        -1.15746
C         32.80734        24.58529         0.65877
C         31.62758        25.23503         0.57458
C         32.78822        27.35240        -0.00752
C         31.55213        26.65262         0.29648
C         32.72472        28.82494        -0.37074
C         31.49107        29.51735         0.16060
C         32.77055        31.64556         0.44845
C         31.50614        30.91531         0.43712
C         32.76836        33.01616         0.67570
C         31.53290        33.78705         0.91273
C         32.68601        35.89585         0.29875
C         31.53470        35.24410         0.65789
C         32.75263        37.38413         0.68524
C         31.51945        38.06201         0.12737
C         32.79367        40.16567        -0.16848
C         31.56877        39.46436        -0.23138
C         32.78847        41.57025        -0.15733
C         31.58721        42.29578        -0.40093
C         32.78072        44.45516        -0.09193
C         31.60632        43.74120        -0.42259
C         32.60977        45.95881         0.13258
C         31.81236        46.49680        -1.06475
C         32.86679        48.74706        -0.71663
C         31.88598        47.99408        -1.22996
C         35.25585        23.03576         0.10332
C         35.15547        24.46992        -0.33483
C         34.12285        25.28478         0.47767
C         35.18020        27.32279        -0.76825
C         33.97145        26.66920        -0.11464
C         35.26939        28.78564        -0.28875
C         34.02220        29.52768         0.02353
C         35.21612        31.72310        -0.12244
C         34.04920        31.02065         0.08711
C         35.27522        33.22005         0.03153
C         33.94830        33.76911         0.43493
C         35.38388        36.09678         1.38819
C         33.82153        35.05558        -0.05517
C         35.28440        37.42640         0.68182
C         34.07857        38.03580         0.37207
C         35.34271        40.16773        -0.07573
C         34.08191        39.37558        -0.32135
C         35.28928        41.62376        -0.27088
C         34.03660        42.29845         0.26391
C         35.24101        44.50834         0.17531
C         34.00902        43.79296         0.05413
C         35.19674        45.98453         0.39014
C         33.90208        46.72105         0.39323
C         35.22846        48.91963         0.22894
C         33.85048        48.25649         0.32100
C         35.26892        50.38076         0.31502
C         37.70294        23.11767         0.31334
C         36.42503        22.42249         0.36313
C         37.71504        24.49304         0.01517
C         36.47744        25.21063        -0.27737
C         37.77400        27.23967        -0.86655
C         36.47437        26.55565        -0.52625
C         37.74501        28.77131        -0.74266
C         36.48932        29.56966        -0.66033
C         37.65377        31.49490         0.59765
C         36.55922        31.10228        -0.46804
C         37.71745        33.01852         0.70620
C         36.54259        33.72100         0.78621
C         37.85783        35.91095         0.72795
C         36.58291        35.19017         1.09251
C         37.79458        37.32430         0.17047
C         36.52547        38.09318         0.40412
C         37.85152        40.18572         0.00039
C         36.54288        39.48079         0.10602
C         37.87137        41.70771        -0.16187
C         36.56166        42.44148        -0.24675
C         37.71969        44.59134         0.45723
C         36.46693        43.85260         0.16353
C         37.73762        46.04757         0.08874
C         36.43250        46.76414         0.06787
C         37.70804        48.98912         0.49169
C         36.40660        48.23596         0.21699
C         37.70923        50.35811        -0.19231
C         36.41160        51.07412         0.13327
C         40.09382        20.23579         0.65286
C         38.94967        20.96558         0.54606
C         40.14865        23.13130         0.65300
C         38.92582        22.40904         0.56520
C         40.15709        24.51666         0.39618
C         38.95887        25.20876         0.03728
C         40.23470        27.27853        -0.40205
C         38.99548        26.59639        -0.26374
C         40.25611        28.72937        -0.90308
C         39.02126        29.42382        -0.32165
C         40.28657        31.58005         0.13826
C         39.01454        30.80334         0.27088
C         40.29056        32.95229         0.38987
C         39.07844        33.70006         0.92828
C         40.28643        35.88600         0.03311
C         39.04024        35.12228         0.40111
C         40.29619        37.28762         0.70178
C         39.03159        38.07475         0.64603
C         40.28424        40.24250         0.52423
C         39.08270        39.54098         0.48116
C         40.25183        41.70063         0.53933
C         39.07455        42.39126         0.33615
C         40.30078        44.60971         0.26178
C         39.01417        43.85976         0.56561
C         40.20886        46.09314         0.59198
C         38.98269        46.83081         0.27496
C         40.24898        48.93774         0.18933
C         38.98999        48.20529         0.26950
C         40.19305        50.39193         0.08850
C         39.00089        51.10103         0.13936
C         40.19539        53.17337         0.71145
C         39.02998        52.51347         0.39957
C         42.63162        20.15424         0.72028
C         41.37111        20.86009         0.99014
C         42.70835        23.01800         0.62821
C         41.41227        22.41523         0.96217
C         42.74627        24.46184         0.45077
C         41.41672        25.26907         0.39608
C         42.70605        27.27833        -0.50825
C         41.42750        26.60403        -0.19405
C         42.71506        28.75068        -0.45037
C         41.53185        29.45817        -0.49108
C         42.73331        31.59289        -0.17255
C         41.50070        30.88522        -0.21624
C         42.73196        32.96651         0.11873
C         41.52137        33.68889         0.31899
C         42.75127        35.88137         0.29057
C         41.54923        35.12275         0.33499
C         42.76140        37.27818         0.21974
C         41.62082        38.04017         0.84765
C         42.73892        40.22327         0.33687
C         41.56673        39.53347         0.52340
C         42.79126        41.68920         0.60869
C         41.51073        42.43681         0.84978
C         42.76341        44.70292         0.62370
C         41.47620        43.97114         1.00783
C         42.77626        46.07395         0.49618
C         41.51908        46.86488         0.61450
C         42.75991        48.91007        -0.29193
C         41.47608        48.28079         0.23558
C         42.79211        50.42723        -0.09810
C         41.46359        51.15034         0.05562
C         42.67886        53.13783         0.85101
C         41.46373        52.52241         0.58862
C         43.81458        20.81003         0.64408
C         45.17781        22.90994         0.55600
C         43.90927        22.26110         0.61171
C         45.25242        24.31771         0.11420
C         43.97150        25.06219        -0.13874
C         45.29371        27.26230        -0.18307
C         44.01204        26.54000        -0.41173
C         45.29783        28.64512        -0.22382
C         44.03989        29.39208        -0.53451
C         45.30881        31.54304        -0.11408
C         44.02300        30.89625        -0.46802
C         45.28607        33.00780        -0.17261
C         43.98560        33.73147        -0.04277
C         45.26319        35.85059        -0.08428
C         44.06094        35.14202         0.48910
C         45.19328        37.19842        -0.41848
C         44.03865        38.01166         0.05708
C         45.23658        40.38704        -0.15971
C         44.05166        39.52556         0.17994
C         45.33220        41.73996         0.50654
C         44.00819        42.48128         0.16454
C         45.32847        44.63626         0.51390
C         44.02436        43.91755         0.66167
C         45.25642        46.07878         0.16010
C         44.00326        46.83294         0.33053
C         45.28079        48.94562         0.24115
C         44.02792        48.20671         0.15986
C         45.26344        50.35723         0.46185
C         44.00548        51.10022         0.40983
C         43.90812        52.43279         0.78495
C         47.61243        22.90217         0.73711
C         46.43217        22.22587         0.67769
C         47.63023        24.38638         0.99139
C         46.48262        25.12299         0.29012
C         47.83199        27.23438         0.08012
C         46.50007        26.48955         0.11543
C         47.70509        28.72954         0.32149
C         46.52198        29.39569         0.06853
C         47.71613        31.63922         0.52773
C         46.47145        30.85835         0.10913
C         47.72636        33.04977         0.00188
C         46.55586        33.74332        -0.06748
C         47.67785        35.90361        -0.50639
C         46.49425        35.17353        -0.27591
C         47.62853        37.27640        -0.82404
C         46.33758        37.77638        -1.00211
C         47.64541        40.50251        -0.80349
C         46.30047        39.97160        -0.89434
C         47.72296        41.82793        -0.42954
C         46.53918        42.53625         0.00072
C         47.79794        44.67769        -0.04659
C         46.56241        43.91049         0.10437
C         47.80576        46.05344         0.07617
C         46.55179        46.82177        -0.00268
C         47.74131        48.91677         0.61312
C         46.53160        48.26536         0.27655
C         47.68963        50.29951         0.83782
C         46.48634        51.00112         0.73520
C         50.06513        24.47011         0.20525
C         48.93891        25.09279         0.74119
C         50.27474        27.24124         0.85481
C         48.90122        26.58089         0.99839
C         50.25209        28.74202         0.76023
C         48.96518        29.47840         0.57251
C         50.20549        31.61784         0.13813
C         49.01374        30.93116         0.25333
C         50.27414        33.04427        -0.08554
C         48.98715        33.71765        -0.34005
C         50.20145        35.97245        -0.27844
C         48.95764        35.18848        -0.62322
C         50.19440        37.40551        -0.83464
C         48.86934        38.10414        -1.04869
C         50.21032        40.29707        -0.65130
C         48.86516        39.61060        -0.77210
C         50.25483        41.79131        -0.82008
C         48.97711        42.56813        -0.64136
C         50.28515        44.62767        -0.18446
C         49.04477        43.98027        -0.27279
C         50.32447        46.03345         0.10935
C         49.06538        46.86207        -0.06032
C         50.32170        48.79066         0.88120
C         48.99171        48.06910         0.89031
C         51.29704        25.09719         0.01920
C         52.78242        27.21183         0.14256
C         51.51585        26.47846         0.45102
C         52.80515        28.67538         0.37239
C         51.49715        29.40452         0.25474
C         52.78926        31.63055         0.17222
C         51.48237        30.87146        -0.01028
C         52.73841        33.08347        -0.25171
C         51.47489        33.73715        -0.28598
C         52.72102        35.92650        -0.29756
C         51.46275        35.19690        -0.73239
C         52.71559        37.43592        -0.37462
C         51.46169        38.17237        -0.63934
C         52.76651        40.25758        -0.76125
C         51.50122        39.54395        -0.74300
C         52.75303        41.74394        -0.80235
C         51.52036        42.50390        -0.57449
C         52.75812        44.54356         0.08850
C         51.52817        43.87570        -0.30078
C         52.73158        45.90007         0.54812
C         51.51436        46.66961         0.44836
C         51.47568        48.10908         0.71921
C         55.15441        27.30561        -0.52611
C         53.94642        26.58978        -0.24407
C         55.22359        28.68758        -0.47344
C         54.04587        29.44488        -0.00405
C         55.25493        31.62708        -0.43377
C         53.93641        30.88154        -0.51459
C         55.22767        33.03894        -0.42289
C         53.96784        33.76853        -0.40445
C         55.19611        35.94059        -0.42328
C         53.99731        35.20687        -0.43426
C         55.19232        37.39431        -0.45191
C         53.99989        38.13386        -0.54969
C         55.30338        40.30590        -0.89814
C         53.98091        39.56003        -0.72113
C         55.25655        41.65567        -0.18737
C         54.08295        42.48326        -0.44759
C         55.09336        44.32712         0.86315
C         53.96445        43.80904         0.16277
C         55.03676        45.67398         1.33403
C         53.90990        46.44125         1.13739
C         56.39792        29.45965        -0.76150
C         56.42435        30.84031        -0.65518
C         56.43328        33.81967        -0.45412
C         56.42332        35.18834        -0.45018
C         56.44102        38.13456        -0.37942
C         56.49512        39.47442        -0.51317
C         56.26955        42.17719         0.60246
C         56.21867        43.49967         1.08458
O         49.54117        42.28513        -1.99803
O         38.31453        44.29722         1.77532
O         34.79386        35.32670        -0.98858
O         44.55139        33.52805        -1.36441
O         34.54119        46.33735         1.66698
O         43.39246        26.78289        -1.72313
O         49.65190        37.62659        -2.18412
O         51.36572        29.91979        -1.11795
O         44.60019        24.36208        -1.23783
O         49.48823        39.87186         0.55482
O         49.59603        29.31447         1.93758
O         37.05658        46.30252        -1.19094
O         45.78620        46.35956        -1.18424
O         38.09220        40.83520        -1.30537
O         39.15794        29.60070         1.12507
O         37.48486        35.65847         2.15823
O         44.38216        38.68231         1.34704
O         42.31112        41.91243         1.96935
O         35.82091        42.17197        -1.50553
O         46.14430        38.90879        -1.78049
O         28.00462        33.54132         1.92360
O         34.82904        28.92451         1.09810
O         34.69501        35.83415         2.36881
O         40.78543        46.55294         1.84414
O         53.58034        42.37872        -1.83264
O         37.06669        29.25642        -1.95990
O         40.12911        28.65653        -2.30221
O         42.17933        51.09461        -1.25316
O         42.24810        25.19674         1.61739
O         52.65209        36.70023         0.94655
O         53.71606        29.18249         1.39572
O         35.46512        34.00454        -1.25963
O         44.11272        30.21915        -1.75945
O         41.37921        21.65635         2.21006
O         51.15406        26.74246         1.90209
O         44.84129        44.24084         1.84989
O         30.91837        33.43690         2.22469
O         39.50440        37.48134         1.90965
O         49.00137        34.27832        -1.75436
O         53.62484        30.83114        -1.92869
H         54.38161        30.41693        -2.39309
O         37.73127        50.12620        -1.62409
H         37.77210        50.99358        -2.07706
O         41.25306        44.19220         2.40895
H         41.83952        43.57456         2.90095
O         29.28003        37.63150        -1.91177
H         30.00969        38.18647        -2.26428
O         32.64150        28.94061        -1.82215
H         33.34201        28.35442        -2.20822
O         41.95225        37.99772         2.26716
H         41.09782        38.04731         2.75868
O         29.16820        42.11679        -2.56055
H         28.35592        42.54652        -2.90598
O         51.50849        35.21338        -2.17408
H         50.67494        34.79309        -2.50006
O         32.59321        37.45029         2.12227
H         33.29087        36.88123         2.53883
O         39.33026        33.76504         2.36705
H         38.66349        34.39269         2.74470
O         40.34473        36.13725        -1.40617
H         39.43474        36.38896        -1.70712
O         33.31447        48.70576         1.59497
H         33.81220        48.22306         2.29199
O         45.44852        41.58108         1.92365
H         45.35443        42.47155         2.33808
O         34.12272        39.06852        -1.77690
H         34.35166        39.90112        -2.24555
O         37.20106        31.03270         1.87576
H         37.78213        30.28653         2.15537
O         42.72649        48.64837        -1.72617
H         42.36608        49.46649        -2.14767
O         53.00725        31.66568         1.60272
H         53.90780        32.01234         1.77410
O         30.08205        36.23773         2.31355
H         30.22216        35.36287         2.74681
O         44.23357        35.02691         1.92586
H         44.18420        35.92727         2.31476
O         50.13824        36.06103         1.15802
H         50.99267        36.44609         1.48197
O         37.86844        37.15995        -1.28429
H         37.56725        37.99216        -1.71007
O         48.80388        47.52401         2.22686
H         48.84416        48.26305         2.86878
O         37.99193        26.99447        -2.30005
H         38.79250        27.56782        -2.54574
O         31.78377        46.11814         1.30584
H         32.37635        46.06689         2.08679
O         47.64696        31.75690         1.99090
H         48.07622        30.96462         2.38345
O         40.57013        44.47781        -1.14936
H         39.85559        44.91142        -1.66211
O         55.47241        40.56985        -2.32243
H         54.77465        41.22344        -2.57875
O         37.71741        49.27148         1.92149
H         37.84539        48.42854         2.40568
O         34.15533        42.10860         1.71683
H         33.34654        42.46796         2.13925
O         34.68209        24.47326        -1.70443
H         35.42962        24.23918        -2.29225
O         32.45106        45.94468        -2.25102
H         31.93265        46.21627        -3.03669
O         37.00277        31.72128        -1.68839
H         37.20102        31.00192        -2.33728
O         49.07859        47.41002        -1.40861
H         48.99257        46.66839        -2.04380
O         48.47934        26.85479         2.36180
H         49.29367        26.86620         2.91462
O         43.89392        42.55258        -1.27685
H         44.66327        43.04216        -1.63870
O         34.95168        27.36212        -2.20556
H         35.82261        27.56606        -2.62593
O         34.72124        25.45060         1.79891
H         34.17937        26.09637         2.29975
O         48.36537        27.08671        -1.26647
H         47.68586        27.39281        -1.90467
O         47.28860        24.49976         2.41125
H         47.53890        25.41773         2.69637
H         26.93002        26.73331         0.28195
H         25.66356        28.84590         0.35255
H         25.61347        31.32757         0.43557
H         25.73081        33.21828        -0.47641
H         25.80742        35.65057        -0.67668
H         25.70557        37.58740         0.21183
H         25.69979        39.99487        -0.19218
H         25.70617        41.92728        -0.54162
H         25.77091        44.33537        -0.98635
H         27.06363        46.47433        -1.20181
H         29.06238        25.52958         0.24243
H         29.24453        47.66192        -1.30572
H         32.81754        23.52483         0.94809
H         30.70005        24.67807         0.76642
H         32.90446        49.82116        -0.95716
H         31.18476        48.45166        -1.94753
H         34.32659        22.44893         0.14092
H         34.32253        50.90956         0.50085
H         36.40931        21.36427         0.65784
H         36.37591        52.17373         0.12497
H         40.07989        19.15578         0.44349
H         38.02162        20.42981         0.30623
H         40.16708        54.22950         1.01639
H         38.08289        53.06759         0.45235
H         42.59466        19.06325         0.58089
H         42.69197        54.18799         1.17668
H         44.73062        20.22592         0.47977
H         44.80919        52.97273         1.10742
H         48.54939        22.33520         0.82856
H         46.44599        21.12625         0.69654
H         48.60310        50.85809         1.08607
H         46.50852        52.08745         0.89485
H         49.99221        23.41189        -0.08770
H         50.36037        49.86626         1.11109
H         52.11483        24.54350        -0.46073
H         52.42942        48.65361         0.78182
H         56.03856        26.73112        -0.83871
H         53.96301        25.49801        -0.37523
H         55.91079        46.09621         1.84989
H         53.90236        47.47761         1.50191
H         57.32753        28.92512        -1.00702
H         57.39147        31.34652        -0.78926
H         57.40195        33.30149        -0.47032
H         57.38634        35.71479        -0.47391
H         57.37154        37.58878        -0.17178
H         57.47131        39.97888        -0.47277
H         57.16011        41.57291         0.82583
H         57.07061        43.89804         1.65291
