         344
 CSIRO Nanostructure Databank - Neutral Graphene Oxide Data Set
C          1.20122         3.54801         0.14184
C         -0.00156         4.22703         0.07405
C          1.12653         6.33922         0.54131
C         -0.03773         5.61829         0.27422
C          1.06393         7.79577         0.83761
C         -0.07588         8.60060         0.37324
C          1.17234        10.71173         0.60777
C         -0.03756         9.95491         0.34209
C          1.17791        12.15405         0.52242
C         -0.02666        12.91319         0.30243
C          1.18941        15.05461         0.70181
C         -0.03716        14.27293         0.30321
C          1.20592        16.49209         0.23871
C          0.03724        17.24513         0.35832
C          1.18358        19.24142        -0.44145
C          0.01868        18.59669         0.02428
C          1.16267        20.68643        -0.70483
C         -0.02408        21.40683        -0.78618
C          1.15996        23.54419        -0.80884
C         -0.02356        22.81455        -0.83758
C          1.16857        25.01064        -0.72999
C         -0.04284        25.74413        -0.47832
C          1.15380        27.86768        -0.42107
C         -0.03389        27.12103        -0.31233
C          1.20355        29.25949        -0.14149
C          3.64543         3.55031         0.46268
C          2.40502         4.25107         0.39524
C          3.62632         6.36827         0.77222
C          2.38090         5.66274         0.59738
C          3.65310         7.79966         0.90460
C          2.37987         8.55210         1.06164
C          3.62527        10.74243         0.98445
C          2.35879        10.01346         0.85997
C          3.65778        12.16631         0.61257
C          2.42039        12.87423         0.52242
C          3.63762        14.96056         0.02152
C          2.43776        14.28657         0.37351
C          3.62634        16.36045        -0.27546
C          2.40966        17.11961        -0.20518
C          3.60161        19.22042        -1.12516
C          2.38436        18.50913        -0.54543
C          3.62509        20.69039        -0.78854
C          2.40701        21.39963        -0.76983
C          3.64240        23.52013        -0.90537
C          2.41236        22.83413        -0.82016
C          3.63589        24.99355        -1.23867
C          2.36396        25.69654        -0.84940
C          3.64507        27.78297        -0.31579
C          2.39929        27.19733        -0.92128
C          3.65253        29.17753         0.00320
C          2.40774        29.91549        -0.01651
C          6.09692         3.39222         0.79813
C          4.83703         4.21506         0.64758
C          6.10766         6.34530         0.73946
C          4.85106         5.64608         0.74870
C          6.10713         7.76939         0.70683
C          4.86993         8.47857         0.83688
C          6.15633        10.65941         0.57000
C          4.92447         9.95294         0.97749
C          6.14001        12.08019         0.40041
C          4.87654        12.82912         0.39717
C          6.11236        14.82524        -0.36927
C          4.84584        14.18673        -0.03117
C          6.14263        16.31222        -0.70342
C          4.81880        17.00996        -0.96705
C          6.03556        19.18561        -0.45017
C          4.89191        18.51053        -0.76843
C          6.07852        20.65144        -0.51808
C          4.84990        21.37743        -0.71440
C          6.12631        23.48989        -0.74721
C          4.86522        22.81298        -0.78361
C          6.17623        24.97785        -1.02395
C          4.88216        25.69282        -0.74381
C          6.08130        27.62775         0.22931
C          4.84296        27.01503        -0.31681
C          6.08875        29.14496         0.52472
C          4.84296        29.85375         0.28566
C          8.56773         3.49625         0.73698
C          7.38856         4.17119         0.69473
C          8.54655         6.34971         0.49810
C          7.34515         5.63591         0.64910
C          8.54520         7.76238         0.50093
C          7.34009         8.48456         0.58671
C          8.58033        10.63118         0.18473
C          7.35018         9.93496         0.45515
C          8.57947        12.05669         0.05328
C          7.34741        12.75398         0.18475
C          8.57177        14.93363        -0.21885
C          7.34339        14.24986         0.29111
C          8.56311        16.32918        -0.26171
C          7.33055        17.03132        -0.28521
C          8.57675        19.17864        -0.05776
C          7.25218        18.46695         0.13157
C          8.52260        20.67883         0.14561
C          7.27668        21.35013        -0.39804
C          8.59492        23.49122        -0.47701
C          7.31213        22.77706        -0.55185
C          8.61117        24.92187        -0.43260
C          7.39265        25.64422        -0.43963
C          8.60153        27.69471         0.12589
C          7.37853        26.98178        -0.05169
C          8.58805        29.11920         0.47308
C          7.38626        29.81538         0.56770
C         11.13562         3.49478         0.47089
C          9.87694         4.24035         0.87079
C         11.07893         6.30241         0.17840
C          9.78007         5.55498         0.10507
C         11.09317         7.77472         0.19524
C          9.81880         8.50595         0.39767
C         11.03102        10.62013        -0.12367
C          9.80330         9.94170         0.08038
C         11.02541        12.04890        -0.19670
C          9.80210        12.74329        -0.16188
C         11.06582        14.91862        -0.22022
C          9.80248        14.18274        -0.60025
C         11.02448        16.34158        -0.09944
C          9.82634        17.04779        -0.18002
C         11.07210        19.19009        -0.03541
C          9.78182        18.49845        -0.07667
C         11.04938        20.67598         0.19225
C          9.80289        21.31084        -0.42940
C         11.05743        23.51737        -0.35744
C          9.80673        22.81635        -0.35314
C         11.08176        24.92441        -0.44124
C          9.84563        25.63395        -0.36297
C         11.05499        27.83728        -0.25368
C          9.80845        27.04792        -0.17570
C         11.06536        29.15752         0.41653
C          9.83144        29.77890         0.68826
C         13.57680         3.52364         0.04169
C         12.29012         4.18232         0.22442
C         13.52495         6.40850         0.05741
C         12.27572         5.65151         0.19456
C         13.51477         7.71776        -0.32855
C         12.20658         8.42295        -0.59325
C         13.45746        10.61515        -0.48538
C         12.26659         9.91852        -0.35389
C         13.48376        12.04803        -0.35305
C         12.27699        12.76400        -0.27406
C         13.53416        14.92429        -0.19786
C         12.27050        14.20872        -0.19917
C         13.55077        16.32542        -0.08519
C         12.28976        17.04712         0.31902
C         13.54585        19.22752        -0.03419
C         12.27175        18.52139         0.00467
C         13.55505        20.65314        -0.06229
C         12.32848        21.39601        -0.14624
C         13.54109        23.57156         0.06920
C         12.30351        22.77564        -0.25530
C         13.63355        24.91703        -0.63887
C         12.32570        25.65415        -0.95095
C         13.60717        27.80179        -0.13735
C         12.36155        27.15209        -0.58428
C         13.54483        29.10435         0.41312
C         12.29502        29.76603         0.65940
C         16.04825         3.41790         0.13889
C         14.75272         4.19763         0.07668
C         16.03657         6.37278        -0.21603
C         14.81519         5.68611         0.35993
C         16.01568         7.72374        -0.51177
C         14.72064         8.36567        -0.96770
C         15.94572        10.55635        -0.24281
C         14.73148         9.95245        -1.01357
C         15.96966        12.06107        -0.41850
C         14.75306        12.76254        -0.38005
C         15.98178        14.91436        -0.44388
C         14.75394        14.19595        -0.34792
C         15.96849        16.33598        -0.42203
C         14.76952        17.04612        -0.20408
C         16.00784        19.21785        -0.16575
C         14.76357        18.50392        -0.12504
C         16.01012        20.62688        -0.07188
C         14.80047        21.36279        -0.06006
C         16.03535        23.50351         0.17231
C         14.82490        22.78849        -0.02975
C         16.03852        24.91430         0.20459
C         14.92775        25.65542        -0.43623
C         16.08265        27.79152         0.29847
C         14.94937        27.19220        -0.49961
C         15.98644        29.10022         0.80563
C         14.73320        29.77167         0.81071
C         18.50054         3.52423        -0.33504
C         17.29118         4.22279        -0.16706
C         18.48658         6.32383        -0.58009
C         17.27326         5.63133        -0.27804
C         18.48785         7.74638        -0.70272
C         17.24837         8.46128        -0.64170
C         18.45434        10.59393        -0.70994
C         17.23863         9.86743        -0.60245
C         18.45243        12.03246        -0.63887
C         17.20627        12.76371        -0.52935
C         18.46970        14.89832        -0.56529
C         17.21518        14.18262        -0.55650
C         18.49181        16.31479        -0.50996
C         17.22496        17.08225        -0.78871
C         18.48886        19.15825        -0.15996
C         17.25804        18.51007        -0.30737
C         18.51216        20.61838         0.26034
C         17.30056        21.37384        -0.29031
C         18.46091        23.39451         0.64103
C         17.29653        22.78173         0.26071
C         18.45163        24.80557         1.07161
C         17.20019        25.61725         0.71711
C         18.50742        27.72402         1.05508
C         17.39403        27.06785         0.27811
C         18.37703        29.08398         1.47518
C         17.14235        29.75193         1.33300
C         19.69169         4.19244        -0.59102
C         20.91684         6.32684        -0.94097
C         19.70689         5.60015        -0.70759
C         20.91880         7.69706        -0.99976
C         19.70799         8.45219        -0.87207
C         20.89199        10.63871        -0.99068
C         19.68826         9.88740        -0.87897
C         20.88935        12.00686        -0.88656
C         19.67778        12.73442        -0.69552
C         20.91288        14.89205        -0.46943
C         19.69557        14.17354        -0.57494
C         20.92320        16.26200        -0.32839
C         19.71348        17.00985        -0.35024
C         20.93924        19.15556         0.13871
C         19.71611        18.44567        -0.16573
C         20.99951        20.50818         0.22877
C         19.80553        21.35104        -0.14822
C         20.73650        23.71878        -0.23551
C         19.84339        22.74440         0.51743
C         20.70053        25.02886         0.04264
C         19.82563        25.51122         1.18976
C         20.75881        27.68370         1.95388
C         19.68700        27.02290         1.32675
C         20.67398        29.04475         2.28571
C         19.49271        29.73665         2.07498
O         14.58135        24.99991        -1.72613
O         10.78937         8.29149         1.52633
O         17.52110        25.22192         2.09063
O         11.62449        27.92945        -1.62050
O          6.37815        15.25906        -1.72752
O         14.80453        10.38134        -2.33916
O          4.36008        10.44504         2.24114
O         20.38669        25.06838         2.40276
O          5.95091        28.09629         1.58258
O          1.53475         8.11534         2.18331
O         19.89739        21.53475        -1.57624
H         19.54236        20.73655        -2.01941
O         11.88013         8.20736        -2.00072
H         12.75107         8.15685        -2.47753
O          6.09640         2.29484        -0.12723
H          6.27843         2.65043        -1.02107
O          3.42575        19.20502        -2.57753
H          3.69400        18.30661        -2.89054
O          9.58167         5.20933        -1.30230
H          9.85246         5.97944        -1.84599
O          9.80237        14.14299        -2.08013
H         10.63547        13.70405        -2.35734
O         15.21577        27.52778        -1.91355
H         14.76036        26.83239        -2.44880
O         10.99550        20.82778         1.66342
H         11.61738        20.17133         2.04660
O         13.38045        23.95244         1.48458
H         13.28065        23.12929         2.00895
O         17.82872        26.97775        -1.12327
H         17.06238        27.24476        -1.69305
O         17.16966        17.19687        -2.26972
H         18.01053        17.60730        -2.56453
O          9.80027        20.96085        -1.83732
H         10.47119        21.50877        -2.29582
O          1.14190        15.13142         2.17926
H          1.19211        14.21250         2.52053
O          7.02864        18.48449         1.58715
H          7.31232        19.38196         1.89969
O         20.35639        22.51556         1.84865
H         20.44469        23.42730         2.28458
O          3.69415        25.08924        -2.71880
H          3.39101        26.01311        -2.93259
O         15.68566        10.28264         1.16464
H         16.46399        10.57402         1.68387
O         15.98965         2.25588        -0.69892
H         15.91082         2.55557        -1.62760
O         12.28955        17.01203         1.80282
H         12.33955        16.06856         2.06862
O          2.47036        27.51426        -2.40963
H          1.55239        27.44901        -2.75339
O          7.20751        14.57690         1.71358
H          7.91187        14.10549         2.20603
O         18.41501        20.61760         1.70190
H         19.11476        21.21603         2.07298
O         12.17967        25.57116        -2.38999
H         11.67847        26.37738        -2.66461
O         17.39845        21.44171        -1.74528
H         16.68829        22.03887        -2.06358
O         10.01326         4.57411         2.28279
H         10.25268         3.75787         2.76803
O         14.59989         7.95011        -2.36601
H         14.77736         8.80236        -2.87695
O          4.51455        16.80084        -2.38955
H          5.04963        16.01545        -2.67162
O         14.99521         5.79598         1.81721
H         15.90211         5.49002         2.02945
O          6.38074        25.10373        -2.47911
H          5.49522        24.93879        -2.89857
O          8.39476        20.90629         1.58305
H          9.29896        20.82370         1.98261
H          1.23719         2.45910        -0.00413
H         -0.93619         3.68402        -0.12233
H         -1.00962         6.12915         0.24334
H         -0.98204         8.08632         0.02292
H         -0.93522        10.49255         0.00890
H         -0.96956        12.38221         0.11162
H         -0.98459        14.80558         0.13756
H         -0.87882        16.77786         0.74472
H         -0.91377        19.16172         0.15417
H         -0.99362        20.89051        -0.78190
H         -0.99366        23.32862        -0.87058
H         -0.99095        25.20459        -0.35709
H         -0.96578        27.64010        -0.04184
H          0.26045        29.80305         0.02141
H          3.64971         2.45609         0.35200
H          2.43337        30.99116         0.20792
H          6.05955         2.92824         1.82458
H          4.84822        30.95462         0.29878
H          8.55583         2.39709         0.81701
H          7.40491        30.90997         0.67758
H         11.15230         2.39490         0.53805
H          9.82573        30.80767         1.07790
H         13.59136         2.42631        -0.05822
H         12.31948        30.77157         1.10502
H         16.15199         3.02927         1.19433
H         14.67004        30.79191         1.21467
H         18.48903         2.42748        -0.26062
H         17.05782        30.80189         1.65174
H         20.62980         3.62951        -0.70002
H         21.85821         5.76888        -1.05107
H         21.87349         8.21656        -1.15754
H         21.84887        10.12424        -1.14770
H         21.84357        12.54190        -0.97322
H         21.87225        14.35939        -0.46481
H         21.88827        16.77286        -0.22125
H         21.85265        18.57516         0.32920
H         21.95315        21.00484         0.45934
H         21.39506        23.32285        -1.02312
H         21.35841        25.74006        -0.48043
H         21.65713        27.10483         2.20863
H         21.52814        29.54743         2.76070
H         19.39389        30.78619         2.38805
