         429
 CSIRO Nanostructure Databank - Neutral Graphene Oxide Data Set
C          1.48893         2.10612        -1.88960
C          1.40003         3.42693        -1.50541
C          2.69529         1.37688        -1.81395
C          2.48033         4.07563        -0.77013
C          1.31922         6.32825        -0.78230
C          1.23673         7.64935        -0.48949
C          2.52567         5.55430        -0.56440
C          2.35053         8.35160         0.15782
C          1.16920        10.53576         0.31549
C          1.15821        11.91500         0.56251
C          2.37235         9.83524         0.20782
C          2.34619        12.63604         0.63469
C          1.09602        14.87052         0.73868
C          1.11183        16.22047         0.67100
C          2.34021        14.08700         1.08698
C          2.34836        16.97583         0.75238
C          2.34860        18.39166         0.82676
C          3.88566         1.99051        -1.39160
C          3.82022         3.30793        -0.73181
C          5.14698         1.39392        -1.57222
C          5.06121         4.06995        -0.55524
C          3.69191         6.17704        -0.18385
C          3.66989         7.59383         0.24235
C          4.97807         5.42703         0.11132
C          4.92074         8.38646         0.17267
C          3.61331        10.52581         0.27059
C          3.58825        11.95823         0.43525
C          4.85626         9.78623         0.18109
C          4.79120        12.73007         0.40110
C          3.59298        14.84173         0.70482
C          3.57646        16.27355         0.69903
C          4.78492        14.13936         0.49574
C          4.80890        17.01432         0.65674
C          3.53277        19.10420         0.87031
C          4.78880        18.43606         0.78235
C          6.34033         2.06319        -1.21123
C          6.27332         3.44556        -0.74716
C          7.57935         1.41230        -1.27664
C          7.51090         4.14591        -0.44951
C          6.21906         6.27209        -0.12119
C          6.15785         7.66627        -0.04600
C          7.47813         5.57051        -0.22686
C          7.40807         8.44924        -0.18459
C          6.10498        10.56806         0.01358
C          6.07091        12.06253         0.11037
C          7.40285         9.87423         0.21483
C          7.31478        12.78644         0.46342
C          6.04413        14.89012         0.10438
C          6.04556        16.34061         0.52555
C          7.30822        14.16384         0.49897
C          7.25349        17.05656         0.56506
C          6.01907        19.14482         0.75487
C          7.23403        18.48015         0.65163
C          8.77625         2.03581        -0.81269
C          8.72111         3.44907        -0.44525
C          9.95851         1.32829        -0.69003
C          9.95515         4.13123        -0.17582
C          8.70709         6.24611        -0.09177
C          8.74039         7.71184        -0.13228
C          9.94565         5.55261        -0.00795
C          9.90596         8.40485         0.39148
C          8.53045        10.52884         0.61758
C          8.50086        11.99454         0.87383
C          9.80699         9.78693         0.80884
C          9.80099        12.74146         1.01764
C          8.51576        14.93364         0.65578
C          8.52275        16.33555         0.56232
C          9.78111        14.16645         0.56351
C          9.74366        17.09173         0.57691
C          8.50248        19.30033         0.53075
C          9.78559        18.49801         0.53385
C         11.15359         1.92848        -0.01135
C         11.17379         3.43021        -0.12614
C         12.44523         1.29526        -0.42066
C         12.39765         4.14193        -0.09331
C         11.16832         6.24689         0.20451
C         11.15016         7.64242         0.77811
C         12.38932         5.57130         0.07539
C         12.40678         8.44725         0.46006
C         11.14802        10.53335         0.99269
C         11.13363        12.03199         1.06380
C         12.39590         9.84536         0.58127
C         12.40373        12.77226         0.78940
C         11.06866        14.90803         0.41206
C         11.02226        16.37381         0.67120
C         12.36713        14.22222         0.54365
C         12.31271        17.13629         0.54071
C         11.00277        19.21283         0.42642
C         12.26866        18.59581         0.33111
C         13.63966         2.01130        -0.42397
C         13.63601         3.44583        -0.21977
C         14.89012         1.34873        -0.61381
C         14.86502         4.16605        -0.20481
C         13.63512         6.30586         0.06632
C         13.61051         7.75594         0.13312
C         14.84618         5.61521        -0.09027
C         14.79751         8.49295        -0.12741
C         13.58689        10.61196         0.28665
C         13.60860        12.02900         0.36829
C         14.78682         9.92149        -0.08253
C         14.78898        12.77498         0.09801
C         13.55326        14.90662         0.33997
C         13.50355        16.37281         0.07408
C         14.77989        14.20170         0.19816
C         14.76202        17.15911        -0.12616
C         13.48572        19.28820         0.12956
C         14.73900        18.63334         0.03422
C         16.09489         2.05488        -0.57633
C         16.07830         3.46933        -0.36108
C         17.36317         1.37464        -0.72500
C         17.40570         4.17662        -0.24388
C         16.08156         6.34668        -0.24557
C         16.03747         7.78471        -0.35827
C         17.29840         5.67112        -0.40767
C         17.21488         8.49888        -0.61625
C         15.96640        10.67830        -0.41334
C         15.96760        12.06467        -0.33547
C         17.11089         9.93019        -1.08802
C         17.14983        12.86438        -0.77336
C         16.07514        14.95988         0.32954
C         16.03975        16.44730         0.01602
C         17.20004        14.31688        -0.44251
C         17.20858        17.15703         0.01010
C         15.97374        19.30484         0.01672
C         17.21845        18.61596        -0.03845
C         18.53477         2.07220        -0.95872
C         18.39821         3.55930        -1.24186
C         19.80463         1.43850        -0.92455
C         19.73210         4.30494        -1.30100
C         18.51486         6.39140        -0.59328
C         18.47284         7.84342        -0.60600
C         19.70871         5.73199        -0.94440
C         19.67706         8.58130        -0.54254
C         18.45846        10.67610        -1.07928
C         18.46610        12.17602        -0.98749
C         19.70590         9.98727        -0.67512
C         19.71802        12.88566        -0.63832
C         18.50903        14.99959        -0.30885
C         18.49041        16.41474         0.10527
C         19.68831        14.31519        -0.48559
C         19.79115        17.20879         0.01750
C         18.44415        19.31291        -0.09862
C         19.71591        18.68362        -0.13322
C         21.02497         2.12488        -0.98276
C         21.06015         3.57191        -1.32741
C         22.21630         1.48085        -0.58979
C         22.42567         4.30146        -1.28862
C         20.95465         6.49581        -0.95177
C         20.90048         7.78718        -0.16826
C         22.31237         5.80305        -1.00742
C         22.17637         8.55980        -0.21352
C         20.87726        10.73460        -0.41880
C         20.91347        12.16736        -0.45378
C         22.06945         9.99585         0.05403
C         22.18043        12.87904        -0.21435
C         20.97427        15.05006        -0.75334
C         20.96791        16.51496        -0.44730
C         22.20263        14.33572        -0.22935
C         22.25702        17.23867        -0.61061
C         20.91582        19.38328        -0.28884
C         22.18586        18.72523        -0.33359
C         23.41337         2.17084        -0.30880
C         23.48928         3.61494        -0.45317
C         24.55880         1.46495         0.11847
C         24.63045         4.29383        -0.09402
C         23.45819         6.49189        -0.41515
C         23.40633         7.88677        -0.16123
C         24.77492         5.76118        -0.44122
C         24.63239         8.62061         0.16229
C         23.33974        10.73828         0.33985
C         23.34272        12.18592         0.08512
C         24.62071         9.99245         0.34603
C         24.63885        12.86366         0.19165
C         23.31706        15.06049         0.11246
C         23.28477        16.56248         0.35053
C         24.60874        14.37398         0.24442
C         24.61976        17.25177         0.20735
C         23.39005        19.38485        -0.18539
C         24.64096        18.66098        -0.03745
C         25.76923         2.11916         0.40088
C         25.81406         3.57808         0.35998
C         26.93443         1.38664         0.71357
C         26.97727         4.23889         0.67842
C         25.84988         6.48592         0.32350
C         25.84492         7.86136         0.42811
C         26.94887         5.71749         1.00253
C         27.04765         8.58361         0.83350
C         25.82563        10.72866         0.68214
C         25.80054        12.11333         0.73005
C         27.05726         9.98719         0.91996
C         26.96514        12.86398         1.23133
C         25.75807        15.12951         0.82545
C         25.82516        16.57098         0.47286
C         27.00894        14.36150         1.13254
C         27.05032        17.24468         0.58013
C         25.87392        19.31822        -0.06802
C         27.10355        18.63925         0.21435
C         28.20535         1.98106         0.84275
C         28.23512         3.50054         1.06945
C         29.31480         1.13915         1.06966
C         29.45653         4.30481         0.63515
C         28.26955         6.44339         0.90488
C         28.28163         7.86000         0.94454
C         29.47678         5.72621         0.84301
C         29.52337         8.56911         1.05291
C         28.29061        10.67642         1.16064
C         28.27676        12.13590         1.40850
C         29.50367         9.98609         1.22878
C         29.52960        12.90149         1.26795
C         28.29829        15.02589         0.93441
C         28.28751        16.50333         0.91080
C         29.51990        14.28988         1.00506
C         29.60381        17.22150         0.79383
C         28.32283        19.30586         0.08329
C         29.63358        18.73940         0.55071
C         30.64622         1.55714         0.73466
C         30.64576         3.71583         0.26434
C         31.90200         1.28545         1.21913
C         31.92616         4.30226         0.49136
C         30.72422         6.43442         0.79507
C         30.75502         7.84574         0.95643
C         31.95098         5.70733         0.68378
C         32.01726         8.52903         0.95263
C         30.76980        10.69836         1.56539
C         30.80947        12.23209         1.71084
C         32.05880         9.96263         1.32296
C         32.06891        12.88733         1.15847
C         30.78454        14.97022         0.80420
C         30.72058        16.35579         0.21017
C         32.00870        14.27895         0.89610
C         32.03598        17.08073         0.11746
C         30.80089        19.18462        -0.28521
C         31.96941        18.47295        -0.34005
C         33.09475         2.06104         0.85657
C         33.10488         3.49779         0.61800
C         34.31847         1.39160         0.93786
C         34.35288         4.20414         0.66724
C         33.20217         6.39101         0.68826
C         33.21877         7.83375         0.78974
C         34.38054         5.63502         0.60318
C         34.48213         8.54157         0.78015
C         33.30260        10.72398         1.06847
C         33.30479        12.15528         1.03513
C         34.49107         9.99487         0.85160
C         34.53729        12.82225         0.73918
C         33.27411        15.04643         0.76525
C         33.22446        16.43720         0.25735
C         34.58844        14.29873         0.69853
C         34.53176        17.19804         0.17510
C         33.17903        19.05661        -0.85335
C         34.40666        18.44934        -0.67091
C         35.57017         2.06136         0.84819
C         35.57329         3.47210         0.78538
C         36.81344         1.35130         0.90704
C         36.84410         4.17471         1.00168
C         35.66530         6.35130         0.29182
C         35.67505         7.82867         0.60585
C         36.88409         5.67516         0.87081
C         36.94092         8.47056         0.60184
C         35.71833        10.68810         0.68806
C         35.74303        12.09854         0.55986
C         36.97271         9.92932         0.75123
C         36.97541        12.77321         0.15465
C         35.77317        14.96545         0.10323
C         35.72755        16.33883        -0.21928
C         36.95674        14.18292        -0.14526
C         36.85160        16.98243        -0.77345
C         35.57838        19.03073        -1.20963
C         36.79504        18.33474        -1.22992
C         38.05069         2.01035         0.85016
C         38.10370         3.44217         0.86357
C         39.29511         1.29026         0.79407
C         39.31820         4.13618         0.70219
C         38.16940         6.33291         0.60030
C         38.16073         7.75102         0.46644
C         39.35772         5.57829         0.55695
C         39.40686         8.42791         0.19622
C         38.27157        10.65133         0.39889
C         38.17135        12.05613        -0.03193
C         39.42989         9.83568        -0.00310
C         39.33634        12.66373        -0.59412
C         38.12021        14.79817        -0.65543
C         38.19630        16.30173        -0.77126
C         39.29920        14.05796        -0.92239
C         39.05498        16.72693        -1.96181
C         37.96734        18.95580        -1.79690
C         39.09730        18.23597        -2.09605
C         40.48601         1.95622         0.68432
C         40.53584         3.38768         0.59523
C         41.74652         4.07259         0.37715
C         40.59906         6.23292         0.26668
C         40.59970         7.66530         0.02101
C         41.77420         5.45532         0.20623
C         41.75910         8.34354        -0.42458
C         40.57896        10.47956        -0.50639
C         40.53933        11.91263        -0.78652
C         41.74090         9.69695        -0.71613
C         41.67382        12.57926        -1.28035
C         40.46916        14.69344        -1.47717
C         40.42123        16.07470        -1.90972
C         41.63820        13.92822        -1.62058
C         41.51489        16.76169        -2.38861
C         40.27264        18.85121        -2.63790
C         41.42973        18.13027        -2.79294
O         21.73151         6.52816        -2.17585
O         11.95760        12.46922         2.20114
O          6.10684        11.39564        -1.21389
O         29.11949        16.94926         2.11772
O         11.83323        16.71152         1.85743
O         26.11355        14.91582         2.21776
O         20.39042         3.94864        -2.58059
O         19.25322        16.69163         1.31603
O         27.41957        12.45913         2.57068
O         25.00311        13.67511        -0.99651
O         22.44315        10.34748         1.46033
O         18.59948        11.48933        -2.29051
O          8.17359         8.23676        -1.41309
O         16.84669        13.88756        -1.79148
O          8.99655        12.45580         2.19147
O         37.88360        10.42522         1.79603
O         13.92961        16.70744        -1.27919
O         10.36902        14.39531        -0.78295
O          2.82528         7.78745         1.42724
O         34.13654        14.93871         1.96436
O          2.92519         3.35143         0.43400
O         10.44972         9.98739         2.15497
O         31.48659        10.09893         2.70049
O         30.62223         2.46882        -0.34613
O         36.75885         5.09415         2.18852
O          4.93443         5.14663         1.54798
H          4.16184         4.55032         1.68883
O         35.84849         6.24402        -1.16486
H         35.06274         6.64236        -1.59535
O         38.89112        16.77740         0.42287
H         38.31306        16.60940         1.19672
O         26.60520         5.74315         2.45855
H         26.64763         6.67993         2.75192
O         25.19774         5.78591        -1.85325
H         24.51590         5.27432        -2.36326
O         30.85504        12.51461         3.14705
H         31.30305        11.74230         3.56897
O         22.78495        16.81143         1.68371
H         23.47598        16.55874         2.33153
O         16.69853         9.80832        -2.47975
H         17.12359        10.55786        -2.96361
O         11.13122         7.42705         2.23146
H         10.97719         8.31583         2.64248
O          6.04960        14.91587        -1.36270
H          5.22669        15.36062        -1.65597
O         17.94941         3.91715         1.08493
H         17.34685         4.31927         1.74507
O         28.29827         3.56067         2.53997
H         27.76407         4.34138         2.83248
O         11.00827         1.62527         1.44363
H         11.65807         2.18230         1.92353
O          2.35134        14.00824         2.56339
H          2.39356        14.92831         2.90130
O         17.78999         3.70466        -2.54289
H         18.50589         3.58709        -3.20717
O         16.46161        14.83702         1.73638
H         15.75182        15.22403         2.29103
O         38.39653        16.21360        -3.15718
H         38.93176        16.48607        -3.93160
O         30.27551        16.17087        -1.18795
H         30.99180        15.71179        -1.67544
O          8.55051        20.30342         1.55909
H          8.68383        19.85257         2.41800
O         34.82022        17.64071         1.53841
H         34.70156        16.84670         2.11455
O         20.73399         7.36431         1.23409
H         20.88276         8.15299         1.80000
O         22.80323        17.05331        -1.95267
H         22.39631        17.72411        -2.54051
O         21.11450        14.95715        -2.22045
H         21.93581        15.45863        -2.45343
O         29.84744        19.37859         1.85502
H         29.45756        18.76853         2.52713
O         22.96309         4.21098        -2.64372
H         22.25994         4.57880        -3.23026
H          0.62179         1.63316        -2.37269
H          0.50988         4.00372        -1.79024
H          2.73550         0.35976        -2.22896
H          0.45140         5.83459        -1.23976
H          0.34058         8.21676        -0.77894
H          0.21437         9.99347         0.28407
H          0.19109        12.40722         0.72896
H          0.13191        14.34559         0.68186
H          0.17464        16.77887         0.52418
H          1.38595        18.92192         0.86585
H          5.20639         0.37685        -1.98783
H          3.51527        20.20058         0.94999
H          7.61772         0.36203        -1.60311
H          6.00862        20.24314         0.81145
H          9.99544         0.26940        -0.98763
H          8.44640        19.86422        -0.44261
H         12.47117         0.20354        -0.55922
H         10.94507        20.30951         0.35671
H         14.89712         0.26160        -0.78067
H         13.46394        20.38816         0.09174
H         17.38375         0.27735        -0.63615
H         15.98437        20.40390         0.07415
H         19.83254         0.36562        -0.67458
H         18.41283        20.41148        -0.16307
H         22.18182         0.39762        -0.39699
H         20.89663        20.48426        -0.29580
H         24.51328         0.36762         0.18560
H         23.40811        20.48065        -0.08460
H         26.86765         0.28701         0.71682
H         25.91063        20.39388        -0.29542
H         29.12721         0.09345         1.36520
H         28.31529        20.36989        -0.19842
H         32.04222         0.47820         1.95365
H         30.78965        20.22431        -0.64718
H         34.31977         0.30544         1.11297
H         33.12068        20.02317        -1.37674
H         36.79157         0.25242         0.95536
H         35.51239        20.01873        -1.69031
H         39.27267         0.19129         0.82583
H         37.93554        20.03744        -2.00036
H         41.43020         1.39450         0.62987
H         42.68304         3.49982         0.31259
H         42.74284         5.93728         0.01597
H         42.69396         7.78861        -0.58034
H         42.66163        10.16148        -1.09261
H         42.61571        12.03423        -1.42397
H         42.54931        14.38610        -2.02834
H         42.50387        16.28336        -2.42764
H         40.24896        19.92532        -2.87452
H         42.33423        18.61974        -3.18014
