         300
 CSIRO Nanostructure Databank - Neutral Graphene Oxide Data Set
C         30.26497        31.42280         0.12956
C         30.27776        32.71647         0.30029
C         30.17177        36.02542         0.48854
C         30.20849        37.25636         0.55736
C         30.20996        40.50038         0.91913
C         30.16597        41.72998         1.02425
C         32.92333        28.88049        -0.67150
C         31.79168        29.38324        -0.46512
C         32.66545        31.60729        -0.08255
C         31.40649        30.71041        -0.12450
C         32.57055        32.90457         0.69102
C         31.24115        33.63721         0.53127
C         32.60046        35.86835         0.67851
C         31.30394        35.09637         0.37929
C         32.57740        37.39721         0.70195
C         31.26555        38.17973         1.06563
C         32.60814        40.33289         0.95694
C         31.32188        39.58647         0.49015
C         32.56869        41.82797         0.95798
C         31.28735        42.58968         1.51765
C         32.57539        44.56623         0.88299
C         31.49569        44.00225         1.05135
C         35.66288        27.91278        -2.34552
C         35.34580        29.20081        -1.72033
C         33.94673        29.68949        -1.42595
C         35.21645        31.54122         0.17460
C         33.97713        31.06701        -0.57522
C         35.16047        32.90721         0.84684
C         33.83626        33.65504         0.96973
C         35.14610        35.91050         1.37558
C         33.83242        35.15372         1.17452
C         35.09451        37.47502         1.43517
C         33.85377        38.16198         0.83637
C         35.08599        40.39399         0.95949
C         33.81021        39.66640         0.99481
C         35.13069        41.76899         0.96491
C         33.88146        42.56878         0.88862
C         35.06659        44.63741         0.20020
C         33.99118        44.11389         1.11591
C         35.29346        45.84443        -0.39782
C         38.07610        27.92262        -2.03474
C         36.82040        27.54209        -2.61533
C         37.91765        29.04859        -1.25029
C         36.63498        29.80402        -1.13549
C         37.78238        31.71236         0.05042
C         36.55897        30.77371         0.03983
C         37.76510        32.99252         0.84959
C         36.44319        33.69044         1.11749
C         37.66921        35.91292         0.63847
C         36.42174        35.16930         1.15578
C         37.60118        37.32373         1.29860
C         36.32457        38.07494         0.74827
C         37.65513        40.34872         0.92690
C         36.35982        39.61519         0.78833
C         37.68149        41.82456         0.74080
C         36.40253        42.61087         0.89793
C         37.50300        44.37972        -0.65465
C         36.18097        43.65699        -0.22641
C         37.60402        45.93279        -0.64787
C         36.21154        46.44073        -1.08698
C         40.45195        25.10168        -2.54953
C         39.55530        25.92604        -2.75321
C         40.26584        27.30833        -0.92638
C         39.45091        27.34842        -2.30204
C         40.31645        28.74770        -0.37532
C         39.07497        29.56874        -0.47358
C         40.38858        31.61473         0.41366
C         39.09847        31.04650        -0.20006
C         40.32847        33.12990         0.30970
C         39.07848        33.77602         0.86109
C         40.25652        36.08807         0.60235
C         39.02565        35.26156         0.93358
C         40.23315        37.51486         1.07075
C         38.90825        38.15945         1.41050
C         40.16050        40.56573         1.52840
C         38.90633        39.66351         1.37177
C         40.14984        41.81972         0.64594
C         38.82051        42.34140         0.19513
C         40.10979        44.20946        -1.01061
C         38.79796        43.63255        -0.53128
C         40.10012        45.61418        -1.51844
C         38.81999        46.43208        -1.43658
C         39.77671        47.68749        -3.29261
C         38.81412        47.34744        -2.59371
C         42.84625        24.63685        -1.81657
C         41.47098        25.04643        -1.42714
C         42.80456        27.33229        -1.15954
C         41.60995        26.62533        -1.10481
C         42.83386        28.85705        -0.94018
C         41.65593        29.44389        -0.11274
C         42.93507        31.72771        -0.32547
C         41.55366        30.98168        -0.42555
C         42.95560        33.20136         0.02187
C         41.60076        33.91063         0.19669
C         42.85042        36.04640         0.92003
C         41.59574        35.38629         0.47771
C         42.84469        37.42647         1.58022
C         41.49722        38.22503         1.51181
C         42.78854        40.48654         1.33996
C         41.48170        39.74211         1.55572
C         42.76603        41.80628         0.58738
C         41.44418        42.44607         0.21560
C         42.70570        44.16444        -1.23399
C         41.42625        43.51331        -0.84430
C         42.62355        45.51767        -1.87789
C         41.24884        45.90954        -2.47571
C         42.37012        47.68070        -3.71491
C         41.07215        47.04093        -3.50860
C         43.86531        25.34625        -1.89618
C         45.30454        27.45637        -1.68781
C         44.04115        26.72332        -1.61415
C         45.38285        28.78089        -0.95190
C         44.15422        29.32083        -0.24679
C         45.40225        31.46650         0.60026
C         44.28603        30.93953        -0.35332
C         45.37673        32.97145         1.04398
C         44.28456        33.92355         0.43535
C         45.25993        36.00453         1.66909
C         43.99132        35.13903         1.40853
C         45.31464        37.44107         1.29545
C         44.04037        38.23549         1.00345
C         45.31258        40.42189         1.01834
C         44.08883        39.67868         1.57543
C         45.24941        41.65123         0.16706
C         43.94228        42.27299        -0.18089
C         45.10263        43.55571        -1.90132
C         43.87339        43.39340        -1.03941
C         45.22273        45.95141        -2.07654
C         43.86366        46.39517        -2.23562
C         43.48353        47.32086        -3.32352
C         47.75354        27.54770        -1.66114
C         46.67233        26.93798        -1.75951
C         47.98596        28.62210        -0.65263
C         46.65357        29.23230        -0.26468
C         47.98421        30.98934         0.85649
C         46.62463        30.53670         0.51020
C         47.93163        33.14277         1.65124
C         46.57038        33.73332         1.67144
C         47.90070        35.97660         1.84992
C         46.55481        35.24366         1.85863
C         47.89855        37.44856         1.56075
C         46.58052        38.18079         1.42747
C         47.85300        40.33731         0.63191
C         46.61488        39.66187         1.12752
C         47.79131        41.50805        -0.06323
C         46.47119        41.93541        -0.70854
C         47.63182        43.90071        -1.91486
C         46.41771        43.43037        -1.11499
C         47.59958        45.16748        -2.65497
C         46.45038        45.84878        -2.28394
C         50.50341        28.73583        -0.16047
C         49.24541        29.46332        -0.68393
C         50.37053        31.61936         0.32749
C         49.14715        30.70086         0.22129
C         50.37541        32.88730         1.28549
C         49.10410        33.76782         1.33580
C         50.43340        35.90955         1.36504
C         49.21342        35.17466         1.93555
C         50.38605        37.33728         0.86404
C         49.18165        38.18942         1.22324
C         50.34217        40.23499         0.09947
C         49.16215        39.66676         0.90365
C         50.34619        41.77371         0.10765
C         48.98643        42.45668        -0.15592
C         50.25961        44.00803        -1.55813
C         48.95678        43.33430        -1.47719
C         51.47388        29.44576         0.22889
C         52.76734        31.61684         0.90449
C         51.70917        30.74936         0.63263
C         52.84694        32.85114         1.12727
C         51.73346        33.85086         0.85146
C         52.84454        36.08112         1.23594
C         51.76808        35.13425         1.68064
C         52.78787        37.26926         0.93803
C         51.69682        38.07480         0.31977
C         52.73409        40.37290        -0.16016
C         51.70715        39.57070         0.59720
C         52.75549        41.57487        -0.42806
C         51.64812        42.51811        -0.24406
C         51.33443        43.70880        -1.03116
O         50.12913        36.21445        -0.03497
O         41.40351        38.93913         2.77412
O         33.08061        42.30975        -0.31511
O         40.14815        37.17020        -0.35824
O         51.15385        42.47327         1.11841
O         47.96123        36.94151         2.93804
O         40.60822        43.25330        -2.02821
O         47.99166        31.80057         1.97230
O         35.00215        31.67999         1.61011
O         37.15130        39.95640        -0.42239
O         37.20597        32.93204         2.18001
O         36.07536        30.28510        -2.38467
O         33.33405        37.81642        -0.47438
O         37.99123        43.68084        -1.81054
O         39.93600        46.67802        -0.53077
O         32.24329        35.43176        -0.67676
O         42.89567        41.74422         2.05315
O         42.53604        36.03364        -0.49217
O         47.36515        28.26318         0.58696
O         43.01688        32.75619        -1.36132
O         33.25244        32.03295        -1.38061
O         41.01198        45.65548        -3.88739
O         33.03871        33.00701         2.04572
O         45.31782        28.76719        -2.39553
O         38.79668        38.92442         2.63797
O         40.76046        42.94275         1.39692
O         45.02356        43.46592        -3.11374
O         40.73323        33.66220        -0.97244
O         43.11951        46.60974        -1.02086
O         45.51419        41.74383         1.61038
O         49.46216        39.20885         2.23606
O         39.41428        28.84992         0.77965
O         48.35140        42.80301        -2.62879
O         46.68815        39.22825         2.51787
O         45.78236        35.66525         3.01852
O         45.72747        30.57536         1.66865
O         39.24727        34.48386         2.13312
O         38.46654        31.85973        -1.22487
O         34.30399        35.44291         2.51817
O         45.56258        33.06256         2.46788
O         31.35140        42.55145         2.91712
H         30.55530        42.97816         3.29381
O         40.02154        41.10521         2.85411
H         40.18759        40.36836         3.48469
O         40.47341        31.29192         1.80927
H         39.78086        31.78390         2.30210
O         51.73445        37.88573        -1.08603
H         51.57073        36.92845        -1.25820
O         48.77732        43.41789         0.90045
H         49.61339        43.48526         1.42448
O         42.76624        29.42400        -2.24637
H         43.62326        29.25555        -2.70872
O         35.06803        37.88924         2.81252
H         34.80218        37.11084         3.35515
O         37.68064        35.84766        -0.79650
H         36.90120        36.34412        -1.15043
O         51.77432        34.24941        -0.47895
H         51.63747        33.46801        -1.06595
O         37.77326        46.29419         0.71134
H         38.30266        47.11794         0.77052
O         39.47125        26.50332        -0.03738
H         39.08617        27.10639         0.64770
O         44.21356        39.59130         2.99895
H         44.36937        40.50241         3.33410
O         41.90255        29.25943         1.28310
H         41.04300        29.37569         1.75709
O         44.88123        34.44818        -0.75978
H         44.16830        34.87063        -1.29265
O         34.31002        44.36520         2.47749
H         34.66492        45.27351         2.56668
O         37.35407        36.93139         2.66118
H         37.49710        37.70829         3.24863
O         46.27660        44.23603         0.05849
H         47.02923        44.05688         0.67202
O         35.66275        42.95766        -1.35326
H         36.34995        42.95243        -2.06219
O         36.58468        43.34873         2.12664
H         36.86229        42.73544         2.83861
O         43.50311        34.56904         2.62258
H         44.15708        34.77771         3.33516
O         49.40373        34.90466         3.33804
H         49.13331        35.71230         3.83676
O         46.31084        41.11786        -1.88375
H         46.97032        41.41326        -2.55599
O         49.48754        29.82935        -2.03961
H         49.41741        29.02275        -2.59805
O         36.69072        29.92465         1.19373
H         36.33024        30.42106         1.96868
O         33.37159        29.96199        -2.68815
H         34.05245        30.35867        -3.27151
O         31.36157        39.51040        -0.91645
H         31.49776        40.40726        -1.28700
O         51.89820        39.79189         1.96506
H         51.88963        40.75957         2.14029
O         50.54309        32.09095        -1.01377
H         50.37199        31.34695        -1.64432
O         50.61654        32.40837         2.59158
H         50.36797        33.11465         3.23442
O         41.00028        24.34068        -0.33310
H         40.19499        24.80305         0.00511
O         50.07899        39.91285        -1.27777
H         50.69034        39.19079        -1.57743
O         31.18786        38.29308         2.47847
H         30.87867        37.44967         2.86763
O         44.30158        28.75057         1.04000
H         43.58136        29.03754         1.64643
O         36.08348        37.76463        -0.64044
H         36.50047        38.46772        -1.19303
O         43.85555        38.44182        -0.41801
H         43.51917        37.61451        -0.83459
O         41.09683        31.08981        -1.76927
H         41.14056        32.04008        -2.03197
O         44.86440        31.15214        -1.65477
H         44.35731        31.86925        -2.10676
O         40.13719        28.21442        -3.18636
H         39.65783        28.26192        -4.03864
O         51.86369        34.86772         3.05927
H         52.63738        34.28366         3.20740
O         43.10140        37.15579         2.95596
H         43.33851        38.00818         3.39909
