         280
 CSIRO Nanostructure Databank - Neutral Graphene Oxide Data Set
C         30.40781        31.68925        -0.06827
C         30.26290        32.85587        -0.44852
C         30.26225        36.06909         0.23099
C         30.33597        37.30043         0.51155
C         30.28719        40.31047        -0.12420
C         30.29926        41.55326        -0.27896
C         32.66614        28.81030         1.01002
C         31.65529        29.39649         0.61709
C         32.82812        31.48268         0.62071
C         31.54461        30.79490         0.19396
C         32.88071        32.94267         0.91063
C         31.08732        33.97070        -0.86250
C         32.63546        35.85430         0.35006
C         31.26507        35.15798        -0.16647
C         32.64496        37.30939        -0.08406
C         31.48758        38.03577        -0.01865
C         32.69313        40.24677        -0.31141
C         31.40837        39.41621        -0.59208
C         32.70258        41.62819        -0.34709
C         31.43783        42.40155        -0.30322
C         32.73890        44.34041        -0.11970
C         31.60300        43.79961        -0.27001
C         35.38107        27.17631         0.66183
C         35.17731        28.67760         0.65474
C         34.02915        29.25171         1.49796
C         35.20110        31.45568         0.93957
C         34.03623        30.77798         1.10850
C         35.26341        32.83156         0.25433
C         33.96498        33.64615         0.43953
C         35.19037        35.92169         0.48121
C         33.94730        35.11413        -0.00248
C         35.20059        37.28308        -0.18815
C         33.91810        37.98411        -0.56503
C         35.19795        40.19330        -0.34872
C         33.93199        39.43079         0.03859
C         35.22506        41.65219         0.10223
C         34.03481        42.37866        -0.56412
C         35.25243        44.50218         0.11395
C         34.05141        43.85989        -0.10165
C         35.47504        45.89911         0.29689
C         37.80163        27.23125         0.17694
C         36.46771        26.73558         0.25242
C         37.83967        28.58881         0.82139
C         36.52840        29.29315         1.13052
C         37.77364        31.55159         1.30119
C         36.44485        30.80246         1.50287
C         37.76754        32.95930         0.89135
C         36.42484        33.67808         0.87196
C         37.74490        35.91196         0.55982
C         36.50509        35.08858         0.18917
C         37.71494        37.31206         0.02198
C         36.48873        37.89345        -0.69950
C         37.76648        40.29252        -0.84285
C         36.46034        39.46649        -0.69257
C         37.75496        41.70340        -0.26928
C         36.54141        42.38847        -0.10980
C         37.77826        44.51790         0.07322
C         36.55012        43.79967         0.06139
C         37.86002        45.99513         0.50219
C         36.49531        46.60221         0.22099
C         39.99595        24.78505        -1.53139
C         39.04554        25.41263        -1.03807
C         40.19234        27.41297        -0.46493
C         38.89202        26.70456        -0.44478
C         40.19606        28.80050         0.02494
C         39.09889        29.36258         0.63764
C         40.35189        31.57425         0.90691
C         39.10813        30.78006         1.08515
C         40.32311        32.99926         1.33925
C         38.99372        33.74683         1.13854
C         40.25387        35.80383         0.45738
C         39.06093        35.19413         0.73237
C         40.30781        37.18788        -0.09708
C         39.01306        37.96894        -0.31755
C         40.25932        40.20594        -0.15412
C         39.02160        39.45730        -0.54483
C         40.26771        41.70067        -0.17788
C         38.97054        42.43528        -0.32480
C         40.26856        44.57486        -0.54075
C         38.99151        43.83658        -0.14856
C         40.28107        46.06625        -0.22770
C         39.03324        46.72796        -0.07251
C         40.20191        48.80072        -0.52386
C         39.17877        48.10966        -0.22223
C         42.55016        24.98007        -2.02450
C         41.39318        25.19173        -1.09260
C         42.65303        27.46867        -0.84221
C         41.33420        26.76742        -0.89126
C         42.73304        28.85431        -0.29186
C         41.42959        29.64415        -0.26006
C         42.82445        31.53666         0.82661
C         41.50131        30.94049         0.51916
C         42.90572        33.00494         1.18899
C         41.62529        33.84263         1.38100
C         42.84721        35.89093         0.66568
C         41.58627        35.03683         0.41825
C         42.97156        37.23881        -0.03365
C         41.61374        37.93850        -0.22862
C         42.85777        40.22813         0.09691
C         41.57362        39.44563        -0.03736
C         42.85765        41.70354        -0.05472
C         41.59102        42.39269        -0.53104
C         42.77286        44.55550        -0.25659
C         41.57779        43.87585        -0.24963
C         42.80276        46.06901        -0.14866
C         41.47989        46.78059        -0.43630
C         42.75811        48.74544        -1.02984
C         41.47007        48.20792        -0.66200
C         43.59075        25.64678        -2.06060
C         45.07488        27.70476        -1.55339
C         43.73701        27.12521        -1.88654
C         45.19151        29.00307        -0.91526
C         44.00680        29.61215        -0.40619
C         45.41528        31.53437         0.58378
C         44.09147        30.81826         0.43553
C         45.39390        33.01463         0.76652
C         44.20524        33.69687         0.94636
C         45.43557        35.86321         0.34990
C         44.16011        35.18453         0.85221
C         45.42756        37.37710         0.49426
C         44.10552        38.11058         0.57774
C         45.37557        40.27752         0.32628
C         44.16723        39.48685        -0.12694
C         45.31078        41.69743         0.28281
C         44.05954        42.40265         0.03894
C         45.23968        44.56768        -0.35306
C         44.04845        43.85710        -0.16952
C         45.20278        45.92456        -0.90686
C         44.02006        46.64913        -0.90650
C         43.74146        47.98477        -1.23051
C         47.43577        27.82710        -1.93919
C         46.31148        27.26234        -2.02773
C         47.66774        29.12999        -1.41927
C         46.46677        29.67082        -0.84615
C         47.88205        31.73419        -0.19094
C         46.63529        30.91048        -0.04944
C         47.82581        33.16579         0.19654
C         46.66437        33.74225         0.62560
C         47.87270        35.96703         0.75535
C         46.62129        35.19795         1.04901
C         47.82190        37.38994         1.05821
C         46.56346        38.11918         0.72971
C         47.77958        40.33930         0.92682
C         46.52914        39.57479         0.72100
C         47.84334        41.70518         0.37869
C         46.56627        42.43574         0.42959
C         47.81495        44.48341        -0.53774
C         46.54821        43.95518        -0.00812
C         47.52933        45.65057        -1.23189
C         46.48049        46.33903        -1.39119
C         50.16940        29.41199        -1.80623
C         48.88964        29.84560        -1.48182
C         50.31816        31.93549        -0.85980
C         48.93775        31.36320        -1.22476
C         50.36288        33.22485        -0.26923
C         49.05529        34.00354        -0.12698
C         50.40723        36.06313         0.56121
C         49.15606        35.19750         0.84562
C         50.40482        37.38494         1.35294
C         49.08451        38.12488         1.36741
C         50.33349        40.20122         0.57971
C         49.08514        39.62123         1.16710
C         50.31293        41.65286         0.28018
C         49.09365        42.33560         0.14805
C         50.37839        44.34963        -0.18343
C         49.08727        43.69699        -0.60144
C         51.31781        29.94824        -1.83869
C         52.70345        31.92293        -0.87748
C         51.52903        31.20678        -1.17807
C         52.66890        33.04813        -0.29877
C         51.59864        33.88155         0.03361
C         52.78210        36.17983         0.60825
C         51.68674        35.15490         0.83650
C         52.80217        37.35902         0.97751
C         51.69677        38.14719         1.56422
C         52.62960        40.56347         1.31242
C         51.64134        39.64042         1.83050
C         52.75399        41.65647         0.74123
C         51.69477        42.28450        -0.12359
C         51.45359        43.76123        -0.05829
O         48.46800        40.30331         2.26770
O         39.51637        33.38615         2.47841
O         41.03409        37.28744        -1.38342
O         48.27134        37.69820         2.49549
O         42.99531        27.68333         0.56396
O         46.59612        43.53775         1.38747
O         38.62296        31.08388         2.42263
O         40.31963        44.48342        -1.96617
O         43.47771        35.84150         1.96618
O         37.54200        37.06148         1.45611
O         42.92510        31.98353         2.22469
O         35.54269        39.96095        -1.72609
O         37.23272        28.57016         2.16361
O         44.94030        30.66240         1.64357
O         40.10664        40.97687         1.08941
O         51.07784        37.37660         2.65804
O         42.13832        39.75881         1.27016
O         39.09918        38.52650        -1.65935
O         47.76396        30.80577         0.91713
O         32.55530        31.12438        -0.82821
O         31.98407        33.55518        -1.80005
H         32.06186        32.56021        -1.78194
O         44.31111        39.33016        -1.56853
H         45.26090        39.20998        -1.78025
O         48.52324        32.01927        -2.47118
H         49.15024        31.74567        -3.17553
O         35.55450        32.54547        -1.12841
H         34.91804        31.86596        -1.43830
O         31.85632        33.36071         1.67882
H         32.01672        34.29343         1.99835
O         43.08491        46.36019         1.25094
H         43.14590        47.33388         1.35615
O         50.41967        36.49560        -0.79935
H         49.94307        35.84007        -1.36774
O         36.60723        37.52314        -2.09298
H         35.89573        38.02003        -2.56405
O         35.05935        36.13311         1.89426
H         35.81276        36.69832         2.18446
O         41.68998        34.38308         2.70335
H         41.84248        33.63743         3.32279
O         41.67579        42.26876        -1.98464
H         41.15032        43.05876        -2.33886
O         34.27512        42.39366        -1.97353
H         33.56639        42.90539        -2.41485
O         41.67537        24.62615         0.15240
H         41.82327        23.66404         0.05340
O         37.88699        40.60525        -2.25203
H         37.98777        39.75456        -2.73597
O         41.31142        30.06464        -1.66489
H         40.48060        30.57375        -1.77357
O         36.19109        30.83653         2.92385
H         36.95329        30.38649         3.35724
O         43.29837        27.76859        -3.09761
H         43.91346        27.52516        -3.82054
O         46.38148        35.25434         2.47310
H         47.14801        34.82949         2.91791
O         49.23548        43.35597        -1.98727
H         50.10811        42.91114        -2.09961
O         41.70080        34.51716        -0.92565
H         41.67462        35.29382        -1.53706
O         51.21709        39.92757         3.10294
H         50.80483        39.12312         3.49431
O         43.39824        36.90137        -1.38655
H         43.49042        37.75333        -1.88640
O         34.24549        29.00101         2.84983
H         33.59834        29.48955         3.39575
O         32.51735        35.85887         1.78476
H         31.89152        36.57115         2.04035
O         36.69973        34.89125        -1.21460
H         35.83055        34.67342        -1.63105
O         33.89734        39.19958         1.46075
H         34.07665        40.05716         1.91489
O         34.99448        41.64630         1.53683
H         35.16440        42.54614         1.89015
O         36.07535        33.80621         2.26228
H         36.86215        34.08295         2.77727
O         31.30276        39.26377        -2.00414
H         31.31944        40.14782        -2.42565
O         51.92131        41.91720        -1.48643
H         52.83360        42.18011        -1.73389
O         48.78542        34.55522        -1.45113
H         48.60461        33.78727        -2.05561
O         49.21224        34.67125         2.19140
H         49.29117        35.43227         2.80865
O         33.86251        38.06072        -2.01031
H         33.79994        37.13173        -2.33075
O         43.93541        38.38205         1.97290
H         43.95675        37.52435         2.46141
O         34.98962        29.09414        -0.69516
H         34.09347        28.81711        -0.98586
O         50.70896        39.45850        -0.56527
H         51.31704        40.00997        -1.11109
O         38.03458        45.97832         1.92500
H         38.20768        46.89366         2.23025
O         34.07048        35.15706        -1.45361
H         33.40686        34.53704        -1.84613
O         51.77097        34.77582         2.18961
H         51.80569        35.59464         2.73951
O         45.61150        35.53064        -1.04729
H         44.83759        35.90957        -1.53740
