         252
 CSIRO Nanostructure Databank - Neutral Graphene Oxide Data Set
C         31.27850        31.93393        -3.04921
C         31.27779        33.17137        -2.90623
C         31.09090        36.29071        -2.31234
C         30.84475        37.38873        -1.76717
C         30.44263        40.32814        -0.37141
C         30.16296        41.57165        -0.33755
C         33.61413        29.13752        -2.33274
C         32.54493        29.69004        -2.74280
C         33.49421        31.80536        -2.11478
C         32.36085        31.07440        -2.68308
C         33.46449        33.24671        -2.01163
C         32.29544        34.04529        -2.42002
C         33.39299        36.20791        -1.75691
C         32.21692        35.41594        -2.23479
C         33.19822        37.61459        -1.19670
C         31.81133        38.36519        -1.28388
C         32.68146        40.10976         0.30118
C         31.57549        39.50991        -0.37330
C         32.68071        41.41332         0.86145
C         30.75419        42.51086         0.50141
C         32.44418        44.24420         0.56314
C         31.32634        43.78002         0.24845
C         35.78081        27.48851        -0.86680
C         36.01797        28.92308        -1.38707
C         34.75353        29.65803        -1.74047
C         35.75718        31.80061        -1.04342
C         34.65416        31.08933        -1.64039
C         35.69008        33.19513        -0.95901
C         34.56964        33.91401        -1.44389
C         35.39208        35.93043        -0.17930
C         34.59930        35.39230        -1.31238
C         34.90562        37.06015         0.47834
C         33.99856        37.98340        -0.04271
C         35.27260        40.11014         0.39961
C         33.94721        39.33057         0.65087
C         35.14989        41.61410         0.61628
C         33.89192        42.21730         0.71966
C         35.06311        44.46077         0.26474
C         33.78162        43.67958         0.38874
C         35.22330        45.90571         0.49921
C         37.71501        27.50599         0.68402
C         36.78383        27.04184        -0.20514
C         37.62336        29.02527         0.76578
C         36.83959        29.68718        -0.35007
C         37.91954        31.79654         0.28697
C         36.82874        31.06077        -0.36740
C         37.98359        33.16914         0.07315
C         36.89610        33.98527        -0.53649
C         37.77379        35.92485         1.05629
C         36.58926        35.22590         0.30310
C         37.80099        37.38338         1.39158
C         36.63310        38.11635         1.43434
C         37.70270        40.24809         0.98033
C         36.53211        39.52078         1.07613
C         37.68467        41.67164         0.68551
C         36.39011        42.37378         0.56880
C         37.60666        44.56579         0.50805
C         36.35282        43.76552         0.52210
C         37.61131        46.02554         0.97360
C         36.23771        46.51248         0.84321
C         39.94523        24.78399         1.71213
C         38.88623        25.38987         1.48035
C         40.08909        27.51306         1.42014
C         38.67760        26.86701         1.62131
C         40.13466        28.89765         1.36769
C         38.98370        29.67663         0.99270
C         40.12935        31.68960         1.73078
C         39.02756        31.05851         0.90160
C         40.40218        33.32391         0.06134
C         39.17834        33.92419         0.30171
C         40.37794        36.12696         0.71424
C         39.15106        35.24739         1.03497
C         40.37498        37.43902         1.45767
C         39.06634        38.13368         1.56287
C         40.21525        40.21195         0.64739
C         39.03476        39.66160         1.45826
C         40.18127        41.67296         0.59509
C         38.89863        42.36094         0.64836
C         40.18013        44.58728         0.95282
C         38.91655        43.84009         0.50783
C         40.19324        46.08705         0.50389
C         38.89206        46.77471         1.03597
C         40.21986        48.78587         1.12843
C         39.12059        48.22474         1.01385
C         42.54465        24.69213         1.84397
C         41.28081        25.28685         1.70278
C         42.56679        27.38479         1.28424
C         41.32663        26.72867         1.49016
C         42.57385        28.87458         0.90324
C         41.49103        29.54400         1.79223
C         42.73377        31.72448         0.82905
C         41.60140        31.15208         1.73770
C         42.79840        33.12835         0.58274
C         41.60585        33.91560         0.56304
C         42.86074        35.95827         0.74034
C         41.62787        35.29549         0.79662
C         42.78978        37.43061         0.68904
C         41.39251        38.01146         0.49179
C         42.54481        40.20565        -0.24885
C         41.31179        39.49335         0.22071
C         42.61240        41.68267         0.07623
C         41.36770        42.37415         0.47824
C         42.71307        44.58625         0.52160
C         41.39344        43.84901         0.42844
C         42.71597        46.02024         0.95038
C         41.51875        46.77812         0.91086
C         42.81109        48.71058         1.42096
C         41.53154        48.20558         1.13459
C         43.62427        25.33748         1.74983
C         45.05732        27.34780         1.19872
C         43.82023        26.68629         1.37204
C         45.07300        28.70798         0.48870
C         43.93569        29.55797         1.17245
C         45.11443        31.61894         0.15696
C         43.94287        31.00213         0.66462
C         45.19716        33.04660         0.00301
C         44.02677        33.80974         0.34700
C         45.19135        35.94158        -0.09402
C         44.03654        35.23945         0.38946
C         45.20385        37.35583        -0.20394
C         44.01559        38.13612         0.22826
C         45.14801        40.25562        -0.30140
C         43.86736        39.44904        -0.51415
C         45.16821        41.58140         0.00482
C         43.92360        42.23581         0.63150
C         44.95863        44.38219         1.39346
C         43.91216        43.76472         0.75143
C         45.14381        45.80635         1.48564
C         43.98751        46.61769         1.30810
C         43.85762        48.01015         1.47960
C         47.44376        27.64801         1.63283
C         46.33509        27.03433         1.62250
C         47.56730        28.91176         0.94788
C         46.37881        29.45900         0.49820
C         47.62326        31.66329        -0.02873
C         46.34586        30.79687        -0.23046
C         47.58120        32.91718        -0.95059
C         46.33377        33.74093        -0.53002
C         47.19701        35.92496        -1.41751
C         46.25025        35.16240        -0.67479
C         47.39369        37.30232        -1.29366
C         46.29629        38.06020        -0.77922
C         47.50119        40.18683        -1.13350
C         46.34502        39.52211        -0.76958
C         47.70247        41.58068        -0.57396
C         46.39239        42.39164        -0.37484
C         47.80004        44.34829         0.34718
C         46.80058        43.44083         0.62081
C         47.56455        45.57433         1.05390
C         46.52976        46.12103         1.49801
C         50.15408        29.10119         1.09167
C         48.86003        29.46217         0.53058
C         50.19020        31.57366        -0.14567
C         48.92376        30.86643        -0.13623
C         50.17995        33.08842        -0.20040
C         48.93847        33.65941        -0.88568
C         50.21041        35.73945        -1.67167
C         49.07267        34.78831        -1.61821
C         50.00818        37.22859        -1.59470
C         48.67274        37.94915        -1.75740
C         49.99253        40.24484        -1.73864
C         48.68172        39.47693        -1.69378
C         50.07396        41.77168        -1.56007
C         48.79438        42.49208        -1.16850
C         50.22688        44.37213        -0.52617
C         48.83068        43.94597        -0.64869
C         51.23120        29.71396         1.05507
C         52.56299        31.81002         0.21988
C         51.53436        30.76137        -0.00779
C         52.61005        32.97346        -0.18488
C         51.47584        33.56852        -1.00025
C         52.49911        36.02091        -0.75430
C         51.53236        35.05432        -1.30430
C         52.30248        37.21351        -1.06150
C         51.14903        38.00814        -1.35706
C         52.31630        40.24668        -1.38682
C         51.21500        39.43348        -1.47446
C         52.46929        41.52071        -1.31538
C         51.42715        42.40871        -1.22797
C         51.25960        43.78244        -0.89082
O         51.20627        35.32471        -2.68432
O         34.37056        43.99915        -0.90931
O         38.34764        44.34010        -0.74037
O         43.93367        39.10510        -1.87624
O         47.96510        35.23121        -2.35858
O         42.02456        44.36889        -0.77789
O         31.54740        41.88417         1.56376
O         37.47650        34.57506        -1.79120
O         36.79035        35.08260         1.73575
O         32.89455        38.62730        -2.19800
O         35.48264        37.37923         1.70906
O         34.59002        36.11999        -2.58940
O         48.48592        38.75509        -2.95591
O         42.44673        41.22735        -1.29201
O         50.06021        41.15976        -2.87742
O         39.78341        32.36994         2.69093
O         43.66319        38.13676         1.64090
O         38.30434        46.23160         2.24495
O         46.04506        43.56425         1.79838
O         48.90684        29.60167        -0.93493
O         41.73058        29.12743         3.08366
O         40.69148        37.03112        -0.51275
O         39.91782        37.72978         2.77273
O         48.40904        43.62184        -1.99063
O         38.02288        33.44345        -2.54559
H         37.89645        33.75267        -3.47614
O         48.22669        41.32573         0.77603
H         47.57092        40.78674         1.26935
O         50.20651        33.63066         1.14634
H         51.03966        33.32648         1.57282
O         44.70135        28.44882        -0.88386
H         45.18718        29.10440        -1.46019
O         51.81099        30.08280        -1.19996
H         51.00262        29.58676        -1.46156
O         42.12266        31.56541         3.00901
H         41.39232        32.03433         3.48490
O         47.41459        32.50810        -2.31767
H         47.43880        33.32226        -2.87015
O         39.21294        40.20845         2.78889
H         39.71483        39.53698         3.31005
O         33.85148        39.16555         2.08038
H         33.11577        38.55577         2.29318
O         47.58413        32.13814         1.33254
H         48.38763        32.68568         1.50091
O         42.19090        29.02505        -0.46239
H         42.95048        28.71888        -1.02074
O         46.00985        43.08457        -1.57913
H         45.66720        42.43067        -2.22552
O         43.90216        41.76279         2.01335
H         44.71143        42.10277         2.45819
O         39.44305        34.96017         2.42763
H         38.72089        34.39395         2.78009
O         36.86107        29.29067         1.97820
H         37.25762        28.75273         2.70622
O         44.21862        29.55781         2.55882
H         43.34521        29.54901         3.06813
O         40.08901        46.20155        -0.91368
H         40.79807        45.65070        -1.32654
O         35.51728        39.96509        -1.02085
H         36.20265        40.60865        -1.29972
O         36.82025        28.81684        -2.56964
H         36.28342        28.39274        -3.27189
O         40.30448        44.51033         2.38236
H         39.55161        45.00323         2.79203
O         40.54724        32.29617        -0.81792
H         39.69594        32.14297        -1.28390
O         46.22337        30.45603        -1.63975
H         47.11855        30.19211        -1.95834
O         51.42485        32.86627        -2.22045
H         52.03594        33.27990        -2.86550
O         38.27898        27.17353         2.96427
H         39.00896        26.93428         3.57474
