         424
 CSIRO Nanostructure Databank - Neutral Graphene Oxide Data Set
C          1.21290         3.47784         0.36714
C          0.06997         4.21937         0.39396
C          1.17085         6.19585        -0.54905
C          0.06617         5.60097        -0.02829
C          1.19378         7.60299        -1.12250
C         -0.06597         8.38499        -0.87576
C          1.17399        10.48146        -0.61707
C         -0.05703         9.72134        -0.68797
C          1.16723        11.91306        -0.57737
C         -0.02925        12.66065        -0.53476
C          1.14032        14.81523        -0.53567
C         -0.02596        14.06221        -0.44691
C          1.13603        16.25883        -0.51687
C         -0.06712        16.98516        -0.50203
C          1.12063        19.10555        -0.61772
C         -0.06890        18.37998        -0.55634
C          1.06289        20.58464        -0.77951
C         -0.07142        21.36493        -0.26708
C          1.18466        23.47353        -0.50675
C         -0.03018        22.72182        -0.26037
C          1.16694        24.91898        -0.43213
C         -0.03167        25.67182        -0.48988
C          1.17931        27.78774        -0.26655
C         -0.02718        27.05622        -0.45855
C          1.19540        29.24886        -0.11668
C          0.01402        30.01164        -0.24322
C          1.19481        32.09969         0.26256
C          0.01529        31.38813        -0.08460
C          1.17458        33.53912         0.46997
C          0.03768        34.31202         0.27524
C          1.23553        36.42178         0.66045
C          0.04095        35.71391         0.44044
C          1.27663        37.86115         0.65355
C          3.65423         3.41054         0.09957
C          2.46088         4.06510        -0.05207
C          3.69101         6.21235        -0.49504
C          2.44108         5.40223        -0.76051
C          3.65232         7.64850        -0.51049
C          2.44175         8.35191        -0.68124
C          3.62837        10.50068        -0.35921
C          2.40520         9.77300        -0.57891
C          3.61176        11.94888        -0.36679
C          2.41859        12.63096        -0.54287
C          3.66635        14.84198        -0.45406
C          2.42374        14.10448        -0.89192
C          3.62387        16.28861        -0.40560
C          2.37604        16.98368        -0.52278
C          3.62059        19.11719        -0.60569
C          2.37241        18.41107        -0.57783
C          3.63835        20.54905        -0.98646
C          2.36104        21.34065        -0.97843
C          3.66213        23.48553        -0.64917
C          2.39486        22.78464        -0.67116
C          3.62737        24.90584        -0.47025
C          2.40608        25.62753        -0.34807
C          3.60718        27.76528         0.20801
C          2.37511        27.05646        -0.17588
C          3.66094        29.23619         0.23040
C          2.40381        29.95609         0.16779
C          3.66004        32.00475         0.90676
C          2.39341        31.35564         0.38589
C          3.68316        33.50545         0.76555
C          2.39258        34.21555         1.07214
C          3.67992        36.37476         0.81636
C          2.45422        35.69826         0.80626
C          3.71427        37.82048         0.80392
C          2.46304        38.53160         0.74544
C          6.11711         3.42355         0.01424
C          4.91252         4.08906        -0.11266
C          6.13531         6.25290        -0.20853
C          4.88844         5.53218        -0.28465
C          6.11346         7.68685        -0.18606
C          4.88124         8.37809        -0.27748
C          6.04533        10.56618         0.14935
C          4.82908         9.80379        -0.19472
C          6.05893        12.01571        -0.11407
C          4.87259        12.68270        -0.29497
C          6.09369        14.84063        -0.01390
C          4.85628        14.14440        -0.31142
C          6.01740        16.29364         0.22020
C          4.80494        17.02669        -0.18766
C          6.10583        19.18227        -0.26265
C          4.83290        18.44703        -0.34128
C          6.14909        20.58220        -0.46945
C          4.92978        21.31123        -0.88830
C          6.20990        23.45684        -1.03705
C          4.88543        22.78317        -0.74869
C          6.19661        24.94837        -0.73635
C          4.89493        25.65846        -0.51242
C          6.14236        27.79653        -0.01349
C          4.90738        27.01764         0.10381
C          6.14645        29.18447         0.08638
C          4.88656        29.90535         0.23754
C          6.09474        32.06028         0.30544
C          4.91907        31.34226         0.40448
C          6.13219        33.48730         0.52310
C          4.87888        34.19592         0.70507
C          6.14303        36.33067         0.80100
C          4.91701        35.64647         0.78868
C          6.17198        37.77431         0.88394
C          4.93428        38.48642         0.86408
C          8.58746         3.44813         0.15091
C          7.36866         4.12587        -0.01550
C          8.64881         6.28964        -0.30143
C          7.34843         5.55201        -0.12385
C          8.56028         7.72598         0.12922
C          7.36199         8.38290         0.07289
C          8.61684        10.58884         0.26382
C          7.33381         9.84006         0.34770
C          8.61049        11.99906         0.09622
C          7.36601        12.72545        -0.36109
C          8.56357        14.89124         0.18140
C          7.31283        14.18150         0.04270
C          8.58501        16.30169         0.22497
C          7.32823        17.05991         0.32859
C          8.56913        19.17606        -0.00343
C          7.32424        18.49824         0.00712
C          8.59261        20.59548        -0.12411
C          7.37282        21.30445        -0.33782
C          8.60537        23.42662        -0.23640
C          7.40654        22.73050        -0.45117
C          8.60385        24.88166        -0.12517
C          7.44031        25.58887        -0.25248
C          8.69140        27.80535        -0.10530
C          7.39281        27.04185         0.03284
C          8.59987        29.27224        -0.29030
C          7.38332        29.91035        -0.05953
C          8.60111        32.08928         0.30708
C          7.35374        31.40971        -0.21199
C          8.60984        33.45369         0.50502
C          7.35103        34.18372         0.55452
C          8.61629        36.29368         0.81488
C          7.38474        35.60897         0.73428
C          8.63874        37.73226         0.92894
C          7.40213        38.43874         0.95154
C         11.02828         3.45172         0.63484
C          9.82066         4.15229         0.32191
C         11.05559         6.27117         0.46617
C          9.84518         5.55962         0.24666
C         11.06650         7.69690         0.52002
C          9.75672         8.40927         0.75045
C         11.05482        10.57276         0.46649
C          9.80914         9.88600         0.44658
C         11.05042        11.99485         0.31896
C          9.81522        12.70932         0.15726
C         11.01699        14.87808         0.16385
C          9.80900        14.17176         0.13682
C         11.04467        16.29876         0.20126
C          9.81290        17.01934         0.18001
C         11.04868        19.14700         0.03006
C          9.80941        18.45063         0.11061
C         11.06732        20.57884        -0.06036
C          9.84035        21.29961        -0.09006
C         11.09605        23.43620        -0.11552
C          9.84196        22.72286        -0.09290
C         11.12799        24.83911        -0.15948
C          9.89702        25.59285         0.27320
C         11.01246        27.43916        -0.95910
C          9.88957        26.97797        -0.33480
C         11.00006        29.57488        -0.88877
C          9.81422        30.04586        -0.34928
C         11.11868        32.06047         0.27802
C          9.85267        31.28293         0.49547
C         11.10352        33.45587         0.47603
C          9.86340        34.16584         0.64281
C         11.10175        36.28751         0.77216
C          9.86466        35.57446         0.75734
C         11.10922        37.71719         0.89299
C          9.87146        38.40834         0.98221
C         13.47643         3.34877         1.16699
C         12.22786         4.11845         0.78314
C         13.49184         6.26966         0.78142
C         12.27270         5.54598         0.66188
C         13.49827         7.66202         0.73562
C         12.27548         8.39664         0.62424
C         13.51142        10.56736         0.62436
C         12.28900         9.85830         0.61204
C         13.49247        11.99660         0.48494
C         12.28767        12.68697         0.31428
C         13.48019        14.85420         0.63899
C         12.32207        14.15351        -0.06053
C         13.55779        16.32913         0.33663
C         12.29172        17.02582         0.20761
C         13.58356        19.10591        -0.21972
C         12.27265        18.41910         0.06655
C         13.54903        20.60315        -0.09237
C         12.31852        21.29157        -0.11477
C         13.56576        23.41683        -0.28195
C         12.32788        22.71608        -0.17226
C         13.58025        24.84931        -0.41187
C         12.34876        25.53587        -0.39091
C         13.50507        27.74641        -0.66267
C         12.33759        26.94188        -0.68349
C         13.50662        29.22230        -0.66032
C         12.30218        30.02336        -0.55063
C         13.53353        32.10356        -0.13585
C         12.32300        31.39352        -0.07621
C         13.55319        33.48463         0.16026
C         12.33529        34.17419         0.43596
C         13.57747        36.28390         0.62345
C         12.33649        35.58665         0.61762
C         13.57646        37.72328         0.74984
C         12.34908        38.40276         0.88163
C         15.75911         3.41838         0.16232
C         14.72944         4.06899         0.72662
C         15.98205         6.25368         0.52383
C         14.77982         5.53388         1.09479
C         16.01770         7.66184         0.58698
C         14.78126         8.39710         1.05075
C         15.97771        10.49857         0.43155
C         14.77315         9.84909         0.64641
C         16.00608        11.97042         0.51327
C         14.74768        12.74051         0.44573
C         16.00923        14.87636         0.17123
C         14.76473        14.10689         0.38150
C         16.03410        16.33559         0.42186
C         14.76807        17.00893         0.42674
C         16.03207        19.20326         0.25497
C         14.73318        18.51442         0.58659
C         16.04073        20.56056         0.01159
C         14.77587        21.30022        -0.12463
C         16.06350        23.41247        -0.60666
C         14.77975        22.70015        -0.27016
C         16.03053        24.92026        -0.42391
C         14.79271        25.61209        -0.48202
C         16.00069        27.76788        -0.47039
C         14.76305        27.05145        -0.51391
C         15.99876        29.21629        -0.54290
C         14.74196        29.91000        -0.58562
C         16.00908        32.13347        -0.45145
C         14.71879        31.42341        -0.76479
C         16.02901        33.46358        -0.09331
C         14.79499        34.19826         0.17884
C         16.09438        36.27255         0.75808
C         14.79709        35.56877         0.45518
C         16.04061        37.76398         0.51692
C         14.80916        38.42838         0.64298
C         18.28128         3.35239        -0.14970
C         16.99102         4.10685        -0.35738
C         18.34862         6.21163        -0.06720
C         17.10364         5.54237         0.08932
C         18.41375         7.63002         0.04842
C         17.21322         8.35849         0.30562
C         18.46530        10.46732         0.08908
C         17.23986         9.80090         0.29702
C         18.48599        11.95020        -0.21158
C         17.30138        12.67370         0.37799
C         18.55910        14.83676         0.59121
C         17.30230        14.14614         0.12293
C         18.52063        16.32767         0.33120
C         17.26771        17.00950         0.43161
C         18.54573        19.18414         0.16543
C         17.29811        18.50192         0.67166
C         18.51304        20.61493         0.00048
C         17.28496        21.28740        -0.00964
C         18.51803        23.49553        -0.23015
C         17.23791        22.78692         0.13114
C         18.49062        24.88239        -0.29973
C         17.24360        25.62130        -0.35139
C         18.48092        27.77945        -0.45121
C         17.23710        27.06128        -0.40182
C         18.47131        29.21396        -0.51970
C         17.23071        29.91729        -0.56204
C         18.50101        32.12488        -0.47565
C         17.25276        31.40361        -0.88534
C         18.51004        33.52049        -0.35242
C         17.27632        34.22166        -0.09530
C         18.51007        36.33529         0.02790
C         17.30141        35.59117         0.16374
C         18.48465        37.76833         0.14860
C         17.24283        38.44990         0.33097
C         19.46844         3.99961        -0.18693
C         20.76895         6.12945        -0.34553
C         19.54696         5.45017        -0.24086
C         20.82642         7.52414        -0.29402
C         19.66733         8.30467        -0.09261
C         20.90322        10.49688        -0.13604
C         19.68826         9.75435        -0.05057
C         20.96183        11.88160        -0.04575
C         19.79442        12.68194         0.04320
C         20.98859        14.87670         0.06194
C         19.81161        14.08984         0.16167
C         20.95115        16.26113         0.09526
C         19.73808        17.01560         0.18275
C         20.93436        19.20322        -0.27973
C         19.73562        18.47238         0.02553
C         20.93979        20.57022        -0.39279
C         19.74357        21.34312        -0.25706
C         20.88331        23.49888        -0.88942
C         19.73289        22.75142        -0.40467
C         20.90031        24.85129        -0.86750
C         19.80175        25.60672        -0.15585
C         20.91589        27.79879        -0.51624
C         19.72749        27.08606        -0.44466
C         20.91204        29.20320        -0.53515
C         19.72335        29.91456        -0.51769
C         20.94487        32.15345        -0.81665
C         19.78187        31.39472        -0.22726
C         20.92585        33.50982        -0.82191
C         19.74618        34.24762        -0.42808
C         20.92730        36.44818        -0.38990
C         19.74196        35.66926        -0.27849
C         20.89047        37.82975        -0.24519
C         19.68479        38.49373         0.00608
O          4.42698        20.80711        -2.19729
O         10.90717        28.53444        -1.82368
O          1.49710        21.01468        -2.11935
O          6.53493        16.72647         1.52736
O          4.24933        27.12511         1.39951
O          5.55817        25.69840        -1.84147
O          8.15145        27.44282         1.23818
O          6.54306        10.22528         1.53051
O         16.71711        14.55464        -1.12382
O         16.87165        12.32812         1.71183
O          7.50379        12.73781        -1.83768
H          6.72271        13.20781        -2.20222
O         17.01379        23.04050         1.55647
H         17.84120        22.83170         2.03756
O         19.97953        31.45295         1.24622
H         20.04294        32.40141         1.49201
O         16.27153        36.12927         2.21786
H         15.53110        36.60968         2.64624
O          1.28827         7.46321        -2.57816
H          1.92841         6.72830        -2.75649
O         18.27991        12.04524        -1.66147
H         19.06003        11.64389        -2.09914
O         17.32020        18.65427         2.16029
H         17.48656        19.60463         2.34373
O         17.26871        31.45976        -2.36719
H         16.32270        31.48283        -2.66035
O          2.47672        14.13565        -2.37293
H          1.66156        13.69683        -2.69846
O         12.59042        14.21532        -1.48975
H         11.86484        13.75091        -1.95693
O          6.40166        23.31895        -2.48044
H          5.86169        24.02883        -2.89932
O          2.48810         5.07171        -2.20796
H          1.74834         4.45108        -2.38295
O         18.52507        14.70808         2.05291
H         19.32791        15.14399         2.40858
O         14.85186         8.40479         2.53453
H         15.59426         8.99456         2.79007
O         13.20364        14.75942         2.06783
H         13.93335        15.19760         2.55379
O         14.52946        31.61487        -2.23713
H         13.71368        31.12665        -2.48576
O         14.49167        18.77574         1.99718
H         15.34302        18.59771         2.46499
O          2.20679        34.08882         2.53656
H          2.46333        33.16024         2.76874
O         16.29538        23.18330        -2.02953
H         15.54378        23.57005        -2.52527
O          8.87253         6.33510        -1.77188
H          8.86977         5.40647        -2.08927
O          9.98057        25.63026         1.72251
H          9.29654        26.27972         2.02188
O         20.14444        25.53777         1.28104
H         20.22336        24.58756         1.51139
O         14.93220         5.57857         2.54697
H         14.89275         6.53330         2.81011
O          7.37063        31.65956        -1.66744
H          7.30848        32.63035        -1.79611
O          9.53223         8.30299         2.20420
H          8.73270         8.83163         2.41899
O         13.42299         2.01264         0.66791
H         13.39301         2.05192        -0.30984
O          9.85378        30.83224         1.90508
H          9.93675        31.63211         2.46649
O          3.62934        31.74058         2.37405
H          4.51810        31.96090         2.72801
O         13.89846        18.81961        -1.61810
H         13.15886        19.14752        -2.17096
O         16.80951         4.16415        -1.82291
H         17.60539         4.60002        -2.19573
H          1.21775         2.44100         0.73502
H         -0.86870         3.78166         0.76040
H         -0.87240         6.16176         0.08767
H         -1.02924         7.86508        -0.98071
H         -1.01663        10.24838        -0.59199
H         -0.99975        12.14926        -0.50382
H         -0.99402        14.56075        -0.29792
H         -1.03256        16.46323        -0.48514
H         -1.03256        18.90664        -0.58490
H         -0.96806        20.84357         0.09708
H         -0.91920        23.27259         0.07768
H         -0.99431        25.15410        -0.60131
H         -0.98638        27.58458        -0.53920
H         -0.93796        29.51682        -0.47778
H         -0.93513        31.92600        -0.19931
H         -0.90229        33.84322        -0.04989
H         -0.89592        36.27114         0.29543
H          0.32912        38.41438         0.57521
H          3.67303         2.38433         0.49883
H          2.48226        39.63135         0.75081
H          6.12543         2.33456         0.17226
H          4.95350        39.58656         0.88427
H          8.58532         2.35198         0.24307
H          7.41884        39.53735         1.01265
H         11.00186         2.35733         0.74390
H          9.87788        39.50556         1.06541
H         13.49996         3.27610         2.28908
H         12.35241        39.50069         0.95539
H         15.66752         2.33797        -0.03713
H         14.78811        39.52856         0.60630
H         18.24744         2.25365        -0.10042
H         17.23495        39.54999         0.28365
H         20.41269         3.43579        -0.13523
H         21.69844         5.55414        -0.46623
H         21.80619         8.01024        -0.39670
H         21.85422         9.95095        -0.20589
H         21.95236        12.35732        -0.00021
H         21.95675        14.38703        -0.11805
H         21.90405        16.79629        -0.01345
H         21.88305        18.66456        -0.40492
H         21.89196        21.08191        -0.58997
H         21.72807        22.95088        -1.33137
H         21.77144        25.39281        -1.26378
H         21.87954        27.27332        -0.47442
H         21.87462        29.73044        -0.49420
H         21.85163        31.61781        -1.13089
H         21.81189        34.06106        -1.16767
H         21.88842        35.95790        -0.59389
H         21.81923        38.40973        -0.34066
H         19.66660        39.58929         0.09383
