         667
 CSIRO Nanostructure Databank - Neutral Graphene Oxide Data Set
C          6.03763        31.76389        -0.69513
C          6.09475        33.12581        -0.70279
C          8.35832        27.41615        -0.12824
C          8.32812        28.79487        -0.10632
C          7.13782        29.58037        -0.30306
C          8.30197        31.67950         0.34358
C          7.14217        30.96082        -0.23395
C          8.39385        33.13434         0.27357
C          7.24068        33.86925        -0.20466
C          8.32417        35.98256         0.55609
C          7.23554        35.23938        -0.15708
C          8.48226        37.39194         0.08428
C         10.70382        23.10414        -0.08065
C         10.72109        24.47676         0.06835
C          9.53664        25.26213        -0.01897
C         10.86200        27.32710         0.08447
C          9.57811        26.65594        -0.01537
C         10.91600        28.78998        -0.02317
C          9.61384        29.53459        -0.07627
C         10.88901        31.65099         0.53527
C          9.61697        30.91381         0.46324
C         10.82365        33.03464         0.75211
C          9.60067        33.78409         0.60389
C         10.80529        35.94911         0.88259
C          9.63474        35.23230         0.63896
C         10.87257        37.38025         0.73931
C          9.65999        38.10835         0.32309
C         10.86276        40.26809         0.66838
C          9.67212        39.50639         0.18595
C         10.91278        41.70324         0.24085
C         13.23342        18.75011        -0.17859
C         13.26021        20.23733         0.03723
C         11.93946        20.95918        -0.03325
C         13.17724        23.05705        -0.37685
C         11.92610        22.32848        -0.12215
C         13.13956        24.56011        -0.48658
C         12.04604        25.13740         0.40994
C         13.30430        27.33336         0.40633
C         12.04794        26.64090         0.28468
C         13.33486        28.72467         0.54497
C         12.13724        29.50726         0.40059
C         13.43474        31.64016         0.47593
C         12.11956        30.90068         0.52188
C         13.36305        33.02384         1.10276
C         12.04423        33.73761         1.21026
C         13.35591        35.96342         1.36937
C         12.02711        35.23310         1.32514
C         13.35886        37.40303         0.98519
C         12.10561        38.05510         0.78220
C         13.41566        40.21457         0.18941
C         12.12108        39.48422         0.36975
C         13.44358        41.73403        -0.00650
C         12.11706        42.42305         0.26826
C         13.30962        44.54084         0.97429
C         12.11008        43.80287         0.46550
C         13.40600        45.93882         0.45413
C         15.77871        14.56410         0.18656
C         15.69186        15.95473        -0.17093
C         14.47779        16.62996        -0.19089
C         15.64837        18.74851        -0.71518
C         14.41228        18.05102        -0.39147
C         15.58190        20.17861        -1.09216
C         14.30285        20.92463        -0.82397
C         15.49447        23.17053        -1.21561
C         14.30996        22.40518        -0.75243
C         15.60860        24.58962        -0.78489
C         14.48792        25.20050        -0.26035
C         15.81788        27.29012         0.08137
C         14.58704        26.50197         0.49951
C         15.88833        28.67514         0.60007
C         14.60869        29.40623         0.90048
C         15.90064        31.64808         0.80310
C         14.60655        30.91396         1.16582
C         15.88305        33.06753         0.86872
C         14.62874        33.80066         1.06992
C         15.87741        35.90614         1.32858
C         14.60770        35.16385         1.22681
C         15.83407        37.40627         1.24511
C         14.57112        38.11416         0.91099
C         15.82908        40.25816         0.79992
C         14.64975        39.51093         0.60325
C         15.84507        41.68136         0.78057
C         14.63175        42.42275         0.62567
C         15.83438        44.53130         1.04092
C         14.61276        43.79376         0.81762
C         15.83039        45.93441         0.93683
C         14.62041        46.62262         0.52163
C         15.90261        48.72742         0.17982
C         14.68276        48.00555         0.18661
C         15.93315        50.08655        -0.23942
C         18.43401        10.51596         1.22949
C         18.33724        11.78491         0.71863
C         17.00371        12.49167         0.80431
C         18.20843        14.57671        -0.09856
C         16.98184        13.90665         0.26763
C         18.13302        15.96853        -0.46060
C         16.92250        16.65957        -0.45426
C         18.10259        18.84210        -0.89251
C         16.86150        18.08473        -0.73567
C         18.04728        20.29359        -1.08227
C         16.83573        20.94424        -1.22514
C         18.04581        23.17520        -1.38198
C         16.79221        22.40692        -1.44270
C         18.06241        24.60373        -1.33608
C         16.86231        25.29041        -0.93096
C         18.07301        27.47940        -0.95520
C         16.88755        26.68100        -0.56011
C         18.26777        28.82262        -0.32245
C         17.14590        29.47294         0.44126
C         18.30805        31.67439         0.29810
C         17.10668        30.96097         0.52242
C         18.32664        33.10351         0.47491
C         17.10130        33.79451         0.74789
C         18.33759        35.91567         0.90668
C         17.14481        35.21128         0.98726
C         18.37115        37.37483         1.32441
C         17.11174        38.10832         0.83633
C         18.34255        40.29308         1.01077
C         17.06382        39.55927         1.32621
C         18.33212        41.67326         1.00626
C         17.06626        42.39720         1.04437
C         18.32870        44.50178         1.42673
C         17.05744        43.78700         1.18358
C         18.33994        46.01219         1.41612
C         17.01962        46.78768         1.33411
C         18.34337        48.75805         0.42249
C         17.11837        48.08332         0.55941
C         18.34178        50.11374        -0.00571
C         17.13538        50.78524        -0.29386
C         18.39050        52.99198        -0.26104
C         17.16070        52.23556        -0.73034
C         18.29478        54.49402        -0.09041
C         21.09302         6.60642         2.52448
C         21.01632         7.76974         1.78776
C         19.80701         8.57276         1.84130
C         20.71861        10.26764         0.23043
C         19.65976         9.75615         1.17694
C         20.76114        11.78781         0.22215
C         19.52509        12.48578         0.25147
C         20.69306        14.56389        -0.56082
C         19.43181        13.86745        -0.09840
C         20.61722        16.08165        -0.26557
C         19.37363        16.69116        -0.92745
C         20.57122        18.96245        -0.72515
C         19.30843        18.19379        -0.77188
C         20.52509        20.35253        -1.22793
C         19.28209        21.02278        -1.29135
C         20.46696        23.14445        -1.74300
C         19.25628        22.44967        -1.45210
C         20.54871        24.60167        -1.65626
C         19.31637        25.29429        -1.49152
C         20.62909        27.47996        -1.38115
C         19.33892        26.76981        -1.47325
C         20.65123        28.95268        -1.29969
C         19.37782        29.68415        -0.81893
C         20.72093        31.67834        -0.26431
C         19.50677        31.02280        -0.20267
C         20.83282        33.04782         0.36714
C         19.53645        33.82061         0.36517
C         20.74920        35.97148         0.35932
C         19.56158        35.24258         0.54478
C         20.89028        37.39135         0.87051
C         19.58942        38.15116         0.86958
C         20.79789        40.29001         0.66076
C         19.56994        39.53474         0.85670
C         20.80602        41.67717         0.74396
C         19.58245        42.42042         0.97140
C         20.87261        44.52032         1.56193
C         19.59772        43.78072         1.20903
C         20.84014        45.99334         1.16225
C         19.61430        46.69388         1.06428
C         20.83941        48.73654         0.53506
C         19.61053        48.06243         0.68353
C         20.87924        50.16043         0.15059
C         19.60558        50.86787        -0.14246
C         20.74738        53.08358         0.58148
C         19.54829        52.34724         0.00336
C         20.82769        54.50479         0.07438
C         19.62856        55.17854        -0.26382
C         20.88910        57.22144        -0.77676
C         19.66729        56.48557        -0.72708
C         20.91357        58.50284        -1.33588
C         23.72544         4.11357         3.55344
C         22.49634         4.67906         3.42178
C         23.49148         6.27765         1.66590
C         22.24604         5.71703         2.41495
C         23.42149         7.66745         1.18144
C         22.17701         8.28844         1.08689
C         23.37132        10.40789         0.33675
C         22.08448         9.59769         0.41101
C         23.25788        11.87601         0.24499
C         21.99854        12.48454         0.14968
C         23.20207        14.72395        -0.09671
C         21.93284        13.95668         0.06523
C         23.17073        16.02769        -0.87654
C         21.88540        16.77924        -0.67832
C         23.15123        18.92261        -1.15110
C         21.90680        18.22387        -0.72101
C         23.07766        20.44037        -1.21905
C         21.70483        20.98817        -1.66754
C         23.42775        23.35464        -1.96110
C         21.54210        22.31538        -2.11885
C         23.08799        24.63056        -1.31806
C         21.79168        25.32338        -1.52478
C         23.10241        27.45837        -1.14786
C         21.83246        26.74767        -1.32083
C         23.16536        28.91804        -1.52660
C         21.91610        29.67046        -1.13629
C         23.16237        31.74604        -0.71319
C         21.93297        31.01297        -0.72164
C         23.16200        33.15767        -0.51702
C         22.00236        33.82675        -0.15001
C         23.22085        36.02512        -0.06937
C         21.88988        35.31347        -0.37720
C         23.17211        37.50609        -0.45800
C         22.01847        38.19112         0.25099
C         23.19915        40.33749        -0.18078
C         22.00167        39.55275         0.30829
C         23.23299        41.73180         0.39439
C         22.07407        42.39968         0.71414
C         23.30534        44.51247         1.02389
C         22.11903        43.81378         1.07622
C         23.34298        45.97551         1.39332
C         22.05763        46.68211         1.02886
C         23.31584        48.80645         0.66662
C         22.07346        48.07302         0.75363
C         23.32145        50.22495         0.53768
C         22.09431        50.94801         0.45230
C         23.29192        53.07523         0.53937
C         22.06934        52.34346         0.46488
C         23.29931        54.50426         0.35861
C         22.06672        55.18414         0.03432
C         23.34816        57.23286        -0.40952
C         22.10605        56.57000        -0.33248
C         23.40430        58.66763        -0.70446
C         22.07858        59.35953        -1.22793
C         23.49083        61.14933        -2.17436
C         22.25842        60.54794        -2.05620
C         24.86897         4.59141         2.81851
C         26.00360         6.22596         1.28111
C         24.79369         5.67375         1.99156
C         25.92285         7.72409         1.08044
C         24.65829         8.39514         0.96699
C         25.85603        10.56556         0.74707
C         24.65064         9.78777         0.74630
C         25.73973        11.97813         0.52324
C         24.48055        12.63326         0.22733
C         25.70059        14.76064        -0.26761
C         24.48459        14.00967        -0.03794
C         25.67182        16.10482        -0.60481
C         24.37640        16.87798        -0.46224
C         25.63814        18.97343        -1.16068
C         24.33827        18.25400        -1.09335
C         25.61826        20.33051        -1.77614
C         24.33046        21.07429        -1.83634
C         25.56057        23.10766        -0.75890
C         24.44275        22.54471        -1.60861
C         25.62329        24.62795        -1.05178
C         24.30021        25.33788        -0.78412
C         25.58042        27.46609        -0.75949
C         24.30871        26.81104        -0.85713
C         25.60090        28.91290        -0.80458
C         24.43287        29.60479        -1.08556
C         25.66195        31.78186        -0.76962
C         24.41826        31.09751        -1.26735
C         25.65185        33.14996        -0.67243
C         24.41516        33.91235        -0.69382
C         25.67878        36.05263        -0.74589
C         24.42131        35.28519        -0.60479
C         25.71775        37.49967        -0.41946
C         24.49520        38.20106        -0.22204
C         25.73457        40.26447         0.09110
C         24.49680        39.57441        -0.02305
C         25.76013        41.67159         0.27036
C         24.53863        42.34169         0.81996
C         25.73414        44.53379         0.61118
C         24.54962        43.84124         0.74000
C         25.77115        45.97876         0.68007
C         24.58556        46.68574         0.90811
C         25.79293        48.78994         0.59839
C         24.57148        48.10058         0.74237
C         25.82682        50.24147         0.22793
C         24.54202        50.96043         0.52796
C         25.80278        53.06300         0.67465
C         24.53425        52.35795         0.56276
C         25.78507        54.56572         0.85292
C         24.52676        55.20909         0.31253
C         25.83829        57.21189        -0.38752
C         24.56334        56.54134        -0.13948
C         25.86061        58.52970        -0.90491
C         24.68213        59.27463        -1.10895
C         24.68233        60.54968        -1.69812
C         27.08743         8.43405         0.89662
C         28.39629        10.40463         0.40428
C         27.12690         9.85733         0.74331
C         28.70985        11.77347         0.52945
C         26.85120        12.84295         0.63787
C         28.23428        14.74306        -0.18381
C         26.96625        14.10110         0.01346
C         28.23225        16.11407        -0.60607
C         26.94065        16.75536        -1.08466
C         28.23441        18.94587        -1.29210
C         26.94373        18.26796        -0.96501
C         28.20604        20.32720        -1.93415
C         26.91051        21.10798        -1.74497
C         28.10686        23.10963        -0.59060
C         26.88563        22.50197        -1.20813
C         28.00925        24.53911        -0.09969
C         26.79367        25.32909        -0.41872
C         28.07559        27.42131        -0.35981
C         26.79716        26.71911        -0.50512
C         28.10448        28.89064        -0.43705
C         26.85046        29.62722        -0.53924
C         28.11156        31.74413        -0.31307
C         26.86080        31.02039        -0.49114
C         28.15091        33.10343        -0.35026
C         26.86935        33.86564        -0.15558
C         28.20935        36.02998        -0.28008
C         26.96234        35.29175        -0.64545
C         28.25232        37.49413        -0.65652
C         26.94290        38.16980        -0.31163
C         28.20878        40.25047         0.12303
C         26.96391        39.55783        -0.03566
C         28.19859        41.64592         0.17383
C         26.96751        42.35255         0.20234
C         28.23701        44.58320        -0.01556
C         26.95526        43.83108         0.16279
C         28.26209        46.00445         0.38014
C         27.02207        46.67609         0.55135
C         28.26749        48.80570         0.72319
C         27.02577        48.09584         0.63180
C         28.23448        50.24368         0.90136
C         27.06448        50.94914         0.71837
C         28.25683        53.16146         1.16353
C         26.99401        52.38681         0.82920
C         28.24353        54.49610         0.47263
C         27.06551        55.18043         0.31153
C         27.03302        56.49529        -0.23461
C         29.64374        12.60029        -0.09696
C         30.68105        14.77482        -0.40546
C         29.50409        14.03194        -0.15560
C         30.67759        16.15696        -0.64650
C         29.41621        16.83593        -0.79406
C         30.71956        18.87511        -1.65547
C         29.40509        18.25022        -1.18294
C         30.74051        20.40667        -1.51507
C         29.45691        21.17399        -1.59846
C         30.58186        23.24465        -0.71171
C         29.42325        22.52745        -0.94572
C         30.56987        24.59989        -0.18582
C         29.27931        25.27826         0.29143
C         30.45923        27.51520         0.33354
C         29.22991        26.74281        -0.07138
C         30.61297        28.79345        -0.47397
C         29.31057        29.55636        -0.39920
C         30.65397        31.71260        -0.27631
C         29.36215        30.98508         0.03229
C         30.69722        33.09691        -0.42143
C         29.42218        33.84033        -0.70705
C         30.76726        35.98797        -0.40747
C         29.48461        35.26871        -0.22749
C         30.74282        37.41992        -0.18565
C         29.48869        38.15581        -0.08829
C         30.68086        40.19109         0.67224
C         29.44980        39.49284         0.24343
C         30.70440        41.69389         0.72295
C         29.44044        42.42280         0.43283
C         30.76365        44.56273         0.33961
C         29.54968        43.81622        -0.16806
C         30.74257        45.94027         0.47601
C         29.48744        46.68499         0.49610
C         30.75030        48.81303         0.85253
C         29.48350        48.09655         0.71582
C         30.74692        50.17702         1.06297
C         29.48962        50.94564         1.35944
C         29.50762        52.37583         0.91831
C         31.90511        16.88188        -0.72380
C         33.14548        18.97254        -0.86848
C         31.94996        18.24021        -1.03305
C         33.17712        20.38540        -0.79067
C         31.84071        21.09169        -0.71887
C         33.10573        23.22757        -0.36798
C         31.92585        22.59901        -1.06466
C         33.10328        24.72492        -0.35104
C         31.74613        25.30937         0.00601
C         32.91289        27.41851         0.52657
C         31.73984        26.71745         0.30194
C         32.98611        28.85480         0.35321
C         31.84230        29.56653        -0.04219
C         33.10864        31.69411        -0.18391
C         31.87406        30.99456        -0.15427
C         33.15204        33.08581        -0.38225
C         31.93362        33.80704        -0.48464
C         33.21571        35.98002        -0.82516
C         31.94112        35.26223        -0.58438
C         33.20757        37.47330        -0.49034
C         31.94897        38.09900        -0.06933
C         33.20151        40.31271         0.04445
C         31.98835        39.47577         0.43291
C         33.25403        41.64023         0.83546
C         31.98717        42.42733         0.58649
C         33.25766        44.53963         0.54018
C         31.99376        43.80552         0.48233
C         33.22136        45.93682         0.60983
C         31.99342        46.66967         0.64492
C         31.97315        48.05862         0.77770
C         34.33197        21.10519        -0.50387
C         35.52121        23.22001         0.11725
C         34.30807        22.52609        -0.23772
C         35.52278        24.57720         0.47003
C         34.20126        25.25206         0.54832
C         35.33593        27.43458         1.45537
C         34.11589        26.67972         0.95676
C         35.38570        28.87779         0.97412
C         34.24525        29.52499         0.46889
C         35.57288        31.67374         0.28497
C         34.38251        30.87955        -0.19041
C         35.62343        33.05017         0.05460
C         34.50570        33.67778        -0.77311
C         35.65541        35.94388        -0.02503
C         34.59105        35.26387        -0.89658
C         35.66039        37.35750         0.10767
C         34.47563        38.14835        -0.09568
C         35.69769        40.22157         0.44719
C         34.47663        39.51129         0.16478
C         35.70281        41.65577         0.49027
C         34.52125        42.40758         0.53495
C         34.48273        43.81157         0.50716
C         36.67335        25.33485         0.74742
C         37.80752        27.43345         1.30066
C         36.64768        26.71529         1.13211
C         37.76413        28.86375         1.78677
C         36.59646        29.58126         1.13951
C         37.91341        31.67373         1.03763
C         36.69159        30.97153         0.82676
C         37.95769        33.07082         0.84236
C         36.79969        33.77882         0.39820
C         38.01008        35.91121         0.74775
C         36.81230        35.21604         0.34994
C         38.02594        37.30894         0.78885
C         36.85524        38.05241         0.51902
C         36.86864        39.46671         0.60970
C         39.06874        29.59220         1.63674
C         40.36200        31.67951         1.50318
C         39.11746        30.93990         1.39971
C         40.38637        33.03298         1.39361
C         39.18768        33.78769         1.09617
C         39.19430        35.16867         1.05699
O         31.42713        39.58970         1.79041
O         27.85291        23.39481         0.82649
O         22.82864         9.67959        -0.84687
O         26.93423        22.26833        -2.64167
O         26.28105        18.89546         0.18420
O         22.58274        59.49354         0.14557
O         22.48887        14.69750         1.19746
O         28.76942        35.62801         1.01050
O          8.75872        31.09143         1.61894
O         30.38918        21.10033        -2.74374
O         18.26466        28.82033         1.14120
O         29.87590        42.27905         1.81911
O         12.57168        35.71443         2.58880
O         33.12058        36.98899        -1.87292
O         12.70465        39.61290        -0.96800
O         22.56430         5.35043         1.03266
O         22.52453        22.88882        -2.91921
O         23.43153        24.65464         0.15417
O         20.44201        50.39328        -1.26698
O         12.65414        33.07160         2.36818
O         15.35186        28.74361         1.99077
O         14.55292        20.40267        -2.14796
O         21.31671        18.85116         0.54426
O         15.90166        36.76141         2.54254
O         26.45052        35.63119        -1.95871
O         18.34870        27.41658        -2.37056
O         19.68894        29.62373        -2.20962
O         18.39095        45.29120         2.71163
O         15.92498        22.85978        -2.56545
O         33.76106        25.57876         1.90076
O         34.72720        33.13884        -2.07864
O         24.86580        20.44430        -3.02943
O         27.36555        44.34884        -1.18327
O         27.89418        12.44390         1.46862
O         10.38862        29.36274        -1.30148
O         20.25305         9.89352        -1.10171
H         21.05568         9.86261        -1.67273
O         28.19445        53.43701         2.63044
H         28.40793        52.57016         3.06543
O         33.01171        40.67568        -1.34722
H         33.14605        39.87635        -1.90059
O         17.19088        38.11309        -0.60497
H         16.45465        38.65937        -0.95532
O         31.41543        20.99715         0.66894
H         32.12261        21.37826         1.23159
O         13.67157        41.94779        -1.43503
H         13.15634        41.24851        -1.90168
O         12.37432        24.77259         1.76972
H         11.84885        25.32791         2.38078
O         35.20947        27.48376         2.90784
H         34.80076        26.62582         3.17507
O         19.46560        16.49394        -2.38373
H         18.63122        16.82319        -2.78210
O         35.12043        35.54436        -2.20514
H         35.14191        34.65774        -2.66866
O         23.31995        15.68857        -2.28094
H         22.52603        15.14689        -2.52483
O         20.39469        16.27748         1.14873
H         21.22686        16.02012         1.61484
O         23.16931        28.94347        -3.02994
H         23.89681        28.35708        -3.33022
O         14.41575        31.07743         2.58088
H         14.97007        30.40317         3.03323
O         27.21578         5.86287         1.94302
H         27.22574         6.28715         2.82500
O         10.80459        40.29399         2.15092
H          9.96767        40.73466         2.40951
O         29.79412        43.62447        -1.58622
H         28.92921        43.75418        -2.04436
O         15.98802        11.69835         0.16764
H         16.29032        11.48571        -0.73911
O         24.34595        31.37100        -2.70941
H         23.74841        30.68510        -3.10592
O         16.92988        39.52447         2.78209
H         16.90143        40.44910         3.10762
O         14.77375        26.12653         1.90250
H         15.00223        26.95961         2.38273
O         26.66290        33.96220         1.29305
H         27.46678        34.39879         1.66810
O         33.43409        25.16841        -1.69912
H         33.00118        24.53618        -2.32584
O         20.87597        14.33729        -1.98815
H         20.19161        14.87133        -2.46542
O         23.13418        20.86447         0.17492
H         22.48868        20.30249         0.67635
O         20.47677        53.17601         2.02538
H         21.22994        53.65140         2.43727
O         15.96023        52.89040        -0.27845
H         15.90070        52.78292         0.69347
O         29.34642        25.27283         1.75571
H         28.93836        24.42004         2.04154
O         22.92273        37.64453        -1.88959
H         22.96123        38.61521        -2.09463
O         32.22615        22.83774        -2.46658
H         31.54210        22.35907        -3.00223
O         21.14480        32.80741         1.79778
H         20.39572        32.30089         2.18004
O         23.41413        36.03049         1.36339
H         23.40234        35.10648         1.69170
O         37.51966        28.84807         3.23340
H         36.66824        28.35885         3.38050
O         29.34895        33.98869        -2.16656
H         29.45016        33.10328        -2.57486
O         21.55617        35.40006        -1.79572
H         21.92937        36.24445        -2.15587
O         33.33467        41.35980         2.25287
H         32.53906        40.82556         2.50268
O         16.71542        47.23464         2.70126
H         17.05155        46.52708         3.30042
O         34.64130        30.55700        -1.59673
H         34.73555        31.46482        -2.03907
O         17.35282        55.07538        -0.98195
H         16.51202        54.56736        -0.89316
O         13.79782        31.77615        -0.92624
H         12.98738        31.72218        -1.47459
O         24.23941        17.11560         0.96607
H         24.93627        17.76869         1.21434
O         23.03428        40.47499        -1.64815
H         22.24964        41.04402        -1.80327
O         26.93716        16.54335        -2.54218
H         26.89531        15.57816        -2.70996
O         25.93366        50.26477        -1.25221
H         25.13479        49.82023        -1.60876
O         30.84884        28.40827        -1.85695
H         31.22832        29.17469        -2.33572
O          7.85414        36.11392         1.96508
H          8.61415        36.44387         2.49245
O         29.39418        50.97918         2.87247
H         30.29564        51.17910         3.20714
O         28.25750        20.02501        -3.35451
H         27.96634        20.83462        -3.83180
O         12.74559        24.88586        -1.85266
H         13.39224        24.47444        -2.46539
O         30.23347        27.93068         1.71336
H         29.96299        27.11714         2.20452
O         25.36143        22.82182         0.62198
H         24.48670        23.19197         0.88396
O         21.22241        37.24586         2.30017
H         20.36680        37.12796         2.78478
O         20.97294        44.51375         3.03249
H         20.10282        44.85877         3.35878
O         23.40537        46.01819         2.86050
H         22.60581        45.53289         3.18928
O         13.10362        44.65340         2.44847
H         13.78310        45.27518         2.78846
O         25.83834        24.73504        -2.49291
H         26.13841        25.64615        -2.69493
O         29.34128        30.89110         1.51070
H         29.66276        29.99219         1.76397
O         24.61730        42.03981         2.26924
H         23.88399        42.52232         2.70960
O         18.46732        37.34541         2.77667
H         17.86263        38.03805         3.14582
O         13.76177        20.42533         1.41405
H         13.05356        20.14966         2.03345
O         28.40055        37.54948        -2.10304
H         27.71111        36.95328        -2.48819
O         30.79932        18.56491        -3.06666
H         30.06031        19.05693        -3.50231
O         25.76914        54.81400         2.29248
H         26.59778        54.40758         2.65820
H          5.14452        31.24854        -1.07842
H          5.23767        33.70535        -1.07619
H          7.41362        26.85664        -0.20505
H          6.21954        29.06098        -0.61804
H          6.35889        35.80335        -0.50953
H          7.57703        37.94196        -0.21644
H          9.74434        22.57691        -0.20038
H          8.57065        24.75221        -0.15762
H          8.76052        40.03342        -0.13282
H          9.97233        42.27373         0.33547
H         12.32453        18.19360         0.10048
H         11.00572        20.40157         0.13820
H         11.13983        44.31894         0.55492
H         12.49663        46.46728         0.13146
H         14.85384        14.02661         0.44336
H         13.55025        16.08661         0.04356
H         13.75862        48.51757        -0.11973
H         14.99451        50.59095        -0.51100
H         17.55193        10.05481         1.69959
H         16.71093        12.54621         1.89107
H         17.13139        52.27514        -1.85422
H         17.95589        54.68358         0.98112
H         20.26460         6.32581         3.19239
H         18.97549         8.19233         2.45493
H         18.73234        56.97514        -1.03325
H         20.03546        58.86512        -1.89165
H         23.88413         3.31849         4.29598
H         21.67269         4.39188         4.09224
H         23.57610        62.08096        -2.75225
H         21.39289        60.94085        -2.60910
H         25.84847         4.12722         3.00442
H         26.04422         5.74502         0.26214
H         26.83098        58.98344        -1.15671
H         25.64519        61.03048        -1.92278
H         28.04200         7.88699         0.91491
H         29.15973         9.71030         0.02086
H         29.19332        54.93565         0.12961
H         27.98304        56.97015        -0.52629
H         30.51565        12.15537        -0.60002
H         31.64686        14.24834        -0.38013
H         31.70646        50.70888         1.16835
H         30.46443        52.92205         0.98462
H         32.83265        16.36831        -0.42555
H         34.07101        18.41521        -0.65027
H         34.16784        46.49636         0.66898
H         32.92640        48.60169         0.87043
H         35.29855        20.58050        -0.46108
H         36.46999        22.66348         0.09277
H         36.67527        42.17302         0.47071
H         35.42758        44.37372         0.43538
H         37.65947        24.85636         0.63912
H         38.78275        26.95468         1.11936
H         38.95136        37.83608         1.06389
H         37.81424        39.97438         0.85289
H         39.98766        29.05442         1.91656
H         41.28138        31.12029         1.73039
H         41.32815        33.58582         1.52553
H         40.11947        35.72023         1.28151
