         720
 CSIRO Nanostructure Databank - Neutral Graphene Oxide Data Set
C         23.08664        27.57309         1.19266
C         23.23612        28.74326         1.82236
C         23.24176        31.73170         1.64469
C         23.23013        33.12797         1.51091
C         23.29194        36.14762         1.89106
C         23.31331        37.49995         2.01805
C         23.37311        40.51093         2.06327
C         23.39465        41.85804         1.97688
C         23.43512        44.87033         1.79837
C         23.52936        46.20184         2.04531
C         25.36304        24.71904         0.32595
C         24.20907        25.44161         0.43393
C         25.48758        27.61008         0.43407
C         24.12446        26.94667         0.29419
C         25.63554        28.90805         1.07619
C         24.52841        29.51315         1.90219
C         25.66424        31.72196         1.47242
C         24.43816        31.01298         1.61619
C         25.64006        33.14500         1.45066
C         24.42579        33.86082         1.45641
C         25.74495        36.04523         1.49422
C         24.41806        35.37417         1.23437
C         25.79601        37.52220         1.82120
C         24.49787        38.29813         1.75679
C         25.78397        40.43414         1.53915
C         24.53293        39.69055         1.72373
C         25.83205        41.81008         1.53646
C         24.53253        42.55813         1.27185
C         25.97014        44.77691         1.69163
C         24.63021        44.08144         1.45955
C         25.98851        46.17150         2.13032
C         24.80147        46.87780         2.18566
C         26.01046        48.99060         2.38962
C         24.83146        48.30420         2.43040
C         27.86987        23.17990        -0.18372
C         27.89418        24.54945         0.19527
C         26.67242        25.30393         0.30195
C         27.96739        27.38740         1.02657
C         26.76220        26.75788         0.34876
C         28.12748        28.87594         0.59546
C         26.85990        29.60935         1.02037
C         28.21364        31.68880         1.02458
C         26.89978        30.98631         1.28191
C         28.21975        33.11807         1.51855
C         26.92274        33.86497         1.59127
C         28.19781        35.97533         1.23558
C         26.94399        35.33427         1.43677
C         28.17108        37.41713         0.91932
C         26.93150        38.20603         1.10323
C         28.37127        40.35612         1.43153
C         27.03675        39.69748         1.23859
C         28.40651        41.76077         1.95277
C         27.11715        42.51344         1.81370
C         28.42791        44.62651         1.83032
C         27.21473        43.98749         1.79680
C         28.59124        46.06829         2.29499
C         27.26249        46.83011         2.63851
C         28.44003        48.99751         1.93111
C         27.27519        48.31152         2.25496
C         28.48878        50.41662         1.78622
C         30.30486        23.10254        -0.36701
C         29.03218        22.49021        -0.47277
C         30.35845        24.45616         0.06512
C         29.17638        25.17380         0.33429
C         30.55215        27.31225         0.82742
C         29.25001        26.57243         0.86175
C         30.59440        28.80594         0.92428
C         29.41926        29.48862         1.10756
C         30.75184        31.63772         1.37536
C         29.41446        30.90204         1.62694
C         30.73158        33.13653         1.18186
C         29.45948        33.86777         1.25017
C         30.65144        35.92144         0.66751
C         29.43255        35.25452         1.09408
C         30.61222        37.37404         0.48149
C         29.48233        38.10000         1.10648
C         30.97832        40.23860         1.50302
C         29.61557        39.52208         1.51538
C         30.82164        41.73802         1.13162
C         29.78307        42.46389         2.01017
C         30.82297        44.63740         1.22226
C         29.69402        43.93316         1.62625
C         30.80158        46.06647         1.04721
C         29.49990        46.82522         1.29928
C         30.81937        48.95864         0.99031
C         29.74860        48.25021         1.79909
C         30.78131        50.38629         0.88911
C         29.61189        51.07259         1.32982
C         32.72162        20.28402        -1.27581
C         31.53117        21.02565        -1.03940
C         32.80431        23.06154        -0.60717
C         31.53450        22.36628        -0.66255
C         32.88284        24.41745        -0.32023
C         31.71033        25.08552         0.36347
C         32.95011        27.32687        -0.05553
C         31.68561        26.59174         0.17418
C         33.08237        28.72037         0.48318
C         31.86843        29.49615         0.82138
C         33.09845        31.63028         0.42751
C         31.93470        30.89287         0.86050
C         33.05503        33.07224         0.27419
C         31.89779        33.80543         0.58189
C         33.04373        35.94082         0.00452
C         31.83225        35.22153         0.37698
C         33.06790        37.32893         0.00129
C         31.86282        38.13759         0.18083
C         33.10484        40.25456         0.19509
C         31.99082        39.57725         0.56406
C         33.32213        41.69501         0.53327
C         32.18210        42.45306         1.15118
C         33.14456        44.60953         0.17642
C         32.20458        43.98988         1.20954
C         33.09505        46.05809         0.07193
C         31.93539        46.77142         0.61588
C         33.22236        48.95791         0.35576
C         31.92373        48.21885         0.57319
C         33.06040        50.40148        -0.06181
C         31.88230        51.09873         0.29052
C         32.91878        53.19407        -0.41960
C         31.82679        52.50719         0.04541
C         35.21089        18.75307        -0.58512
C         35.23418        20.12717        -1.09188
C         33.96821        20.85877        -1.14535
C         35.34504        23.03374        -1.14939
C         34.04412        22.28952        -0.81525
C         35.18757        24.50294        -1.22922
C         34.10236        25.15056        -0.57207
C         35.32378        27.28933        -0.77460
C         34.17576        26.56929        -0.41682
C         35.30598        28.79274        -0.81245
C         34.34618        29.46474         0.15926
C         35.39761        31.59869        -0.50663
C         34.29765        30.94536         0.07729
C         35.28184        33.00452        -0.88026
C         34.17681        33.77550        -0.30142
C         35.45955        35.85232        -0.69919
C         34.22872        35.17452        -0.34604
C         35.54073        37.31523        -0.50371
C         34.31280        38.08405        -0.15720
C         35.52443        40.26889        -0.45641
C         34.17807        39.54015        -0.59823
C         35.39626        41.72969        -0.82912
C         34.37469        42.43264        -0.23328
C         35.13889        44.52639        -1.28295
C         34.16333        43.86707        -0.40800
C         35.14802        46.05467        -1.33625
C         34.12886        46.77959        -0.54947
C         35.28292        48.92212        -1.02887
C         34.22447        48.21421        -0.48473
C         35.34367        50.37045        -1.01355
C         34.16917        51.09139        -0.60287
C         35.32885        53.21762        -1.06859
C         34.14101        52.52072        -0.72911
C         35.37182        54.67584        -1.08807
C         37.67100        18.57458        -0.81440
C         36.32894        18.02726        -0.38953
C         37.65903        20.09466        -0.74815
C         36.43551        20.77718        -1.27319
C         37.85635        22.86201        -1.65400
C         36.47871        22.20584        -1.82128
C         38.04272        24.16423        -2.03860
C         36.16572        25.32498        -1.81556
C         37.72116        27.29792        -1.86234
C         36.38672        26.65200        -1.45826
C         37.83771        28.70197        -1.27679
C         36.69661        29.36674        -0.70196
C         37.87964        31.61327        -1.19887
C         36.69516        30.93540        -0.62793
C         37.83065        32.99707        -1.42491
C         36.57715        33.74931        -1.32439
C         37.88576        35.91947        -1.27056
C         36.61989        35.19721        -1.08808
C         37.89996        37.30351        -1.34615
C         36.64411        38.04281        -1.19446
C         37.88713        40.27435        -1.37428
C         36.61315        39.54260        -1.22995
C         37.85764        41.62931        -1.59812
C         36.43356        42.29977        -1.79870
C         37.32809        44.60417        -2.26424
C         36.36829        43.82103        -1.69868
C         37.54228        46.00207        -1.96898
C         36.43819        46.72807        -1.59119
C         37.74384        48.87617        -1.15406
C         36.44958        48.22827        -1.68051
C         37.71229        50.28646        -1.69824
C         36.50024        51.06262        -1.45588
C         37.73066        53.29103        -1.51671
C         36.52661        52.51077        -1.40824
C         37.81699        54.58412        -0.73139
C         36.53422        55.35221        -0.96989
C         40.15619        15.83959         0.18478
C         38.93340        16.55896         0.00011
C         40.07861        18.72235         0.13762
C         38.87424        17.92605        -0.14108
C         40.20687        20.10671        -0.31436
C         38.95251        20.82541        -0.62752
C         40.30606        22.91679        -0.98368
C         39.12251        22.08745        -1.42405
C         40.28688        24.34131        -1.11354
C         39.11884        25.00374        -1.58544
C         40.25961        27.24801        -1.09770
C         38.94260        26.45773        -1.38038
C         40.30455        28.69445        -1.39237
C         39.05462        29.42193        -1.34494
C         40.29203        31.46379        -2.04155
C         39.06408        30.84981        -1.38662
C         40.32788        32.99692        -1.99583
C         39.05097        33.75632        -1.76239
C         40.35792        35.87666        -1.59066
C         39.11249        35.20165        -1.49589
C         40.41492        37.30959        -1.53750
C         39.12341        38.07709        -1.77058
C         40.42815        40.18631        -1.42303
C         39.14714        39.45867        -1.10604
C         40.39288        41.59164        -1.53598
C         39.15308        42.28046        -1.76102
C         40.34597        44.43765        -2.11959
C         39.28182        43.57515        -2.32532
C         40.24060        45.87644        -2.18595
C         38.93525        46.56699        -1.86598
C         40.21019        48.74622        -2.00302
C         38.99773        48.05562        -1.53457
C         40.11266        50.12783        -2.45932
C         38.77397        50.72691        -2.42487
C         40.18284        53.32051        -1.98193
C         38.86594        52.85904        -2.21008
C         40.25684        54.68791        -1.48641
C         39.09208        55.35695        -1.01417
C         40.36216        57.43255        -0.88173
C         39.17811        56.71752        -0.69531
C         42.63696        15.75734         0.04638
C         41.38189        16.47128         0.16549
C         42.66511        18.66132        -0.05133
C         41.43955        17.93125         0.27139
C         42.65355        20.04808        -0.08463
C         41.41732        20.78539        -0.27023
C         42.67338        22.96277        -0.41516
C         41.45989        22.23542        -0.54786
C         42.70250        24.34730        -0.64739
C         41.49771        25.08305        -0.88280
C         42.74349        27.22105        -0.88228
C         41.52138        26.49717        -0.99477
C         42.76596        28.66219        -1.11004
C         41.53179        29.37547        -1.42934
C         42.77066        31.52841        -1.56057
C         41.56985        30.79802        -1.58942
C         42.79207        32.94148        -1.66441
C         41.59706        33.71888        -1.73248
C         42.85191        35.87629        -1.45428
C         41.58542        35.12203        -1.62651
C         42.88920        37.35268        -1.59753
C         41.63210        38.02739        -1.53830
C         42.88078        40.18418        -1.67774
C         41.63721        39.47784        -1.53565
C         42.83000        41.61597        -1.74361
C         41.62749        42.30580        -1.67806
C         42.79969        44.54797        -2.01331
C         41.58519        43.80860        -1.53314
C         42.71795        45.91018        -2.10169
C         41.43798        46.61551        -2.03699
C         42.63210        48.86795        -1.98336
C         41.42622        48.06544        -2.03920
C         42.60206        50.25632        -2.02282
C         41.39942        51.02859        -2.40158
C         42.60370        53.18689        -1.96118
C         41.39530        52.53258        -2.16501
C         42.68515        54.68832        -2.14819
C         41.46858        55.39702        -1.61086
C         42.77418        57.48852        -1.53299
C         41.52063        56.77868        -1.34063
C         43.80520        16.39985        -0.19228
C         45.19295        18.57478        -0.60958
C         43.86727        17.86120        -0.41109
C         45.22280        20.04100        -0.26263
C         43.94803        20.77725         0.01900
C         45.16288        22.91374        -0.63797
C         43.93966        22.30266         0.11395
C         45.14777        24.40095        -0.40418
C         43.95579        25.08128        -0.55356
C         45.18184        27.23327        -0.47455
C         43.94768        26.52383        -0.62679
C         45.12622        28.70281        -0.44522
C         43.94024        29.37074        -0.99908
C         45.31543        31.51832        -1.13761
C         44.07269        30.75410        -1.58402
C         45.38838        32.94302        -1.55272
C         44.08484        33.64667        -1.80275
C         45.38990        35.82982        -1.95176
C         44.12636        35.11948        -1.57179
C         45.39095        37.33181        -1.94798
C         44.10551        38.05834        -1.71136
C         45.39710        40.21443        -1.86260
C         44.12349        39.48386        -1.74841
C         45.36354        41.60453        -1.94025
C         44.08462        42.33289        -2.07203
C         45.34014        44.61024        -2.19371
C         44.07637        43.82526        -2.23431
C         45.27938        45.99177        -2.16195
C         43.97890        46.66715        -1.89793
C         45.15395        48.89590        -1.69989
C         43.90772        48.15045        -1.71990
C         45.08849        50.29021        -1.36036
C         43.78184        51.02149        -1.57344
C         45.01516        53.17958        -1.10563
C         43.92939        52.47551        -1.97993
C         45.11539        54.65894        -1.41018
C         43.97666        55.36143        -1.71861
C         43.93870        56.81549        -1.72032
C         47.64660        18.59998        -0.17382
C         46.49161        17.89845        -0.44413
C         47.72286        20.01909        -0.18695
C         46.50258        20.75582        -0.68098
C         47.67471        22.89149        -0.12740
C         46.47662        22.22626        -0.35165
C         47.65745        24.36538         0.12953
C         46.37009        25.12032        -0.05556
C         47.65226        27.27715        -0.20653
C         46.39427        26.57632        -0.25958
C         47.66047        28.67206        -0.23202
C         46.41805        29.46664        -0.26689
C         47.76640        31.57989        -0.96110
C         46.44201        30.89496        -0.70436
C         47.80337        33.10016        -0.68270
C         46.59678        33.77933        -1.29142
C         47.92204        35.84282        -1.83860
C         46.64081        35.09839        -1.63087
C         47.88360        37.33539        -1.79153
C         46.70024        38.04118        -1.79811
C         47.90098        40.20337        -1.86846
C         46.68089        39.50434        -1.84339
C         47.89325        41.64873        -2.19617
C         46.57970        42.38796        -2.23467
C         47.76124        44.56680        -1.82949
C         46.59043        43.88585        -2.12945
C         47.80184        46.04649        -1.88229
C         46.51718        46.79590        -2.21488
C         47.55531        48.89875        -1.15774
C         46.48723        48.32809        -2.09207
C         47.50692        50.25366        -0.90899
C         46.34276        51.06494        -1.25201
C         47.67647        53.15909        -1.06949
C         46.34263        52.42975        -1.18536
C         47.51429        54.63513        -0.82259
C         46.36573        55.30752        -1.04942
C         50.18536        20.11248         0.21517
C         48.94137        20.75512        -0.02569
C         50.21364        22.94120        -0.29391
C         48.91655        22.18408        -0.07648
C         50.16891        24.35825         0.33784
C         48.91390        25.14018         0.01868
C         50.19840        27.24117        -0.19912
C         48.90311        26.50527        -0.11795
C         50.20078        28.74082        -0.17839
C         48.89865        29.42528        -0.03541
C         50.23993        31.48925        -0.65228
C         48.94445        30.91283        -0.29159
C         50.13602        32.73192        -1.36379
C         49.10590        33.64541        -1.25555
C         50.58582        35.85279        -1.74041
C         49.21648        35.06094        -1.77094
C         50.32922        37.30817        -1.14688
C         49.22618        38.03809        -1.95068
C         50.37459        40.21527        -1.52456
C         49.16826        39.53227        -1.68541
C         50.41233        41.69690        -1.65198
C         49.17715        42.47889        -2.14075
C         50.03953        44.53375        -0.93149
C         48.99363        43.86413        -1.50560
C         50.12214        46.02822        -0.73560
C         48.84655        46.77079        -1.11143
C         49.60483        48.67313         0.27977
C         48.64677        48.06092        -0.67960
C         49.58255        50.13734         0.54686
C         48.48244        50.95166        -0.04539
C         49.83503        53.02744         0.49188
C         48.56966        52.44190        -0.04333
C         51.37211        20.84552         0.42239
C         52.69503        22.95477         0.71233
C         51.45105        22.20870         0.22141
C         52.73176        24.41279         0.27298
C         51.45248        25.12148         0.06209
C         52.48502        27.23686         0.99926
C         51.44548        26.57595         0.13038
C         52.50267        28.78468         0.89476
C         51.40743        29.51168         0.19767
C         52.66632        31.67429         0.13749
C         51.45073        30.85611        -0.19498
C         52.87948        33.05873        -0.36150
C         52.04534        33.75160        -1.19720
C         52.81396        35.99913        -0.37311
C         51.71659        35.17719        -0.96191
C         52.80660        37.46992        -0.48114
C         51.62034        38.13173        -0.97675
C         52.84077        40.28902        -0.82433
C         51.59326        39.52032        -1.13089
C         52.82734        41.79513        -0.51803
C         51.51437        42.44144        -0.94372
C         51.88943        44.25974         0.87789
C         51.11366        43.72664        -0.29515
C         51.80478        45.69623         1.17902
C         50.58705        46.43089         0.68879
C         51.72018        48.53117         1.58877
C         50.78692        47.91840         0.72348
C         51.73003        49.95991         1.76539
C         50.94164        50.78286         0.76947
C         50.84575        52.28075         0.97333
C         55.15914        23.08458         0.31021
C         54.01891        22.34175         0.31901
C         55.19596        24.50490         0.58338
C         53.95196        25.21057         0.59963
C         55.08852        27.29589         1.20311
C         53.85706        26.56741         0.87665
C         55.07795        28.80516         1.33639
C         53.77207        29.54454         1.18307
C         55.13369        31.72583         1.10199
C         53.80770        31.02829         0.89295
C         55.20541        33.22375         0.81599
C         54.09236        33.81598         0.02941
C         55.26355        36.06631         0.38352
C         54.12415        35.31073        -0.15532
C         55.17611        37.46550         0.38784
C         53.96699        38.12616        -0.07137
C         55.00462        40.30664         0.63831
C         54.03394        39.58172        -0.23000
C         54.72884        41.57364         1.12123
C         53.38861        42.15289         0.85016
C         54.10047        44.23067         2.17871
C         53.05926        43.48698         1.42889
C         53.85568        45.54011         2.55325
C         52.71010        46.29747         2.05364
C         53.26414        48.25117         3.60211
C         52.57791        47.69337         2.38140
C         53.20436        49.74714         3.69579
C         52.48692        50.52239         2.82032
C         57.69200        24.55631         0.87752
C         56.42532        25.22436         0.80239
C         57.59023        27.36075         1.26820
C         56.38847        26.62191         1.01884
C         57.59907        28.79008         1.33915
C         56.35257        29.50400         0.86083
C         57.65352        31.66775         1.13715
C         56.36155        30.96751         1.16271
C         57.72851        33.18162         0.96482
C         56.48516        33.95426         0.75393
C         57.74616        36.09311         0.77992
C         56.47748        35.33547         0.63718
C         57.63814        37.58989         0.90818
C         56.32307        38.24468         0.77459
C         57.22845        40.35357         1.74349
C         56.20774        39.62344         1.02158
C         56.96634        41.69906         2.15407
C         55.67622        42.29734         1.92216
C         56.45832        44.38898         2.95684
C         55.38209        43.59174         2.41878
C         56.23269        45.74636         3.28678
C         54.82212        46.21771         3.50661
C         55.78438        48.54366         3.50005
C         54.66932        47.71412         3.52023
C         58.83181        25.23504         1.22897
C         59.97765        27.36011         1.82103
C         58.81252        26.64619         1.44194
C         59.94334        28.72883         1.98888
C         58.76663        29.48373         1.70773
C         59.90704        31.69821         2.09192
C         58.81986        30.95343         1.70078
C         59.93852        33.13487         2.02487
C         58.91178        33.88305         1.51222
C         59.89067        36.18699         2.15510
C         58.96391        35.36916         1.34320
C         59.78234        37.52473         2.30172
C         58.74759        38.35093         1.63809
C         59.39985        40.46095         2.84826
C         58.44598        39.72613         2.11625
C         59.19836        41.80049         3.14453
C         57.99100        42.45006         2.79923
C         58.84637        44.72841         3.39680
C         57.77572        43.85456         3.06394
C         58.63928        46.08307         3.54695
C         57.32040        46.62272         3.49522
C         57.08202        48.02594         3.58054
O         49.02179        49.25623         1.54907
O         57.98580        32.28388        -0.18822
O         43.99292        42.96061        -3.43267
O         48.81241        30.40038         1.05551
O         45.52726        29.24749         0.87905
O         35.55371        33.31703        -2.28623
O         52.76090        31.72599         1.61529
O         38.23698        44.00985        -3.13662
O         54.96157        32.76039         2.17217
O         39.19021        47.06657        -0.47431
O         27.29266        37.73957        -0.22247
O         52.57915        42.22249         2.04773
O         36.21440        38.78207        -2.40380
O         44.80803        20.24833         1.11635
O         35.30913        37.77275         0.87381
O         43.89126        47.21572        -0.51239
O         27.62745        33.38798         2.82253
O         45.34629        36.54766        -3.21431
O         51.25597        33.08432        -2.12235
O         51.73965        35.44779         0.49248
O         44.15653        50.63861        -0.22007
O         39.30939        26.86775        -0.03815
O         48.57373        35.29011        -3.06663
O         30.86030        37.87960        -0.88490
O         54.60157        34.42724        -1.22462
O         38.66214        51.88404        -3.20060
O         55.12267        28.03621         2.54070
O         52.81203        29.30405         2.24772
O         34.56211        45.26822        -2.42680
O         39.58858        33.52340        -3.15438
O         35.07403        22.58381         0.19831
O         43.63826        35.45111        -0.23683
O         58.70334        38.27173         0.17968
O         44.38758        18.21060        -1.76822
O         37.01820        24.77445        -2.76392
O         47.48136        46.45386        -3.26820
O         31.08298        32.49320         2.51089
O         44.88839        33.18309        -2.93932
O         40.85627        50.51961        -3.65420
O         33.23461        41.90239         1.99390
O         51.52949        42.31056        -2.38797
O         27.76390        40.29339         0.10546
O         47.20145        41.88344        -3.47967
O         26.24716        27.46833        -0.83470
O         52.28201        24.60914        -1.11271
O         50.30154        28.05749        -1.47719
O         25.37809        44.64876         0.32228
O         31.94476        27.15771        -1.14701
O         47.80573        51.77020         0.99477
O         27.64212        41.98791         3.16214
O         29.62220        38.46350         2.53090
O         46.86876        24.71718         1.31283
O         30.08741        26.68864         2.06806
O         34.18314        28.83952         1.45442
O         40.71380        18.45596         1.41506
O         50.63924        43.49836         1.09452
O         38.03031        20.76502         0.50797
O         58.84360        35.69972        -0.08549
O         36.97886        30.08467         0.52310
O         53.99185        39.96020        -1.65919
O         53.82397        42.43177        -1.35948
H         53.60782        42.19912        -2.29071
O         37.69004        48.95532         0.27627
H         38.07907        48.12474         0.63503
O         37.80554        27.38014        -3.29769
H         37.04406        27.90260        -3.62545
O         48.00799        31.38641        -2.37943
H         47.32848        31.87744        -2.88998
O         37.86326        54.25536         0.69471
H         37.07290        53.70939         0.89401
O         51.17832        46.47777        -1.62695
H         50.96542        46.17793        -2.53627
O         28.80293        46.94615         0.04098
H         28.66534        46.04870        -0.32872
O         29.31333        45.91991         3.54178
H         30.26079        45.75232         3.34501
O         49.75802        37.14078         0.16826
H         50.41511        36.64098         0.71747
O         24.25659        42.36531        -0.14945
H         24.79627        43.03310        -0.63260
O         33.83170        49.01033         1.70368
H         33.15986        49.37789         2.31662
O         30.23092        42.41738         3.37191
H         29.43825        42.55027         3.94001
O         39.48657        21.57017        -2.76811
H         39.79552        22.32927        -3.30785
O         46.75464        48.87666        -3.41812
H         47.33867        48.22657        -3.87706
O         26.18911        37.60256         3.23847
H         25.52311        37.11220         3.76546
O         44.34746        30.50800        -3.00963
H         44.42990        31.39727        -3.43633
O         28.42089        31.77540        -0.40763
H         28.37384        30.85726        -0.78422
O         36.15136        22.13716        -3.22941
H         36.87889        21.66277        -3.68459
O         39.03937        38.29473        -3.20606
H         38.82309        37.44275        -3.63944
O         29.21141        30.80574         3.05043
H         29.71455        31.54806         3.46334
O         35.95787        40.24461         0.92398
H         35.21417        40.51542         1.50429
O         49.45302        46.12789         1.55159
H         49.69965        46.34800         2.47397
O         44.60684        53.16268         0.28207
H         44.58558        52.22097         0.58309
O         39.13849        39.20426         0.32874
H         39.03415        40.05757         0.79972
O         48.37749        53.01516        -2.33867
H         47.80072        53.36804        -3.04836
O         27.63518        27.39376         2.43050
H         28.48766        27.34230         2.92630
O         37.81841        18.28927        -2.24436
H         37.76481        17.31813        -2.36659
O         30.31299        41.83040        -0.21260
H         30.81514        41.22534        -0.79938
O         49.49502        42.83917        -3.50852
H         48.64948        42.82042        -4.01897
O         36.00536        41.91568        -3.12072
H         36.62937        42.31387        -3.76422
O         24.18822        35.51575        -0.21429
H         24.33813        36.45544        -0.45381
O         50.29002        23.06530        -1.73935
H         51.12378        23.56077        -1.94492
O         52.61430        47.70587         4.81623
H         51.70586        48.07394         4.85532
O         44.00614        22.66484         1.50023
H         44.49877        21.95302         1.96990
O         46.53828        20.63917        -2.15864
H         47.42951        20.92541        -2.45505
O         41.55234        44.02159        -0.07427
H         41.48935        44.99000         0.08017
O         27.09960        46.83742         4.08351
H         27.99646        46.69340         4.47016
O         49.55036        37.96065        -3.36670
H         48.82522        38.38880        -3.86930
O         42.68507        54.84824        -3.62728
H         41.79086        54.59902        -3.94779
O         32.76389        44.36779         2.49886
H         33.24601        43.57971         2.84502
O         52.61751        22.91977         2.16304
H         51.73414        23.29280         2.40843
O         56.28930        29.35867        -0.60864
H         57.01747        29.89630        -0.99137
O         52.03772        26.91449         2.36071
H         52.38641        27.64028         2.93790
O         33.78535        39.57056        -1.98216
H         32.98080        39.02229        -2.09690
O         28.29816        29.00398        -0.84476
H         27.48971        28.61530        -1.26958
O         23.65814        27.18467        -1.06737
H         24.44183        27.07440        -1.65222
O         54.46477        45.73417         4.85142
H         53.64859        46.22218         5.12293
O         31.52441        40.15292         2.82215
H         31.14266        39.35510         3.25491
O         47.73682        33.27710         0.74782
H         47.80947        34.23066         0.95826
O         24.92627        29.42379         3.30915
H         25.84962        29.74848         3.38432
O         50.13278        24.12820         1.77955
H         49.95887        24.98398         2.22880
O         31.96853        24.90465         1.78758
H         32.05918        23.94473         1.96290
O         51.09609        35.91988        -3.06384
H         50.34409        36.12934        -3.66727
O         51.61199        50.62280        -0.52941
H         52.51304        51.00160        -0.45507
O         40.18853        31.08187        -3.45075
H         39.71187        31.81863        -3.90327
O         30.33308        48.17911         3.13471
H         30.33489        49.08731         3.50329
O         44.40148        52.48248        -3.35562
H         44.03033        53.28656        -3.79148
O         44.88015        22.74682        -2.06324
H         45.37967        21.95503        -2.39324
O         34.85048        29.14196        -2.15790
H         33.99998        28.68109        -2.32652
O         36.41985        48.50311        -3.11171
H         35.61443        48.08781        -3.48687
H         22.11657        27.05389         1.24135
H         22.40792        29.12528         2.43918
H         22.28529        31.19892         1.74186
H         22.26262        33.64804         1.47679
H         22.35488        35.61585         2.11493
H         22.39507        38.01113         2.34754
H         22.48704        40.01427         2.48546
H         22.51355        42.43443         2.29424
H         22.45228        44.37916         1.81442
H         22.61730        46.78717         2.23503
H         25.28620        23.62161         0.34377
H         23.25076        24.90308         0.48089
H         25.98424        50.08906         2.42117
H         23.87783        48.84273         2.52868
H         26.90711        22.66308        -0.29205
H         27.60495        51.01954         2.03571
H         28.95102        21.44189        -0.78962
H         29.57407        52.16768         1.26377
H         32.62773        19.21921        -1.53237
H         30.57981        20.48475        -1.13178
H         32.84428        54.28161        -0.55188
H         30.90618        53.06583         0.25862
H         34.23310        18.32981        -0.31119
H         34.42969        55.23428        -1.18641
H         36.25961        17.00858         0.01965
H         36.53405        56.45171        -0.96428
H         40.11615        14.74066         0.17311
H         38.02669        15.95919        -0.17324
H         40.39949        58.50587        -0.64787
H         38.29994        57.24109        -0.29278
H         42.61900        14.66091         0.13568
H         42.77051        58.58604        -1.46442
H         44.72946        15.81802        -0.31482
H         44.87941        57.38027        -1.78417
H         48.56158        18.02135         0.02088
H         46.53324        16.80228        -0.50879
H         48.42136        55.20150        -0.56245
H         46.37396        56.40200        -0.94095
H         50.22551        19.01976         0.31589
H         49.89593        54.12448         0.57133
H         52.26311        20.29830         0.76634
H         51.73069        52.79535         1.38124
H         56.10760        22.57471         0.08508
H         54.07011        21.26701         0.08943
H         53.69856        50.21787         4.55765
H         52.46541        51.61211         2.97073
H         57.74460        23.47260         0.70798
H         55.64391        49.63525         3.52080
H         59.78322        24.69517         1.34024
H         60.91540        26.80912         1.98182
H         60.86289        29.25037         2.28664
H         60.80148        31.20367         2.49592
H         60.84474        33.63264         2.39925
H         60.66555        35.65804         2.73029
H         60.47881        38.02821         2.98839
H         60.34912        39.99162         3.13986
H         59.98900        42.35180         3.67067
H         59.86906        44.33369         3.46755
H         59.48851        46.75819         3.72459
H         57.93420        48.70889         3.70506
