         424
 CSIRO Nanostructure Databank - Neutral Graphene Oxide Data Set
C          1.24636         2.00704         0.70140
C          1.21770         3.40919         0.69957
C          2.43971         1.32297         0.53063
C          2.39111         4.16169         0.51577
C          1.18515         6.36716         0.67908
C          1.17036         7.75157         0.64020
C          2.37834         5.62096         0.50911
C          2.35777         8.49292         0.40631
C          1.15289        10.71855         0.51885
C          1.15537        12.05518         0.71941
C          2.38549         9.95326         0.44005
C          2.41700        12.77735         1.11471
C          1.24632        15.06600         1.36136
C          1.26567        16.41388         1.30662
C          2.38856        14.27212         0.84344
C          2.46782        17.14247         0.89944
C          2.41964        18.40921         0.44057
C          3.65292         2.03697         0.34704
C          3.62631         3.46960         0.32829
C          4.88374         1.34937         0.20047
C          4.85024         4.18778         0.13281
C          3.58698         6.33546         0.30497
C          3.55184         7.75216         0.24293
C          4.84306         5.61919         0.11584
C          4.78225         8.46899        -0.11940
C          3.59164        10.66942         0.37031
C          3.66329        12.08398         0.59126
C          4.81219         9.96803        -0.05912
C          4.88227        12.77048         0.51315
C          3.69316        14.98290         0.65104
C          3.77767        16.42536         1.13441
C          4.94954        14.19396         0.60224
C          5.01972        17.14535         0.64557
C          3.62544        19.20656         0.05630
C          4.96571        18.49521         0.19956
C          6.09614         2.04123         0.04924
C          6.08022         3.48544         0.00158
C          7.33448         1.35215        -0.03912
C          7.30514         4.19361        -0.15143
C          6.05642         6.30334        -0.06354
C          6.10935         7.79628         0.12144
C          7.28562         5.61488        -0.20249
C          7.23090         8.48030        -0.68596
C          6.13579        10.61972         0.03931
C          6.19042        12.00748         0.61675
C          7.28279         9.94876        -0.28864
C          7.40652        12.77423         0.15848
C          6.16569        14.88938         0.51807
C          6.19718        16.33606         0.60256
C          7.40929        14.18534         0.24955
C          7.47914        16.93284         0.59876
C          6.04349        19.24844        -0.30750
C          7.40251        18.96471        -0.01844
C          8.56193         2.03563        -0.13936
C          8.55835         3.48942        -0.20106
C          9.78802         1.34056        -0.15529
C          9.76445         4.19396        -0.29167
C          8.52604         6.34926        -0.33853
C          8.53622         7.75939        -0.45067
C          9.75868         5.63116        -0.37915
C          9.74317         8.47331        -0.52008
C          8.55973        10.63680        -0.32315
C          8.57908        12.07115        -0.19427
C          9.74898         9.92651        -0.53872
C          9.80633        12.77696        -0.41025
C          8.61917        14.89596        -0.01014
C          8.65386        16.32666         0.11525
C          9.82350        14.19716        -0.30140
C          9.82833        17.08978        -0.19958
C          8.58586        19.27559        -0.67497
C          9.80621        18.52866        -0.44423
C         11.04088         2.01724        -0.19384
C         11.03769         3.48597        -0.31350
C         12.24337         1.33357        -0.11237
C         12.21512         4.16180        -0.49622
C         10.96766         6.35028        -0.52849
C         10.97070         7.75331        -0.55078
C         12.25967         5.63114        -0.80630
C         12.22553         8.47833        -0.65932
C         10.99420        10.62350        -0.72843
C         11.00978        12.06904        -0.70080
C         12.19009         9.89444        -0.85670
C         12.21562        12.80382        -0.85994
C         11.04530        14.92392        -0.46674
C         11.04082        16.37600        -0.43602
C         12.23391        14.20961        -0.72445
C         12.26771        17.08020        -0.57222
C         11.02375        19.19396        -0.63501
C         12.27134        18.51960        -0.55452
C         13.53009         2.09939         0.04847
C         13.48780         3.39381        -0.76063
C         14.80072         1.33602        -0.22647
C         14.76271         4.18927        -0.58524
C         13.44935         6.33490        -0.13842
C         13.44483         7.80834        -0.51297
C         14.74908         5.63041        -0.48777
C         14.67839         8.53112        -0.55817
C         13.45552        10.57950        -1.15643
C         13.47397        12.10092        -1.18038
C         14.71173         9.86976        -0.88539
C         14.76767        12.79955        -0.93076
C         13.49208        14.95083        -1.12370
C         13.51044        16.38560        -0.66907
C         14.76471        14.19925        -0.81586
C         14.71432        17.05749        -0.47937
C         13.49302        19.21024        -0.50330
C         14.72335        18.50809        -0.34861
C         15.98115         2.02172        -0.42706
C         15.97093         3.48619        -0.54891
C         17.25213         1.35371        -0.43964
C         17.21384         4.18585        -0.59738
C         15.91911         6.34017        -0.52377
C         15.92411         7.79492        -0.13094
C         17.20019         5.65839        -0.92261
C         17.20308         8.52069        -0.45846
C         15.99760        10.59492        -1.19975
C         15.97613        12.07211        -0.86242
C         17.22197         9.88327        -0.67723
C         17.20909        12.75798        -0.72656
C         15.98306        14.90120        -0.61988
C         15.97398        16.33630        -0.43323
C         17.20776        14.18449        -0.57542
C         17.16067        17.00823        -0.14112
C         15.91430        19.18260        -0.09703
C         17.14405        18.44446         0.32914
C         18.45880         2.05093        -0.47110
C         18.44160         3.51041        -0.55843
C         19.71102         1.37808        -0.35240
C         19.66983         4.23806        -0.55035
C         18.44363         6.37532        -0.46944
C         18.42945         7.76961        -0.35404
C         19.66871         5.64404        -0.43687
C         19.66620         8.49306        -0.24822
C         18.46355        10.62364        -0.64364
C         18.45433        12.03443        -0.71592
C         19.66637         9.88975        -0.39297
C         19.72386        12.83829        -0.95287
C         18.43878        14.90351        -0.35834
C         18.40614        16.30873        -0.12860
C         19.68356        14.23125        -0.36900
C         19.62756        17.01851         0.07523
C         18.41970        19.16454         0.00135
C         19.62305        18.48504        -0.00465
C         20.93820         2.05301        -0.37151
C         20.97216         3.51207        -0.77434
C         22.16018         1.38686        -0.18017
C         22.18844         4.24343        -0.25554
C         20.90494         6.35892        -0.20340
C         20.88027         7.74428        -0.06846
C         22.15771         5.63815        -0.08571
C         22.09818         8.45316         0.35579
C         20.95409        10.60723        -0.38498
C         21.00184        12.08430        -0.60360
C         22.11358         9.95677         0.28095
C         22.19003        12.81113        -0.10073
C         20.86940        14.92132        -0.04789
C         20.83361        16.32317         0.19412
C         22.14297        14.21287         0.02637
C         22.06295        17.08187         0.64335
C         20.87334        19.15257        -0.17294
C         22.10101        18.50964         0.11598
C         23.40076         2.08054        -0.11927
C         23.39789         3.52873        -0.10002
C         24.62465         1.39448         0.00094
C         24.62415         4.23014         0.10733
C         23.38211         6.35212         0.15939
C         23.38578         7.75681         0.34233
C         24.62144         5.65180         0.20090
C         24.59083         8.48971         0.48053
C         23.40921        10.65273         0.27040
C         23.39090        12.09696         0.15669
C         24.57005         9.93851         0.51238
C         24.61056        12.80870         0.28226
C         23.35339        14.93358         0.21315
C         23.35913        16.35680         0.35958
C         24.59265        14.23088         0.22122
C         24.55407        17.05512         0.40045
C         23.30723        19.18691         0.13866
C         24.53701        18.53387         0.70907
C         25.85935         2.07287         0.13143
C         25.85723         3.52003         0.21176
C         27.08899         1.36999         0.13105
C         27.06583         4.23885         0.33462
C         25.84724         6.37756         0.33452
C         25.83850         7.79592         0.45529
C         27.07942         5.64723         0.34458
C         27.09021         8.53652         0.53943
C         25.82149        10.67664         0.91223
C         25.85318        12.11016         0.43457
C         27.09774         9.91599         0.66879
C         27.05200        12.79375         0.28960
C         25.81665        14.95003         0.21781
C         25.80834        16.37233         0.25421
C         27.05054        14.23540         0.13971
C         27.03173        17.08640         0.18410
C         25.81372        19.22761         0.34139
C         27.02162        18.54114         0.18870
C         28.33337         2.02811         0.23311
C         28.36144         3.50051         0.59178
C         29.55205         1.36206         0.12063
C         29.52645         4.20439        -0.09524
C         28.33685         6.37761         0.36667
C         28.33956         7.79752         0.46767
C         29.55289         5.67512         0.24082
C         29.57897         8.49968         0.43856
C         28.37141        10.68082         0.94884
C         28.33408        12.10994         0.42152
C         29.61583         9.94425         0.51003
C         29.49848        12.78789         0.23394
C         28.24960        14.95295         0.01956
C         28.25773        16.37480         0.04837
C         29.50578        14.19736        -0.31292
C         29.49994        17.08965        -0.02180
C         28.26497        19.22096         0.06042
C         29.49693        18.52354        -0.00268
C         30.81513         2.05779         0.17841
C         30.82634         3.48372         0.16066
C         32.03951         1.36504         0.22609
C         32.03471         4.20158         0.25313
C         30.79384         6.35681         0.29325
C         30.79662         7.79111         0.36765
C         32.01732         5.62726         0.28994
C         32.04841         8.50562         0.23772
C         30.79067        10.63725         0.31467
C         30.80841        12.12248         0.59211
C         32.04396         9.95177         0.09807
C         31.99051        12.84351         0.01878
C         30.76094        14.96849        -0.00880
C         30.74703        16.37897        -0.03506
C         31.98705        14.24782         0.00239
C         31.98889        17.09683        -0.07644
C         30.73558        19.21730        -0.02833
C         31.98379        18.54771        -0.08335
C         33.28317         2.05596         0.26687
C         33.28773         3.48829         0.31102
C         34.51776         1.35957         0.24372
C         34.52402         4.19330         0.32551
C         33.27552         6.36924         0.62742
C         33.23554         7.80154         0.17460
C         34.54730         5.62498         0.31785
C         34.48005         8.50772        -0.14392
C         33.23660        10.65737        -0.09684
C         33.18616        12.11151        -0.50201
C         34.50159         9.98320        -0.11751
C         34.47593        12.85344        -0.24778
C         33.23236        14.96764        -0.01959
C         33.20769        16.37635        -0.06313
C         34.46994        14.20824        -0.05522
C         34.48282        17.09250        -0.27003
C         33.18945        19.28113        -0.05845
C         34.48532        18.66627        -0.26618
C         35.74975         2.04403         0.22658
C         35.75589         3.48188         0.26201
C         36.99534         1.35589         0.15520
C         36.99145         4.18908         0.24723
C         35.75071         6.30835         0.22248
C         35.77550         7.75537        -0.08196
C         37.00273         5.61949         0.24464
C         37.02091         8.50946         0.13740
C         35.72735        10.64604        -0.17127
C         35.75498        12.10966        -0.54992
C         36.98754         9.95530         0.01336
C         37.01556        12.83058        -0.14070
C         35.73992        14.92511         0.20363
C         35.74377        16.43392         0.15821
C         37.02397        14.23187         0.01468
C         37.02178        17.13931        -0.02010
C         35.76628        19.28949         0.01765
C         36.99311        18.58087        -0.04565
C         38.20986         2.04602         0.12116
C         38.22252         3.48218         0.18125
C         39.46986         1.35567         0.01279
C         39.45060         4.20280         0.15269
C         38.22057         6.35018         0.29765
C         38.19348         7.79512         0.34935
C         39.46530         5.63254         0.26147
C         39.44889         8.52141         0.64859
C         38.18654        10.67888         0.07937
C         38.21936        12.10684        -0.05828
C         39.47828        10.05361         0.56886
C         39.47448        12.81979        -0.04068
C         38.23358        14.96254         0.05123
C         38.22528        16.41626         0.03001
C         39.47490        14.24973        -0.01879
C         39.47201        17.12524        -0.00152
C         38.23197        19.26175        -0.00379
C         39.45721        18.55972         0.00315
C         40.64714         2.04499        -0.04394
C         40.67861         3.48278         0.02638
C         41.88891         4.19388        -0.02777
C         40.71795         6.31205         0.27170
C         40.74380         7.76797         0.57816
C         41.90328         5.58503         0.09890
C         41.97815         8.57498         0.37633
C         40.64325        10.58573        -0.30066
C         40.70069        12.10452        -0.15709
C         41.93863         9.86704         0.02055
C         41.89002        12.82542        -0.23793
C         40.71457        14.96200        -0.06446
C         40.71359        16.42554        -0.02367
C         41.89990        14.22608        -0.17366
C         41.90607        17.16626        -0.01545
C         40.69445        19.26452         0.01156
C         41.89109        18.57135         0.00671
O          7.58631        18.20298         1.16434
O         40.09419         8.04179         1.88708
O         35.65453        15.72557         1.43869
O         21.83326         9.30288         1.55350
O         21.35819        11.14947        -1.69871
O         35.13609         8.00822        -1.39712
O          4.63969         9.24234        -1.35407
O         13.45107        11.34651        -2.44684
O         34.56710        17.80259        -1.48836
O          2.81746        14.70482        -0.48919
O         33.03872        12.08532        -1.97476
H         33.95059        11.98401        -2.34695
O         17.07129        18.37920         1.81666
H         16.28272        17.84176         2.04440
O         13.59374         2.50302         1.45836
H         13.59236         1.68934         2.00426
O         28.60960         3.58326         2.02441
H         27.89530         3.09334         2.48245
O         35.81479        12.09348        -2.04320
H         36.50588        11.44394        -2.29926
O          2.50163        12.68044         2.57791
H          2.55104        11.72902         2.81049
O         19.74717        13.05695        -2.39947
H         20.12769        12.23737        -2.79380
O         29.50881        14.05799        -1.78421
H         28.66555        13.62663        -2.03951
O         39.67871        10.56586         1.90491
H         39.98855         9.80714         2.45598
O         33.28711         6.45743         2.11923
H         32.40230         6.78041         2.39697
O         15.85876         7.77146         1.35228
H         15.98441         8.69101         1.67075
O          6.38584         8.01616         1.53581
H          7.22351         7.55606         1.75613
O         29.27060         4.11470        -1.53252
H         30.01465         4.55029        -1.99869
O         16.12154        10.53555        -2.66275
H         15.26752        10.88018        -3.02219
O         17.24907         5.72290        -2.40478
H         16.44851         5.26461        -2.73979
O          6.37226        11.81575         2.07268
H          6.38083        12.70634         2.48463
O         24.39873        18.63297         2.20128
H         25.19454        18.21018         2.59088
O         13.43552        15.03114        -2.59521
H         13.42336        14.11184        -2.93973
O         28.47846        10.80445         2.41654
H         27.56171        11.00493         2.74014
O         30.92525        12.25330         2.05461
H         30.14052        11.78626         2.44123
O         13.44168         3.03852        -2.17587
H         13.27431         3.88093        -2.66108
O         21.14977         3.50121        -2.24090
H         20.34656         3.09175        -2.62774
O          3.94387        16.30536         2.58457
H          4.05747        17.20709         2.95122
O         40.30468        10.28208        -1.68211
H         40.99690        10.66807        -2.25819
O          6.99018         8.35302        -2.10392
H          6.11545         8.77726        -2.28761
O         25.72534        10.80280         2.40291
H         25.38573         9.94651         2.74352
O          3.46916        19.69123        -1.29114
H          3.32260        18.91796        -1.87393
O         12.51153         5.73173        -2.25615
H         11.64736         5.65735        -2.71464
O         13.28391         6.26290         1.29642
H         14.09938         6.64844         1.69420
O         21.96817        17.18674         2.09724
H         22.73615        17.74236         2.38846
H          0.31001         1.44974         0.84495
H          0.25259         3.91250         0.84498
H          2.45850         0.22379         0.54100
H          0.23440         5.84397         0.84922
H          0.21505         8.27206         0.79252
H          0.20017        10.20594         0.32289
H          0.20759        12.61311         0.71465
H          0.35571        14.53406         1.72615
H          0.37526        16.99750         1.58623
H          1.44428        18.90352         0.30697
H          4.88836         0.24943         0.22805
H          3.65698        20.12528         0.70795
H          7.33480         0.25249         0.00322
H          5.79644        20.10966        -0.94778
H          9.77976         0.24185        -0.08985
H          8.61111        20.08486        -1.41999
H         12.24231         0.23821         0.00683
H         11.01948        20.28362        -0.78572
H         14.82077         0.24495        -0.07306
H         13.49732        20.31016        -0.49121
H         17.26842         0.25626        -0.35506
H         15.90329        20.27956        -0.00382
H         19.70482         0.28836        -0.19209
H         18.40140        20.25880        -0.11470
H         22.15728         0.29561        -0.03170
H         20.87500        20.22760        -0.41262
H         24.62477         0.29433        -0.02945
H         23.35842        20.23910        -0.18170
H         27.07350         0.28007        -0.02583
H         25.82428        20.32814         0.36416
H         29.56139         0.26998        -0.02074
H         28.27368        20.32115         0.06470
H         32.04012         0.26463         0.21907
H         30.72553        20.31767        -0.01832
H         34.51215         0.25960         0.21304
H         33.15612        20.34870         0.20464
H         36.99628         0.25615         0.11412
H         35.78454        20.35844         0.27584
H         39.46600         0.25680        -0.03492
H         38.24332        20.36156         0.00628
H         41.60142         1.50575        -0.13698
H         42.83576         3.64693        -0.14179
H         42.86951         6.10821         0.08816
H         42.95138         8.09493         0.56337
H         42.89166        10.40368        -0.10428
H         42.85313        12.30871        -0.35237
H         42.86983        14.73800        -0.22842
H         42.87817        16.65545        -0.02268
H         40.68571        20.36381         0.01989
H         42.84404        19.11884         0.01499
