         620
 CSIRO Nanostructure Databank - Neutral Graphene Oxide Data Set
C         23.05705        27.45547        -1.00124
C         23.00709        28.79155        -0.71557
C         22.94179        31.74590        -0.48964
C         22.89502        33.08171        -0.20799
C         22.92283        36.02024         0.32996
C         22.96600        37.41217         0.36073
C         22.95841        40.29785         0.99479
C         22.97727        41.63425         1.21912
C         23.02437        44.59483         1.06150
C         23.05984        45.97583         1.02408
C         25.57141        24.82295        -1.90775
C         24.35904        25.43158        -1.60597
C         25.52096        27.53162        -1.12122
C         24.30488        26.79314        -1.24835
C         25.47256        28.91306        -0.78005
C         24.20379        29.58886        -0.63620
C         25.43365        31.79079        -0.46376
C         24.15806        30.98272        -0.44866
C         25.35870        33.04681         0.38631
C         24.04791        33.78432         0.39712
C         25.32462        35.93513         0.72423
C         24.08952        35.26494         0.50539
C         25.36352        37.36434         0.77761
C         24.16688        38.09438         0.58887
C         25.44449        40.25739         0.93712
C         24.17898        39.59997         0.45019
C         25.43440        41.66434         1.12997
C         24.20551        42.39463         1.15717
C         25.45153        44.52616         1.38240
C         24.21391        43.82731         1.21812
C         25.45518        45.94407         1.46227
C         24.27432        46.67910         1.22553
C         25.43997        48.83988         1.46222
C         24.31509        48.12891         1.19922
C         28.05030        23.78565        -3.04888
C         28.05308        24.94660        -2.26019
C         26.78970        25.53226        -1.82540
C         28.00211        27.58842        -1.18066
C         26.77182        26.87679        -1.36703
C         27.93924        28.92618        -0.75751
C         26.69938        29.61665        -0.57574
C         27.87130        31.66184         0.17821
C         26.68810        30.99791        -0.23546
C         27.85642        33.07583         0.59328
C         26.60982        33.81434         0.58600
C         27.78216        35.90190         1.23174
C         26.55616        35.17623         0.84107
C         27.83602        37.36834         1.07979
C         26.62935        38.07617         0.94372
C         27.89578        40.18609         1.22626
C         26.64631        39.51166         1.01973
C         27.89927        41.62959         1.29617
C         26.67884        42.36301         1.27413
C         27.92702        44.47021         1.30359
C         26.69062        43.78448         1.38252
C         28.00524        45.91544         1.58891
C         26.68951        46.67075         1.82904
C         28.05570        48.91495         1.82177
C         26.69977        48.17706         1.85154
C         28.10372        50.34361         1.47202
C         30.43047        23.99458        -3.34298
C         29.23319        23.35598        -3.65065
C         30.54799        25.04060        -2.38998
C         29.29097        25.60917        -1.97907
C         30.50611        27.54223        -1.13830
C         29.27481        26.91767        -1.40060
C         30.50986        28.96282        -0.76484
C         29.16936        29.69791        -0.59756
C         30.29594        31.49755         0.75697
C         29.08894        30.96438         0.13026
C         30.28042        32.94079         1.13855
C         29.03760        33.70472         0.93940
C         30.36493        35.87913         1.15507
C         29.08629        35.13328         1.31516
C         30.35614        37.29687         1.11699
C         29.09625        38.03532         1.15746
C         30.40240        40.13570         1.44136
C         29.10557        39.44822         1.24553
C         30.40618        41.65284         1.42121
C         29.11901        42.34597         1.27545
C         30.35299        44.44406         0.73880
C         29.12291        43.74458         1.16295
C         30.37374        45.97782         0.76292
C         29.21267        46.67000         1.30440
C         30.51908        48.84672         0.95710
C         29.31003        48.10960         1.56607
C         30.42726        50.29106         0.66088
C         29.20784        50.97119         0.96810
C         33.55568        20.74348        -3.30021
C         32.54492        21.55108        -3.83432
C         33.25128        23.46015        -2.41571
C         32.42448        22.86786        -3.41039
C         33.08896        24.82502        -1.93602
C         31.81940        25.57233        -1.93436
C         32.96046        27.54310        -0.89469
C         31.76905        26.86277        -1.29198
C         32.93080        28.85199        -0.33660
C         31.71369        29.53135        -0.18001
C         32.87184        31.59144         0.68775
C         31.63777        30.79505         0.56124
C         32.83897        32.95870         0.93894
C         31.58774        33.69524         1.21747
C         32.81090        35.84630         0.87932
C         31.58156        35.16905         1.06604
C         32.80210        37.25786         0.76243
C         31.60148        37.98714         0.94361
C         32.84371        40.13826         0.99459
C         31.65675        39.43565         1.06863
C         32.90453        41.61286         1.17051
C         31.64802        42.37038         1.09582
C         32.83224        44.41674         0.36540
C         31.64875        43.71977         0.76867
C         32.72533        45.85218         0.01695
C         31.66845        46.66251         0.63299
C         32.79874        48.78553        -0.14628
C         31.49021        48.06042         0.08816
C         32.79096        50.19836        -0.14883
C         31.58414        50.94043         0.16513
C         32.79505        53.01905        -0.30196
C         31.63523        52.36301         0.02444
C         35.68172        19.08796        -2.21124
C         35.67686        20.50278        -2.05658
C         34.51332        21.30155        -2.45526
C         35.49909        23.30373        -1.39896
C         34.40766        22.68313        -2.06648
C         35.40987        24.65991        -1.05815
C         34.22930        25.40982        -1.31797
C         35.44814        27.49071        -0.42322
C         34.29263        26.92151        -1.22056
C         35.39748        28.85061        -0.00297
C         34.15389        29.54283         0.04630
C         35.33419        31.55541         0.80265
C         34.12172        30.89008         0.47932
C         35.28725        32.95598         1.22927
C         34.05280        33.71901         1.00985
C         35.33247        35.82455         0.90564
C         34.06727        35.10919         0.92108
C         35.36307        37.18989         0.23898
C         34.03960        37.96279         0.35885
C         35.37079        40.17166         0.49578
C         34.06143        39.46522         0.50278
C         35.38134        41.59207         0.39829
C         34.17426        42.35927         0.76603
C         35.25774        44.41059        -0.14233
C         34.07883        43.76151         0.30170
C         35.20785        45.77028        -0.82137
C         33.92122        46.55302        -0.54763
C         35.19002        48.69033        -0.69742
C         33.98383        48.04259        -0.44839
C         35.15320        50.14520        -1.06576
C         33.98092        50.91318        -0.51272
C         35.25488        53.01500        -0.90202
C         34.00941        52.30950        -0.56805
C         35.30699        54.45407        -0.82032
C         38.05958        18.99342        -1.69034
C         36.83605        18.35856        -2.03270
C         38.04422        20.39365        -1.41394
C         36.83195        21.13074        -1.58744
C         37.83772        23.07840        -0.39567
C         36.85930        22.63115        -1.46175
C         37.79489        24.52100        -0.00081
C         36.55094        25.29402        -0.33087
C         37.82266        27.36996         0.25085
C         36.61882        26.76170        -0.22407
C         37.81871        28.76820         0.47405
C         36.59579        29.49759         0.41862
C         37.80976        31.60505         0.92815
C         36.56984        30.88395         0.76074
C         37.83641        33.01517         1.04619
C         36.58939        33.73362         1.35792
C         37.82789        35.92641         1.31718
C         36.52862        35.18289         1.12267
C         37.77799        37.36855         0.88262
C         36.60183        38.00305         0.60961
C         37.80782        40.17592         0.34509
C         36.57030        39.45621         0.46290
C         37.79212        41.57218         0.03342
C         36.54936        42.28921         0.07384
C         37.70256        44.43347        -0.42363
C         36.50842        43.72707        -0.16112
C         37.69909        45.86682        -0.53373
C         36.46813        46.57344        -0.60377
C         37.67979        48.71272        -0.76432
C         36.44849        47.97742        -0.71623
C         37.65680        50.15549        -0.92252
C         36.46904        50.86471        -0.94115
C         37.68237        53.00398        -1.48680
C         36.44105        52.29811        -1.10293
C         37.68727        54.54141        -1.46093
C         36.45257        55.17090        -0.98373
C         40.55550        16.16228        -1.80238
C         39.37637        16.86195        -1.87204
C         40.49775        18.99470        -1.38274
C         39.30812        18.28094        -1.63773
C         40.47718        20.36812        -0.98914
C         39.24776        21.04006        -0.98248
C         40.36583        23.09059         0.04764
C         39.13768        22.35595        -0.32355
C         40.30872        24.49392         0.33319
C         39.07671        25.22373         0.25239
C         40.27766        27.31524         0.72772
C         39.05453        26.61962         0.41935
C         40.26324        28.73920         0.84274
C         39.04132        29.46280         0.74699
C         40.27029        31.59241         0.89940
C         39.03552        30.87862         0.86150
C         40.26180        33.01468         0.77157
C         39.04250        33.73815         0.84335
C         40.22227        35.88836         0.52381
C         39.05632        35.18805         0.81396
C         40.28329        37.32115         0.57329
C         39.08062        38.11486         1.04017
C         40.25147        40.18249         0.22960
C         39.04289        39.50236         0.45815
C         40.23878        41.57872        -0.07795
C         39.00727        42.25246        -0.19515
C         40.22118        44.42042        -0.25500
C         38.98135        43.67616        -0.69761
C         40.19393        45.90810        -0.27988
C         38.91528        46.61681        -0.52281
C         40.19402        48.79837        -0.40328
C         38.90903        48.01287        -0.62870
C         40.19718        50.07615        -1.24801
C         38.92179        50.83994        -1.29147
C         40.18453        53.01850        -1.37779
C         38.97797        52.31373        -1.39015
C         40.19930        54.47703        -1.34963
C         38.99690        55.22148        -1.33450
C         40.23163        57.30985        -1.16738
C         39.03185        56.63240        -1.23796
C         42.99703        16.14288        -1.38028
C         41.79537        16.82728        -1.56975
C         43.03637        18.99829        -0.95438
C         41.77874        18.29261        -1.49678
C         42.86228        20.32169        -0.33570
C         41.66952        21.00706        -0.42041
C         42.75263        23.05772         0.54432
C         41.57877        22.38797         0.07806
C         42.73188        24.43607         0.78283
C         41.51891        25.18185         0.67276
C         42.69303        27.32350         1.27011
C         41.49957        26.60259         0.90087
C         42.68548        28.71786         1.29179
C         41.48280        29.44974         1.04361
C         42.72950        31.60460         1.02728
C         41.48765        30.87303         0.99533
C         42.68963        33.02422         0.74985
C         41.50242        33.71181         0.59312
C         42.72330        35.90236         0.15068
C         41.43730        35.12249         0.03005
C         42.72938        37.28864         0.17149
C         41.47565        38.01694         0.33437
C         42.71319        40.15154         0.09041
C         41.50048        39.45793         0.25572
C         42.72979        41.57831        -0.09721
C         41.50008        42.28366        -0.19868
C         42.72715        44.38840        -0.45436
C         41.51541        43.68961        -0.34914
C         42.69770        45.83826        -0.75569
C         41.46234        46.63456        -0.51548
C         42.74340        48.77148        -0.44502
C         41.46413        47.98620        -0.60534
C         42.76266        50.11140        -1.15235
C         41.48064        50.84347        -1.41211
C         42.66953        53.02072        -1.29159
C         41.46306        52.32679        -1.35697
C         42.69476        54.46057        -1.20594
C         41.44937        55.17062        -1.25008
C         42.68932        57.29390        -1.04700
C         41.45378        56.59549        -1.16061
C         44.15580        16.78946        -0.91597
C         45.35455        18.80646        -0.07919
C         44.18699        18.15100        -0.58912
C         45.31765        20.18313         0.24519
C         43.95826        20.76206         0.61061
C         45.28739        22.99132         1.04494
C         43.97438        22.26877         0.86629
C         45.28312        24.47511         1.06776
C         43.95328        25.10552         1.30802
C         45.28639        27.26841         1.92972
C         43.92295        26.56836         1.64739
C         45.22735        28.79187         1.80097
C         43.90933        29.49542         1.59463
C         45.18960        31.66022         1.46922
C         43.92584        30.92935         1.25598
C         45.20549        33.12362         1.07761
C         43.97444        33.69654         0.46935
C         45.25700        35.87509         0.26662
C         43.99208        35.15651         0.11220
C         45.25931        37.30927        -0.17743
C         43.96436        38.03297         0.09406
C         45.20460        40.16934         0.07377
C         43.96140        39.42524         0.08155
C         45.20940        41.57268        -0.03092
C         43.96709        42.29083        -0.17928
C         45.23033        44.43071        -0.43096
C         43.97087        43.70052        -0.38090
C         45.26459        45.83004        -0.60620
C         44.01645        46.56965        -0.84755
C         45.22063        48.72860        -0.70393
C         44.02974        48.03036        -0.71270
C         45.21489        50.19266        -0.79233
C         44.02138        50.86696        -1.02297
C         45.27311        53.07571        -1.09106
C         43.96476        52.29138        -1.34981
C         45.16659        54.50197        -0.77965
C         43.91053        55.18065        -0.99958
C         43.87257        56.60585        -0.95233
C         47.77964        18.74984         0.15891
C         46.61052        18.08787         0.05590
C         47.81438        20.23835        -0.05124
C         46.52232        20.91236         0.39122
C         47.76122        23.02592         0.68806
C         46.54854        22.28489         0.71621
C         47.77633        24.47829         1.13041
C         46.44778        25.19506         1.02420
C         47.63919        27.36881         1.10717
C         46.47327        26.64523         1.21209
C         47.69050        28.81057         1.32800
C         46.48618        29.52883         1.50483
C         47.68596        31.65334         1.22116
C         46.47822        30.93802         1.43187
C         47.68540        33.08084         0.96930
C         46.48260        33.78862         0.80258
C         47.70863        35.90607         0.48371
C         46.45630        35.18864         0.48705
C         47.70873        37.33387         0.44454
C         46.47560        38.06362         0.29027
C         47.64402        40.22777         0.59625
C         46.43141        39.45000         0.30204
C         47.67818        41.64814         0.23032
C         46.45649        42.31055        -0.02287
C         47.69606        44.43608        -0.21105
C         46.45712        43.72315        -0.22501
C         47.69470        45.84327        -0.42565
C         46.48907        46.56521        -0.58627
C         47.67651        48.76219        -0.57949
C         46.48661        48.01899        -0.67386
C         47.68420        50.19375        -0.48187
C         46.45616        50.91524        -0.66132
C         47.63056        53.05376        -0.28959
C         46.46299        52.32448        -0.65928
C         47.51570        54.44490        -0.08810
C         46.30493        55.12907        -0.25912
C         50.20228        20.27456         0.88002
C         49.03653        20.92885         0.49733
C         50.27648        23.06281         0.66810
C         48.98787        22.34995         0.57280
C         50.26591        24.58874         0.67728
C         48.95571        25.26199         0.61690
C         50.09499        27.37516         1.35673
C         48.92852        26.76441         0.58531
C         50.18789        28.80479         1.44476
C         48.93195        29.52126         1.29635
C         50.16925        31.64599         1.09550
C         48.92524        30.94231         1.23073
C         50.16000        33.05717         0.86703
C         48.92703        33.76967         0.79512
C         50.16568        35.89321         0.49985
C         48.92584        35.18741         0.59605
C         50.16986        37.31590         0.43270
C         48.94405        38.01849         0.50875
C         50.20890        40.20301         0.37894
C         48.96876        39.47324         0.67281
C         50.18245        41.60445         0.25851
C         48.92615        42.32881         0.18450
C         50.18693        44.44172        -0.01819
C         48.93323        43.72758        -0.04194
C         50.19318        45.82804        -0.13286
C         48.97957        46.53667        -0.53390
C         50.17949        48.81575        -0.24072
C         48.97589        48.07454        -0.60797
C         50.16010        50.21103        -0.17755
C         48.90046        50.91335        -0.29303
C         50.10399        53.00640         0.08011
C         48.88586        52.33588        -0.14768
C         51.32812        20.97959         1.36282
C         52.59705        23.11750         1.67159
C         51.42235        22.36733         1.27322
C         52.59865        24.56388         1.72437
C         51.37126        25.23552         1.39951
C         52.91605        27.54727         2.10386
C         51.07779        26.53052         1.87205
C         52.73473        28.87439         1.61131
C         51.42647        29.52163         1.50402
C         52.61646        31.65638         0.96732
C         51.40957        30.94200         1.19963
C         52.61433        33.04066         0.68004
C         51.38682        33.76013         0.67304
C         52.61975        35.88408         0.31506
C         51.39326        35.17785         0.49698
C         52.62619        37.30626         0.20889
C         51.40890        38.03230         0.31849
C         52.65028        40.15413         0.06233
C         51.41675        39.46040         0.24904
C         52.65085        41.57643         0.01966
C         51.42711        42.30935         0.11535
C         52.68646        44.42952         0.00678
C         51.43947        43.72673         0.07050
C         52.71263        45.87868         0.02206
C         51.42203        46.58016         0.14217
C         52.69337        48.80585        -0.05836
C         51.41406        48.09299         0.09464
C         52.67054        50.22211        -0.08543
C         51.39695        50.93710        -0.02188
C         51.32526        52.32941         0.11806
C         54.84666        23.05477         2.58563
C         53.73094        22.39599         2.10277
C         54.87861        24.45470         2.55816
C         53.81970        25.26363         2.10614
C         55.24873        27.37532         1.45929
C         54.03135        26.72191         1.92541
C         55.14771        28.78214         1.06201
C         53.92042        29.50790         1.19305
C         55.06519        31.61147         0.38482
C         53.95407        31.00730         1.19157
C         55.04631        33.01452         0.16659
C         53.84084        33.74537         0.37745
C         55.05935        35.84560        -0.10152
C         53.84163        35.15287         0.20173
C         55.07181        37.27266        -0.18393
C         53.86133        38.00317        -0.00672
C         55.10297        40.12490        -0.27833
C         53.87133        39.42569        -0.07225
C         55.11149        41.54412        -0.28723
C         53.88861        42.27357        -0.13431
C         55.17564        44.39466        -0.11133
C         53.88556        43.69378        -0.09221
C         55.17678        45.91589        -0.09880
C         53.88271        46.61932        -0.07529
C         55.14299        48.77575        -0.25456
C         53.90432        48.07206        -0.13124
C         55.10605        50.18653        -0.25350
C         53.91299        50.89242        -0.16936
C         57.99017        24.77567         1.69161
C         56.84688        25.49255         2.00784
C         57.67402        27.39000         0.75593
C         56.51329        26.74116         1.39767
C         57.52552        28.78626         0.24374
C         56.23622        29.45981         0.44939
C         57.36334        31.49598        -0.49298
C         56.18740        30.84208         0.06468
C         57.40226        32.92147        -0.56670
C         56.23241        33.68585        -0.25491
C         57.46839        35.79110        -0.67631
C         56.25011        35.10599        -0.34618
C         57.49744        37.22133        -0.69413
C         56.29523        37.96867        -0.45012
C         57.54882        40.08912        -0.73786
C         56.31601        39.38927        -0.48725
C         57.57251        41.51680        -0.77799
C         56.34642        42.25059        -0.53725
C         57.52875        44.36371        -1.05197
C         56.35287        43.64033        -0.56317
C         57.52927        45.91171        -1.03687
C         56.36490        46.65791        -0.54387
C         57.65909        48.70840        -0.68631
C         56.39221        48.04422        -0.48194
C         58.90920        25.26811         0.72330
C         59.76456        27.18950        -0.60478
C         58.78009        26.55579         0.24525
C         59.62095        28.44220        -1.10148
C         58.34812        29.23679        -0.94846
C         59.64394        31.41700        -1.33653
C         58.49260        30.74769        -0.90525
C         59.70707        32.80954        -1.34563
C         58.59768        33.59033        -0.96943
C         59.83351        35.75179        -1.25584
C         58.64076        35.04374        -0.97280
C         59.87344        37.13363        -1.23662
C         58.71716        37.90462        -0.95959
C         59.95590        40.07085        -1.14380
C         58.74955        39.35215        -0.95039
C         59.98103        41.45171        -1.15240
C         58.79622        42.21444        -0.99218
C         59.97134        44.41953        -1.30445
C         58.81764        43.66307        -1.10381
C         59.97970        45.83344        -1.28320
C         58.82871        46.58785        -1.06585
C         58.82310        48.00994        -0.89408
O         38.08173        22.22831         0.74435
O         37.52909        53.80232        -2.71257
O         55.45251        45.15108         1.14254
O         45.06138        32.72874         2.47958
O         28.33319        35.45952         2.52787
O         42.24854        50.23068        -2.51358
O         30.84114        30.62840         1.80434
O         56.04968        25.03466         3.06657
O         44.82676        52.71767        -2.44404
O         36.76039        24.72406         1.02447
O         40.21578        49.21972         0.95968
O         30.48924        48.51092         2.36590
O         30.49345        40.89340         2.68957
O         32.87173        46.12177        -1.49741
O         44.08815        34.07352        -0.94326
O         50.64178        23.83290        -0.53037
O         58.23975        28.57396         1.49480
O         42.73572        18.96395        -2.38673
O         43.29182        46.12470        -2.07063
O         44.48874        29.31299         2.95881
O         35.52490        36.79395        -1.10848
O         48.27336        39.93438         1.88717
O         39.45301        50.09166        -2.49110
O         44.52054        22.49787         2.21204
O         40.12971        45.14984         1.00562
O         29.96255        29.83666        -1.84817
O         57.22016        45.15043        -2.26309
O         31.53094        23.65715        -4.13399
O         35.90281        33.21834         2.54145
O         49.17073        47.24792        -1.82052
O         33.80160        38.81978        -0.80157
O         51.29534        47.37351         1.39579
O         30.89970        33.22434         2.42979
O         24.53614        33.02068         1.57971
O         33.83267        42.13347         2.18307
O         27.42037        46.13640         2.94930
O         30.09295        45.18025        -0.47775
O         27.33268        48.68392         3.06799
O         51.88495        27.03616         2.90248
O         43.69934        25.56304         2.68669
O         34.59611        27.35486        -2.60782
H         33.81134        27.14459        -3.15861
O         35.22018        45.45631        -2.25027
H         34.27428        45.43916        -2.53535
O         47.88416        20.44058        -1.50955
H         47.11403        19.97885        -1.90480
O         37.45823        23.15028        -2.70450
H         36.88328        22.87706        -3.45101
O         42.80324        49.08263         0.98108
H         41.84026        49.18346         1.28440
O         24.15012        39.83396        -1.01243
H         24.15883        40.80570        -1.14841
O         45.36167        37.25358        -1.65748
H         46.10635        36.65431        -1.87822
O         37.99793        35.94780         2.77786
H         38.64935        36.66572         2.98390
O         25.55606        32.31865        -1.84030
H         25.67073        31.55337        -2.44334
O         39.29897        38.31383         2.49843
H         38.63742        38.97018         2.80715
O         39.09376        43.60518        -2.15722
H         38.27860        43.18786        -2.50812
O         41.24812        34.92897        -1.41673
H         42.09702        34.56754        -1.76200
O         57.51268        28.93439        -2.11266
H         57.99466        29.22667        -2.91440
O         34.90108        50.11915        -2.53035
H         34.98523        51.04135        -2.85726
O         45.61790        27.01270         3.31731
H         44.99928        27.55173         3.86111
O         54.30625        31.34427         2.59917
H         53.61313        30.95386         3.17426
O         49.05885        27.17614        -0.81790
H         49.18412        28.14901        -0.82937
O         43.59932        20.12453         1.87524
H         43.98493        20.68851         2.58696
O         48.02519        24.41198         2.59707
H         47.53687        25.15415         3.02013
O         30.84187        47.98139        -1.22235
H         31.37429        47.33306        -1.74665
H         22.12871        26.86921        -1.06401
H         22.03254        29.26823        -0.54450
H         22.01401        31.24824        -0.80873
H         21.94515        33.61884        -0.33986
H         21.95949        35.52284         0.15656
H         22.03979        37.97302         0.17806
H         22.01230        39.74706         1.09199
H         22.05114        42.14506         1.52011
H         22.06282        44.08298         0.91940
H         22.13420        46.54520         0.85800
H         25.56827        23.76630        -2.20728
H         23.42553        24.85470        -1.67351
H         25.40672        49.93822         1.45521
H         23.38258        48.65977         0.95720
H         27.11089        23.27344        -3.29188
H         27.22354        50.94831         1.73130
H         29.22672        22.54555        -4.39040
H         29.13907        52.05210         0.78261
H         33.63628        19.70082        -3.63240
H         31.87196        21.16922        -4.61199
H         32.76960        54.11395        -0.37274
H         30.73331        52.95956         0.21450
H         34.75964        18.56216        -2.49247
H         34.40798        54.99630        -0.49956
H         36.80278        17.27279        -2.19170
H         36.45112        56.24164        -0.73669
H         40.55570        15.06970        -1.92682
H         38.44964        16.30664        -2.06716
H         40.24856        58.40737        -1.11235
H         38.09389        57.20323        -1.25212
H         43.01566        15.05138        -1.51220
H         42.67968        58.39252        -1.01151
H         45.04007        16.16684        -0.72373
H         44.81042        57.16802        -0.85273
H         48.71850        18.18609         0.24375
H         46.59663        16.98999         0.09980
H         48.38548        55.01989         0.25718
H         46.27712        56.19639        -0.00055
H         50.25184        19.17766         0.88114
H         50.11317        54.09843         0.19681
H         52.15681        20.38318         1.76621
H         52.24250        52.91753         0.25882
H         55.71548        22.50074         2.96230
H         53.73654        21.29976         2.07734
H         56.04137        50.75657        -0.33339
H         53.94827        51.99015        -0.18370
H         58.18976        23.82453         2.20131
H         57.71017        49.80277        -0.60972
H         59.75980        24.64387         0.41472
H         60.67826        26.61867        -0.83313
H         60.41396        28.84895        -1.74699
H         60.52773        30.84732        -1.65516
H         60.64019        33.28785        -1.67119
H         60.75854        35.20500        -1.48197
H         60.82829        37.63029        -1.45326
H         60.90114        39.53127        -1.28774
H         60.94169        41.96064        -1.30753
H         60.94044        43.91366        -1.41700
H         60.94550        46.35140        -1.37644
H         59.77722        48.55166        -0.97279
