         651
 CSIRO Nanostructure Databank - Neutral Graphene Oxide Data Set
C          5.95580        31.65595         0.10212
C          5.98570        33.01057         0.10078
C          8.40971        27.27441         0.62197
C          8.36293        28.71303         0.71060
C          7.19667        29.40832         0.44983
C          8.41726        31.63945         0.68938
C          7.19584        30.87085         0.25170
C          8.37321        33.11248         0.82888
C          7.19255        33.78467         0.36505
C          8.39034        35.91132         0.52280
C          7.20330        35.17022         0.25885
C          8.45896        37.29480         0.28194
C         10.88750        23.03531         0.59880
C         10.84124        24.44176         0.75076
C          9.63658        25.13756         0.71369
C         10.75422        27.25933         1.41820
C          9.56697        26.55785         0.86509
C         10.73612        28.73110         1.41320
C          9.60345        29.41270         1.05211
C         10.70758        31.64651         1.82052
C          9.52381        30.87577         1.32625
C         10.63559        33.18116         1.99868
C          9.50765        33.82713         1.21246
C         10.77155        35.97126         1.18874
C          9.55721        35.24050         1.01544
C         10.81514        37.38291         1.01670
C          9.61213        38.06181         0.54328
C         10.40494        40.43023         0.56095
C          9.54314        39.43249         0.10927
C         10.76760        41.65818        -0.01734
C         13.37978        18.97680        -0.45423
C         13.33157        20.22945         0.14980
C         12.12474        20.95340         0.24151
C         13.30436        22.94738         1.19291
C         12.07711        22.28976         0.66739
C         13.32641        24.43396         1.22639
C         12.13953        25.21940         0.72772
C         13.35658        27.28099         1.60754
C         12.08381        26.53282         1.49167
C         13.23033        28.70114         2.13639
C         12.03409        29.45033         1.55235
C         13.26833        31.66187         2.02729
C         12.02562        30.94399         1.67500
C         13.18520        33.12826         2.18132
C         11.95851        33.87719         1.77477
C         13.32320        35.84025         1.10518
C         11.99166        35.21297         1.47432
C         13.33999        37.35388         1.08095
C         12.09889        38.06276         1.13134
C         13.33373        40.23617         0.95661
C         12.19322        39.46501         1.27547
C         13.26738        41.62443         0.59239
C         12.03002        42.29186         0.19403
C         13.30801        44.34334        -0.32365
C         12.09721        43.65719        -0.18057
C         13.34626        45.76118        -0.47576
C         15.53210        14.97215        -2.40999
C         15.37443        15.99425        -1.47681
C         14.40720        17.00493        -1.32598
C         15.85541        18.88033        -0.30315
C         14.57698        18.22549        -0.62228
C         15.86413        20.23692         0.13124
C         14.60338        20.81274         0.63562
C         15.87510        23.01263         1.09706
C         14.61816        22.21348         1.16649
C         15.75722        24.40292         1.55637
C         14.62166        25.16166         1.29320
C         15.79667        27.38156         1.18302
C         14.59647        26.62807         1.37634
C         15.80543        28.78900         1.63463
C         14.53507        29.49536         2.05643
C         15.72305        31.72847         2.11917
C         14.47331        30.99270         2.05256
C         15.73525        33.10027         2.21462
C         14.48104        33.87752         2.31405
C         15.81896        35.85465         1.41347
C         14.48724        35.38154         2.02150
C         15.82492        37.35299         1.21353
C         14.56053        38.04544         1.04860
C         15.78077        40.17853         0.77106
C         14.58744        39.50063         0.91096
C         15.81275        41.68970         0.79984
C         14.50831        42.31560         0.34561
C         15.76654        44.23306        -0.70476
C         14.53266        43.60741        -0.17480
C         15.73770        45.72383        -1.12597
C         14.50730        46.50164        -0.72378
C         15.36659        48.84401        -0.95630
C         14.45380        47.90461        -0.43158
C         15.78266        50.11464        -0.55719
C         18.33483        11.05026        -3.15304
C         18.34907        12.45197        -3.13417
C         17.08871        13.14402        -3.11925
C         17.98192        15.38143        -2.66447
C         16.85804        14.45900        -2.67348
C         18.30052        16.47965        -1.85011
C         17.30270        16.92470        -0.94648
C         18.29843        19.09389        -0.64245
C         17.12680        18.29555        -0.60687
C         18.24211        20.44671        -0.30331
C         17.03504        21.04937         0.12808
C         18.26938        23.26241         0.29429
C         17.02328        22.47409         0.51831
C         18.31193        24.74322         0.26960
C         17.11061        25.52639        -0.15965
C         18.26632        27.63445         0.68602
C         16.95171        27.01120         0.23847
C         18.28063        28.92214         1.13755
C         16.96120        29.68168         1.20692
C         18.30116        31.64241         2.15214
C         16.99369        30.93632         2.06287
C         18.26852        33.13364         2.11833
C         16.99521        33.85671         2.40127
C         18.29331        36.05469         1.98094
C         17.01422        35.34571         2.19444
C         18.30000        37.34242         1.48080
C         17.03735        38.00761         1.14259
C         18.32981        40.15850         0.52778
C         17.04196        39.42098         0.69734
C         18.32383        41.64395         0.40244
C         17.06344        42.30924         0.18714
C         18.33500        44.16588        -0.81503
C         17.05167        43.55155        -0.41643
C         18.34452        45.66303        -1.19618
C         17.06512        46.39234        -1.23151
C         18.32014        48.53565        -1.36658
C         17.15404        47.72643        -1.53941
C         18.22004        49.96706        -1.35375
C         17.01603        50.71822        -1.02113
C         18.27001        52.83653        -1.31994
C         17.11965        52.12526        -0.91723
C         18.36866        54.28823        -1.24003
C         20.45890         6.59561        -2.52594
C         20.56587         8.01966        -2.72868
C         19.42816         8.81906        -2.98966
C         20.77529        10.84911        -2.78177
C         19.50690        10.22869        -2.98434
C         20.81490        12.31501        -2.44089
C         19.64378        13.11994        -2.96312
C         21.08659        15.26071        -2.94441
C         19.84035        14.45275        -3.16973
C         20.92734        16.63405        -2.24345
C         19.58131        17.26742        -1.89436
C         20.73958        19.07436        -0.61997
C         19.58399        18.47494        -1.00607
C         20.65931        20.36630         0.18690
C         19.52984        21.20527        -0.42783
C         20.77328        23.27818         0.01860
C         19.46018        22.59970         0.09615
C         20.79782        24.76433         0.17342
C         19.49342        25.44549         0.32552
C         20.80865        27.54418         0.81500
C         19.53993        26.95728         0.21629
C         20.78836        28.91269         1.17632
C         19.54611        29.62796         1.34148
C         20.77721        31.71769         1.76823
C         19.55012        30.98146         1.69731
C         20.80221        33.12873         2.05736
C         19.54161        33.89519         2.05925
C         20.80942        36.05585         2.05553
C         19.54308        35.36240         2.48183
C         20.75222        37.46547         1.76325
C         19.56066        38.07816         1.42447
C         20.74287        40.30662         1.32231
C         19.65286        39.42887         0.73392
C         20.75100        41.75804         0.90575
C         19.53106        42.33764         0.30538
C         20.80021        44.36700        -0.39070
C         19.59326        43.64519        -0.26245
C         20.80888        45.72578        -0.82786
C         19.60023        46.42063        -1.06611
C         20.75414        48.61797        -1.23205
C         19.56092        47.85437        -1.21510
C         20.70319        49.99484        -1.44333
C         19.44355        50.68930        -1.51968
C         20.60935        52.80207        -2.18600
C         19.40940        52.09695        -1.70029
C         20.53091        54.29233        -2.49082
C         19.46224        54.98984        -1.67655
C         20.59893        57.14086        -2.10566
C         19.54596        56.43523        -1.60427
C         20.56775        58.65197        -2.20444
C         22.42215         3.78005        -1.07257
C         21.37400         4.45837        -1.67447
C         22.88493         6.38821        -2.01800
C         21.52559         5.81286        -2.10451
C         23.03329         7.86668        -2.27757
C         21.82509         8.66303        -2.57474
C         23.33418        10.65093        -2.72187
C         21.92915        10.06969        -2.63391
C         23.40437        12.16914        -2.71134
C         22.13338        12.99878        -2.74876
C         23.41865        15.09356        -2.13079
C         22.16937        14.40264        -2.35762
C         23.28193        16.38802        -1.38445
C         22.14050        17.12820        -1.49835
C         23.01591        18.84930         0.23532
C         22.11079        18.56213        -0.98364
C         23.17123        20.36198         0.36572
C         21.98922        21.10050         0.25985
C         23.23079        23.20935         0.52140
C         22.01587        22.51569         0.29303
C         23.24128        24.65651         0.67531
C         22.05775        25.40953         0.58091
C         23.27584        27.47357         1.14581
C         22.02657        26.81443         0.85390
C         23.27547        28.87985         1.35956
C         22.02615        29.60115         1.40337
C         23.24422        31.75096         1.75291
C         21.98859        31.00057         1.59755
C         23.15561        33.21102         1.54349
C         21.98696        33.88888         1.93848
C         23.23060        36.04644         1.53109
C         21.99041        35.34577         1.89896
C         23.23778        37.41793         1.40765
C         22.06070        38.20846         1.91004
C         23.21034        40.34313         1.32324
C         22.04382        39.64192         1.45913
C         23.21382        41.73869         0.94566
C         22.04525        42.39597         0.66136
C         23.20853        44.55760         0.42670
C         22.13135        43.66415        -0.15067
C         23.29589        45.90263        -0.11982
C         22.10749        46.46729        -0.88244
C         23.08873        48.77778        -0.42238
C         22.11277        47.95406        -1.26882
C         23.10478        50.20820        -0.91927
C         21.95194        50.75662        -1.39193
C         23.10722        53.00038        -1.73375
C         21.92244        52.13033        -1.93244
C         23.07974        54.35229        -2.34922
C         21.88497        55.00224        -2.48040
C         23.11195        57.27317        -2.64794
C         21.80997        56.47598        -2.65034
C         23.10737        58.63298        -2.06053
C         21.88948        59.30112        -1.84102
C         23.11075        61.22899        -0.99443
C         21.90018        60.59961        -1.30973
C         23.66929         4.39127        -0.81083
C         25.14435         6.37439        -0.91555
C         23.92913         5.70829        -1.21274
C         25.31963         7.76354        -1.09942
C         24.14656         8.54891        -1.54836
C         25.58785        10.65047        -1.50371
C         24.27063        10.02430        -1.70870
C         25.71651        12.02261        -1.74827
C         24.63558        12.79957        -2.22851
C         25.83401        14.79983        -1.32091
C         24.69904        14.25488        -2.07702
C         25.64792        16.00656        -0.48030
C         24.26750        16.62041        -0.23846
C         25.60763        18.82275         0.56273
C         24.33371        18.08462         0.26284
C         25.65367        20.30941         0.61624
C         24.42412        21.03416         0.55021
C         25.68152        23.13690         0.97224
C         24.44328        22.46424         0.66575
C         25.66866        24.56349         1.17085
C         24.48748        25.31250         1.00621
C         25.75604        27.43760         1.35228
C         24.50249        26.74509         1.17713
C         25.74669        28.86321         1.46783
C         24.52914        29.54384         1.51926
C         25.84832        31.67921         1.72084
C         24.53524        30.99790         1.77991
C         26.04386        32.85268         1.07125
C         24.16988        33.94995         0.90892
C         25.71804        35.91442         0.64459
C         24.38232        35.30316         1.08732
C         25.75474        37.38853         1.00318
C         24.46443        38.10634         0.97331
C         25.76397        40.27273         1.29599
C         24.47918        39.60604         1.08161
C         25.65295        41.75293         1.60636
C         24.55242        42.41729         0.72804
C         25.66914        44.72845         1.27072
C         24.40638        43.92095         1.01264
C         25.65329        46.20931         0.95526
C         24.41140        46.80380         0.33397
C         25.62152        48.82442        -0.49014
C         24.46236        48.14360        -0.31223
C         25.56595        50.15841        -1.22687
C         24.38721        50.97321        -0.68556
C         25.65202        53.04507        -1.61864
C         24.37505        52.39866        -1.22827
C         25.64369        54.34201        -2.08483
C         24.39276        55.02154        -2.50435
C         25.66087        57.22497        -2.25537
C         24.41581        56.52960        -2.66526
C         25.59101        58.56272        -1.87044
C         24.34234        59.25600        -1.71896
C         24.31825        60.56944        -1.19079
C         26.50400         8.45466        -0.78788
C         27.88127        10.51575        -0.63035
C         26.67288         9.85864        -0.98400
C         28.08551        11.89651        -0.84830
C         27.09168        12.65880        -1.69905
C         28.25075        14.76377        -0.91744
C         27.04190        14.10623        -1.27655
C         28.09012        16.27388        -0.98727
C         26.91043        16.71818        -0.13645
C         28.19737        18.84328         0.54485
C         26.91502        18.09837         0.44791
C         28.17021        20.31013         0.69767
C         26.88765        20.99073         0.79610
C         28.17162        22.95813         1.64175
C         26.88625        22.39617         1.04424
C         28.18692        24.48245         1.78247
C         26.90808        25.25907         1.58998
C         28.23445        27.39784         1.73186
C         26.98151        26.72577         1.47121
C         28.25532        28.78257         1.85774
C         27.06151        29.62335         1.50533
C         28.25266        31.75437         2.36169
C         26.97234        30.91186         2.36598
C         28.26788        33.20475         1.98616
C         27.07209        33.81837         1.36407
C         28.20485        35.96767         1.28969
C         26.98270        35.17992         1.14008
C         28.19375        37.35242         1.20137
C         26.93657        38.08770         1.14740
C         28.20713        40.28252         1.13178
C         26.92434        39.54745         1.31769
C         28.20439        41.77275         0.98445
C         26.98885        42.51126         1.46510
C         28.29384        44.74392         1.06104
C         27.00075        44.00661         1.36160
C         28.28452        46.24533         0.88259
C         26.95474        46.98563         0.79478
C         28.18214        48.95569        -0.41940
C         26.90353        48.31716         0.07629
C         28.07208        50.11509        -1.36605
C         26.85676        50.93855        -1.24322
C         28.13952        52.93940        -1.93028
C         26.88231        52.27790        -1.57329
C         28.10818        54.35183        -2.14896
C         26.89988        55.06705        -2.22516
C         26.87027        56.48727        -2.25449
C         29.21266        12.57784        -0.38901
C         30.66229        14.54197        -0.13715
C         29.40749        14.00356        -0.54307
C         31.08929        15.87839        -0.36628
C         29.32015        17.06696        -0.73605
C         30.69663        18.88028         0.19673
C         29.42437        18.21904        -0.01565
C         30.66178        20.26437         0.50012
C         29.40069        20.97782         0.70707
C         30.63632        23.07407         1.09814
C         29.43292        22.37743         1.03146
C         30.65484        24.47803         1.46946
C         29.48871        25.20402         1.69969
C         30.71930        27.34647         1.84944
C         29.50343        26.64911         1.82921
C         30.78308        28.79660         1.80293
C         29.51629        29.50811         2.11732
C         30.75386        31.75686         1.87691
C         29.55320        31.00685         2.31398
C         30.75173        33.12901         1.66560
C         29.53433        33.90132         1.70490
C         30.71859        35.95733         1.12504
C         29.48431        35.25666         1.42149
C         30.71307        37.35379         0.96352
C         29.49279        38.06159         1.53005
C         30.71018        40.29843         0.81295
C         29.50590        39.57431         1.30890
C         30.64769        41.77026         0.52311
C         29.48399        42.52298         0.80178
C         30.68138        44.57146         0.23716
C         29.49910        43.93441         0.68120
C         30.76276        46.04873         0.08364
C         29.56079        46.90816         0.36375
C         30.65464        48.74606        -1.10674
C         29.50546        48.27444        -0.27142
C         30.61138        49.99529        -1.67747
C         29.34988        50.75608        -1.83193
C         29.31927        52.20435        -2.03372
C         31.99285        16.68234         0.30952
C         33.12675        18.86208         0.37462
C         31.94080        18.13885         0.22767
C         33.13242        20.27810         0.45460
C         31.88544        20.98560         0.59832
C         33.12720        23.08558         0.82397
C         31.89072        22.38841         0.83462
C         33.18207        24.47982         1.11537
C         31.96647        25.12396         1.63953
C         33.25359        27.34437         1.52515
C         32.00581        26.62791         1.87594
C         33.29638        28.81855         1.87463
C         31.95635        29.50098         1.70755
C         33.25225        31.71335         1.75870
C         31.95722        30.98165         1.38655
C         33.19672        33.14414         1.24686
C         31.97619        33.82554         1.27532
C         33.11770        35.90722         0.57892
C         31.93171        35.22305         0.98075
C         33.06476        37.31604         0.27145
C         31.86905        38.03193         0.50563
C         33.01413        40.20981        -0.23546
C         31.70603        39.46633         0.01929
C         33.13779        41.64523         0.27016
C         31.84542        42.42180         0.18545
C         33.06556        44.45695        -0.52826
C         31.85084        43.81603        -0.02400
C         33.02387        45.78355        -0.93861
C         31.86628        46.60130        -0.75436
C         31.81014        47.89605        -1.23629
C         34.34455        20.99168         0.41215
C         35.56810        23.12657         0.45702
C         34.36103        22.39448         0.54730
C         35.59862        24.52630         0.61386
C         34.36772        25.20800         0.97077
C         35.60062        27.37277         0.71219
C         34.37423        26.64651         1.14414
C         35.62059        28.85749         0.77222
C         34.43333        29.58983         1.25094
C         35.64539        31.68486         0.85446
C         34.44659        30.95090         1.23625
C         35.62184        33.05988         0.74401
C         34.37853        33.81433         0.83485
C         35.51572        35.81186        -0.21108
C         34.32813        35.17549         0.46679
C         35.49549        37.31948        -0.21015
C         34.29135        37.98941        -0.13110
C         35.57490        40.18972        -0.36081
C         34.28666        39.44965        -0.36608
C         35.54338        41.58153        -0.46305
C         34.33624        42.33645        -0.33942
C         34.26086        43.67613        -0.67474
C         36.82111        25.23122         0.49163
C         38.08490        27.34499         0.56420
C         36.89669        26.64505         0.61886
C         38.19332        28.80654         0.92301
C         36.90714        29.57796         0.77047
C         38.13936        31.67946         0.47449
C         36.90343        30.95231         0.72871
C         38.13848        33.06265         0.37374
C         36.88931        33.80612         0.61857
C         38.06089        35.92436        -0.24697
C         36.83883        35.25794         0.26639
C         37.97529        37.27889        -0.54526
C         36.74936        38.02216        -0.42939
C         36.76429        39.42380        -0.46446
C         39.35697        29.54365         0.31321
C         40.52565        31.66272        -0.19759
C         39.34788        30.91537         0.19701
C         40.50906        33.02203        -0.30266
C         39.30791        33.78799        -0.06114
C         39.26057        35.16018        -0.32991
O         24.64836        46.88041         1.76868
O         21.34542        52.14093        -3.27998
O         24.78193        44.36765         2.36723
O         13.05464        23.67176         2.45187
O         32.14881        25.68803         2.99052
O         22.32719        57.10086        -3.86710
O         20.44621        41.32260         2.30691
O         13.69328        33.57207         3.51000
O         15.47815        28.97553         3.06296
O         30.42085        16.56193        -1.42736
O         18.79425        33.60953         0.82157
O         14.64886        21.07736         2.09071
O         11.21870        26.60185         2.65834
O          9.75612        31.05705         2.77487
O         18.42404        44.59516        -2.20298
O         28.53195        45.66403         2.18478
O         17.65987        39.58463        -0.66839
O         28.15625        32.77848         3.40859
O         12.24699        30.27056         0.35929
O         15.54430        44.66080        -2.09635
O         27.39871        24.85692         2.96369
O         35.35668        28.14854        -0.53012
O         36.95009        34.87947         1.66353
O         26.90886        48.22530         1.54016
O         26.37486        15.74989         0.79856
O         23.62814         9.47425        -0.51689
O         28.05505        40.93386        -0.20636
O         18.80794        15.19280        -3.77738
O         29.67897        30.11396         3.47395
O         27.64892        18.12910         1.72195
O         25.07760        33.23545         0.12330
O         30.63290        46.80342         1.34248
O         24.34755        38.94691        -0.23838
O          8.25745        31.26370        -0.72053
O         17.72908        30.94790         3.31749
O         33.50067        39.91500        -1.57285
O         11.07783        40.13560         1.76856
O         23.42586         6.90970        -3.29321
O         16.89359        34.78319         3.54670
O         23.51365        53.19435        -0.31605
O         29.07898        49.30377         0.68215
O         20.89664        24.13871        -1.18148
O         22.85500        12.66715        -3.98510
O         28.44822        49.92484        -2.76996
O         16.40157        16.00282        -0.47709
O         24.82140        18.17181         1.64418
O         24.57690        55.66612        -3.81764
O         16.04213        48.35265        -2.08928
O         23.87885        31.37357         3.05796
O         24.39464        15.09642        -3.24946
O         16.35088        25.07910        -1.01510
O         27.22215        43.31824         2.64641
O         20.26467        17.57244        -3.15967
O         23.18126        45.81199        -1.64600
O         30.51043        40.12986         2.25574
O         22.58482        43.22889        -1.49356
H         22.76534        44.06546        -1.99645
O         20.17479        39.13451        -0.59354
H         19.40063        38.89982        -1.15784
O         23.85831        10.23178        -4.00974
H         23.47363        10.83546        -4.68508
O         27.70143        16.61098        -2.36335
H         28.45819        16.37738        -2.94388
O         15.93255        42.03287         2.23214
H         15.12612        41.70354         2.68425
O         21.56527        15.59832        -4.28441
H         21.00122        16.33962        -4.60207
O         16.81940        24.93104         2.22481
H         16.57679        25.82082         2.56679
O         25.28180        49.89606        -2.62454
H         26.12054        49.65829        -3.07692
O         16.06033        35.23975         0.12587
H         15.31127        35.45735        -0.47796
O         12.38343        25.55257        -0.66859
H         13.28704        25.92912        -0.73692
O         20.74544        12.36458        -0.97414
H         19.96580        11.84140        -0.69082
O         22.27840        38.28808         3.36843
H         21.57148        38.85311         3.74840
O         25.74315        35.84886        -0.80987
H         25.60998        34.90532        -1.05433
O         24.57826        51.05740         0.74687
H         24.07157        51.84306         1.05515
O         13.53506        35.37625        -0.26741
H         12.78350        35.69895        -0.80851
O         31.90315        31.03952        -0.07842
H         31.10119        30.56332        -0.37942
O         33.42990        41.52045         1.69977
H         32.58454        41.43324         2.19157
O         19.52450        35.40000         3.93692
H         18.60111        35.18928         4.22454
O         19.50523        59.20384        -1.42950
H         19.70053        59.05562        -0.48198
O         38.47458        28.79545         2.38472
H         38.60906        29.72706         2.66316
O         26.67925        30.51636         3.70136
H         26.89026        31.27399         4.28936
O         28.19064        22.42160         3.00193
H         27.69414        23.06580         3.56050
O         20.24334        20.07301         1.53808
H         20.87889        19.39547         1.88319
O         12.90700        28.59777         3.54837
H         13.73495        28.34104         4.01329
O         16.68604        30.19018        -0.12117
H         16.63706        29.41868        -0.73873
O         33.56980        28.84853         3.31601
H         32.79668        28.46203         3.78125
O         10.31769        33.43818         3.39447
H          9.77579        32.67649         3.70950
O         27.60506        12.59501        -3.06526
H         26.94585        13.02300        -3.65261
O         22.60876        19.36352        -2.08681
H         21.97670        19.25904        -2.83231
O         25.22711        41.79483         2.97511
H         25.42595        42.70190         3.31694
O         35.45035        35.41196        -1.62383
H         34.62893        35.78807        -2.00532
O         24.98107        42.29013        -0.63987
H         24.18336        42.44114        -1.21453
O         22.58022        48.05417        -2.63004
H         22.07204        47.42694        -3.18407
O         22.56937        48.77946         0.92923
H         23.24409        49.20487         1.50421
O         19.79957        21.35827        -1.85481
H         20.20111        22.24131        -2.01311
O         23.68477        15.85439         0.84494
H         24.35425        15.85570         1.56792
O         31.03788        39.33900        -1.26770
H         31.74986        39.28071        -1.94901
O         20.07082        54.39754        -3.86633
H         20.59989        53.75458        -4.39005
O         14.32855        36.07979         3.26592
H         13.91765        35.44927         3.90365
O         16.63578        27.63416        -1.06528
H         16.09730        26.96569        -1.55672
O         29.59562        37.87074         2.97680
H         30.23951        38.53734         3.31026
O         33.31891        31.77333         3.19968
H         34.18824        32.14300         3.45745
O         22.27677        18.35688         1.38668
H         22.94340        18.20733         2.09813
O         27.32593        30.11360         0.14045
H         27.22650        29.35723        -0.47614
O         19.61878        27.25907        -1.21904
H         18.69988        27.34995        -1.56053
H          5.00544        31.11880        -0.03366
H          5.05557        33.57430        -0.06706
H          7.50774        26.74403         0.28062
H          6.26920        28.85256         0.24458
H          6.30266        35.70437        -0.07819
H          7.57016        37.80473        -0.11870
H          9.94953        22.50346         0.37440
H          8.69954        24.57959         0.56125
H          8.79469        39.68051        -0.65853
H         10.07829        42.13675        -0.72969
H         12.43895        18.53422        -0.81479
H         11.20362        20.48430        -0.13619
H         11.15697        44.19343        -0.37638
H         12.40597        46.30929        -0.31081
H         14.68837        14.61045        -3.01411
H         13.43354        16.85186        -1.81625
H         13.64178        48.24967         0.22753
H         15.16956        50.69433         0.14973
H         17.36739        10.53744        -3.26888
H         16.19962        12.49835        -3.20538
H         16.24141        52.69123        -0.57218
H         17.53529        54.82979        -0.76569
H         19.46040         6.13795        -2.59894
H         18.45196         8.33503        -3.14237
H         18.68780        56.98570        -1.18690
H         20.34695        58.90437        -3.27874
H         22.26651         2.74393        -0.73990
H         20.39822         3.96600        -1.79536
H         23.10342        62.24873        -0.58523
H         20.94551        61.11915        -1.14698
H         24.43651         3.83303        -0.25519
H         25.96159         5.79328        -0.46069
H         26.51493        59.08799        -1.58562
H         25.26692        61.06056        -0.93181
H         27.36108         7.88117        -0.40236
H         28.66330         9.93899        -0.11186
H         29.05889        54.88821        -2.28711
H         27.81810        57.03211        -2.12622
H         30.00669        12.00608         0.11750
H         31.33007        13.87948         0.43486
H         31.50219        50.37683        -2.20061
H         30.26802        52.72895        -2.22291
H         32.72958        16.23641         0.99429
H         34.08843        18.32893         0.38709
H         33.91006        46.22963        -1.41487
H         32.66743        48.28596        -1.80603
H         35.28898        20.44873         0.26130
H         36.50339        22.58852         0.24233
H         36.47857        42.12164        -0.67825
H         35.15089        44.17483        -1.08903
H         37.74480        24.65965         0.31364
H         39.02675        26.78585         0.44624
H         38.88605        37.82683        -0.83245
H         37.72780        39.94715        -0.55865
H         40.28689        28.98711         0.11824
H         41.44978        31.10389        -0.40637
H         41.41794        33.56127        -0.60818
H         40.17522        35.65967        -0.68553
