         234
 CSIRO Nanostructure Databank - Neutral Graphene Oxide Data Set
C          1.34223         2.06694        -0.74557
C          1.30285         3.43825        -0.83819
C          2.55773         1.34754        -0.73339
C          2.48245         4.23193        -1.20111
C          1.30373         6.35986        -0.35644
C          1.23294         7.72551        -0.22861
C          2.41618         5.72126        -1.00725
C          2.34800         8.58856        -0.51812
C          1.15838        10.67222         0.20421
C          1.13213        12.02278         0.35694
C          2.33691         9.96543        -0.23824
C          2.35644        12.83849         0.25698
C          1.13111        15.12034         0.87745
C          1.19557        16.43912         1.12097
C          2.34192        14.31703         0.54561
C          2.46498        17.26059         1.19210
C          2.50311        18.31695         0.07610
C          3.79416         2.00809        -0.80491
C          3.82823         3.43287        -1.22913
C          4.97832         1.33937        -0.41807
C          5.27750         3.99530        -1.34399
C          3.42373         6.56629        -1.43347
C          3.56031         7.93592        -0.99311
C          5.36254         5.48456        -1.39433
C          4.81933         8.52912        -0.86832
C          3.57704        10.74377        -0.36792
C          3.64347        12.09884         0.23250
C          4.87855         9.97815        -0.60361
C          4.88818        12.72038         0.46389
C          3.61879        14.90978         1.05140
C          3.70444        16.37677         1.13793
C          4.90636        14.12261         0.99925
C          4.93426        16.95224         1.22969
C          3.56905        19.05595        -0.31831
C          4.91865        18.89835         0.21860
C          6.19099         2.02967        -0.13743
C          6.20290         3.42854        -0.32283
C          7.37888         1.35887         0.32213
C          7.25633         4.21188         0.41949
C          6.19246         6.29645        -0.71922
C          6.11639         7.77899        -0.96003
C          7.24772         5.79825         0.25842
C          7.40408         8.53586        -0.82873
C          6.13099        10.54043         0.04485
C          6.10314        12.03719         0.25607
C          7.37478        10.07626        -0.74487
C          7.39002        12.66264         0.60625
C          6.16538        14.89995         0.92136
C          6.18631        16.28982         0.93232
C          7.41596        14.14535         0.96209
C          7.38905        17.05209         0.59313
C          6.11902        19.04530        -0.40160
C          7.35674        18.41296         0.09919
C          8.60277         2.04451         0.35930
C          8.57628         3.50754         0.08780
C          9.85955         1.41279         0.47658
C          9.86184         4.27537         0.19144
C          8.60553         6.42846        -0.08903
C          8.63262         7.80174        -0.38861
C          9.82726         5.75554         0.17776
C          9.85716         8.51353        -0.34658
C          8.65555        10.68369        -0.21660
C          8.67247        12.01736         0.21576
C          9.86302         9.95609        -0.32967
C          9.91186        12.71291         0.33841
C          8.69015        14.93015         0.93955
C          8.63964        16.37384         0.59838
C          9.97502        14.16267         0.68936
C          9.84605        17.04783         0.29775
C          8.55938        19.08834        -0.10652
C          9.82851        18.46478         0.06451
C         11.07682         2.14236         0.56397
C         11.06844         3.54471         0.57722
C         12.35387         1.44326         0.70667
C         12.26742         4.30816         0.96427
C         11.05058         6.43985         0.15319
C         11.07634         7.83075        -0.08756
C         12.29527         5.77991         0.62064
C         12.33094         8.53614        -0.13976
C         11.09593        10.64627        -0.24861
C         11.09657        12.04399        -0.00668
C         12.32739         9.90925        -0.32620
C         12.38873        12.75925        -0.03578
C         11.13234        14.95114         0.24094
C         11.09564        16.33789         0.15038
C         12.40244        14.24524         0.04912
C         12.32809        17.07760        -0.07704
C         11.04231        19.17762        -0.03036
C         12.30291        18.51583        -0.02575
C         13.52995         2.08022         0.91959
C         13.58119         3.56413         1.22711
C         14.81016         1.30508         1.19010
C         14.76261         4.25628         0.54969
C         13.59199         6.46488         0.37150
C         13.59506         7.82443        -0.01636
C         14.80403         5.75307         0.49582
C         14.83043         8.49139        -0.27295
C         13.57195        10.60727        -0.68686
C         13.56717        12.10664        -0.68319
C         14.86202         9.90386        -0.61559
C         14.85285        12.83541        -0.65437
C         13.51069        14.95848        -0.68089
C         13.55148        16.41536        -0.30368
C         14.83058        14.23166        -0.57953
C         14.78268        17.10530        -0.29424
C         13.53010        19.21310        -0.02635
C         14.77195        18.53109        -0.08354
C         16.06912         2.00801         0.70842
C         16.02624         3.47646         0.44657
C         17.22323         1.36347         0.43444
C         17.30767         4.22264         0.68086
C         16.03076         6.42473         0.29378
C         16.04024         7.78117        -0.08671
C         17.30609         5.70823         0.57769
C         17.30639         8.42991        -0.49370
C         16.03840        10.62360        -0.78486
C         16.07835        12.08605        -0.78405
C         17.30316         9.87362        -0.92303
C         17.28053        12.79068        -0.88363
C         16.02700        14.98554        -0.63138
C         16.02977        16.39666        -0.45235
C         17.26806        14.25632        -0.91194
C         17.27017        17.09376        -0.26213
C         16.00584        19.20396         0.06391
C         17.23679        18.50583         0.04755
C         18.41035         2.13245        -0.12440
C         18.60927         3.43122         0.67285
C         19.70805         1.35675        -0.15537
C         19.81009         4.22337         0.17361
C         18.62046         6.42001         0.41923
C         18.60276         7.84239        -0.04502
C         19.85329         5.63070         0.16458
C         19.86790         8.50665        -0.44037
C         18.61001        10.60959        -1.01664
C         18.59444        12.11926        -1.05390
C         19.86644         9.90087        -0.67357
C         19.84372        12.83431        -0.67794
C         18.59904        15.01612        -0.71649
C         18.51091        16.40926        -0.25294
C         19.82788        14.23218        -0.45522
C         19.70837        17.06735         0.13973
C         18.44446        19.16966         0.35049
C         19.66745        18.47488         0.42552
C         20.88548         2.01203        -0.18953
C         20.95981         3.47363        -0.15768
C         22.15165         4.15176        -0.47070
C         21.04908         6.31391        -0.19578
C         21.07556         7.78001        -0.33518
C         22.19372         5.54225        -0.48523
C         22.28158         8.50867        -0.43935
C         21.07792        10.63194        -0.63485
C         21.05001        12.09909        -0.54264
C         22.28031         9.89446        -0.53062
C         22.21535        12.81096        -0.17703
C         20.99669        14.91964        -0.04851
C         20.95580        16.36236         0.20918
C         22.18849        14.17244         0.07802
C         22.10984        17.07699         0.54831
C         20.87375        19.15133         0.76696
C         22.06644        18.45819         0.82237
O          3.09022         3.72631        -2.44224
O         18.71539        11.33519        -2.29104
O          9.55950        14.55908         2.04769
O          4.98307        18.33168         1.51298
O          6.94614         6.37044         1.50480
O         12.06464         5.32032         2.02081
O          4.27439        10.74467        -1.67896
O          6.93513         8.11052        -2.16001
O         12.79174        13.43277         1.20826
O          7.40348        13.12536         2.01440
O         17.21989         5.03545         1.89839
O          9.26971         3.82755        -1.13368
O         18.68721         7.52262         1.39204
O          4.42574         6.07458        -2.27514
O         18.03792        14.81084        -2.04609
O          4.14571        14.24659         2.25625
O         17.27420         8.78249        -1.91354
O         15.22515         3.75412        -0.75856
O         13.33874        11.39980        -1.93044
O          2.36050        13.88022        -0.84881
O          2.43124        17.96448         2.45288
H          3.30432        18.41055         2.55140
O          7.25693        10.61649        -2.07609
H          6.98150         9.87115        -2.66584
O         14.73862        -0.01578         0.65684
H         14.69451         0.05013        -0.31888
O         18.89425         3.04817         2.03387
H         18.64096         3.81153         2.60232
O          6.17148         9.94447         1.36644
H          6.83311        10.41723         1.91516
O         18.09411         2.54130        -1.48138
H         17.91612         1.73908        -2.01402
O          5.72979         3.48341        -2.63277
H          5.05413         3.76717        -3.28959
O         13.11795        14.90546        -2.09010
H         13.83992        15.29946        -2.62392
O         13.86746         3.63540         2.64780
H         13.36476         4.40882         3.00122
O          7.04633         3.93797         1.82123
H          6.90120         4.85439         2.21760
H          0.40798         1.51739        -0.56198
H          0.34332         3.94814        -0.67720
H          2.53988         0.26858        -0.52206
H          0.44975         5.75874        -0.01687
H          0.31599         8.16168         0.18906
H          0.22075        10.11204         0.32531
H          0.18260        12.52704         0.58504
H          0.14953        14.62358         0.83666
H          0.26381        16.98887         1.32624
H          1.54783        18.50235        -0.44208
H          4.91264         0.26622        -0.17958
H          3.44238        19.75330        -1.16256
H          7.35322         0.26808         0.46467
H          6.18399        19.57501        -1.36431
H          9.89958         0.31664         0.56745
H          8.53079        20.13376        -0.44788
H         12.35107         0.34615         0.60920
H         11.01526        20.27391        -0.11856
H         14.89022         1.19926         2.30796
H         13.52699        20.31042         0.05117
H         17.29339         0.27225         0.56869
H         16.00963        20.28644         0.26011
H         19.67615         0.25775        -0.21706
H         18.42508        20.24830         0.56606
H         21.83124         1.45507        -0.27563
H         23.05353         3.57599        -0.72375
H         23.13296         6.03943        -0.76318
H         23.24699         7.98844        -0.37673
H         23.24754        10.41449        -0.53628
H         23.16832        12.27924        -0.05767
H         23.12073        14.66451         0.38451
H         23.08123        16.56852         0.60559
H         20.84143        20.22873         0.98247
H         22.99647        18.98158         1.08399
