         619
 CSIRO Nanostructure Databank - Neutral Graphene Oxide Data Set
C          6.20586        31.69595         1.94773
C          6.27375        33.04400         2.13696
C          8.42576        27.35436         0.75633
C          8.35004        28.83476         0.45502
C          7.24001        29.59404         1.16187
C          8.48395        31.74216         0.93652
C          7.29469        30.94669         1.35063
C          8.62613        33.15735         1.30679
C          7.45034        33.82967         1.82955
C          8.67464        35.95357         1.81104
C          7.49552        35.19020         2.07410
C          8.72005        37.30649         2.03340
C         10.77887        23.02769         0.32761
C         10.73067        24.45036         0.30146
C          9.60726        25.18391         0.66383
C         10.86268        27.30429         0.34359
C          9.58878        26.62731         0.59123
C         10.94289        28.72739         0.70700
C          9.67693        29.50844         0.78734
C         11.03613        31.69052         0.77946
C          9.75717        30.98930         0.63155
C         11.06438        33.07681         0.88144
C          9.84104        33.81061         1.14557
C         11.16828        35.96091         1.58685
C          9.87000        35.32285         1.13596
C         11.21005        37.31806         1.88222
C          9.93048        38.08614         1.88588
C         10.74466        40.47036         1.74762
C          9.72635        39.44754         1.69249
C         10.93456        41.63835         1.07009
C         13.20738        18.77521        -0.18779
C         13.21609        20.16390        -0.19833
C         12.00921        20.90551         0.05020
C         13.27284        23.06195         0.09828
C         11.96810        22.30044         0.09649
C         13.16701        24.43673        -0.51544
C         11.89216        25.17564        -0.28151
C         13.22517        27.31354        -0.42982
C         11.98089        26.63839        -0.11271
C         13.24496        28.79889        -0.38361
C         12.24385        29.45140         0.51836
C         13.50077        31.68850         0.22910
C         12.29524        30.93997         0.64943
C         13.54515        33.08441         0.57499
C         12.35075        33.75100         0.92882
C         13.75381        35.79725         1.43187
C         12.39129        35.11865         1.47546
C         13.77954        37.28153         1.59689
C         12.49881        38.00763         1.85567
C         13.54527        40.10558         0.97275
C         12.62537        39.37464         1.92649
C         13.46580        41.63201         0.96289
C         12.23768        42.33466         1.07313
C         13.43654        44.48862         0.88515
C         12.25133        43.74850         1.06469
C         13.48319        45.90973         1.02274
C         15.76781        14.45063        -0.24456
C         15.69232        15.87135        -0.39062
C         14.47931        16.55084        -0.27072
C         15.70235        18.74053        -0.83460
C         14.36621        17.96978        -0.58334
C         15.68924        20.21202        -0.66497
C         14.45766        20.89812        -0.44008
C         15.63314        23.04178        -0.71444
C         14.46322        22.30299        -0.41978
C         15.59694        24.46905        -0.90414
C         14.42543        25.19191        -0.74058
C         15.56378        27.37236        -1.30785
C         14.36794        26.62734        -0.82428
C         15.67752        28.82210        -1.10047
C         14.48658        29.59064        -0.73164
C         15.85588        31.69372        -0.42154
C         14.61122        31.00886        -0.27661
C         15.99700        33.02977        -0.00584
C         14.83767        33.76160         0.50530
C         16.20295        35.84680         0.80052
C         14.90912        35.11485         0.83284
C         16.18505        37.33345         0.65924
C         15.01871        38.05135         1.25102
C         15.86281        40.20149         0.15323
C         14.98153        39.58969         1.20944
C         15.83836        41.68334         0.17751
C         14.64516        42.35881         0.59571
C         15.79164        44.51639         0.11548
C         14.63812        43.78615         0.54179
C         15.80793        45.96524         0.19878
C         14.65046        46.63541         0.76576
C         15.91250        48.75612         0.81195
C         14.74855        48.02700         1.06074
C         16.05238        50.10028         1.25658
C         18.23368        10.16752         0.10049
C         18.16568        11.56013        -0.19529
C         16.98603        12.29530        -0.16621
C         18.20779        14.43120        -0.49922
C         16.97483        13.72628        -0.33562
C         18.20830        15.89571        -0.33673
C         16.93411        16.63107        -0.49289
C         18.20111        18.80291        -0.31315
C         16.95069        17.99668        -0.61411
C         18.16510        20.17264        -0.99924
C         16.88531        20.92198        -0.75098
C         18.09894        23.08831        -0.66783
C         16.89792        22.35191        -0.77036
C         18.06111        24.54622        -0.76833
C         16.85030        25.07335        -1.51395
C         18.13806        27.29367        -1.83603
C         16.80520        26.59334        -1.65583
C         18.10156        28.79766        -2.01239
C         16.85791        29.55588        -1.56827
C         18.32945        31.63921        -1.06767
C         16.96583        31.01933        -1.15264
C         18.36359        33.10614        -0.82361
C         17.26569        33.70726        -0.20609
C         18.59978        35.87767        -0.13982
C         17.41327        35.08871         0.31082
C         18.48905        37.36943        -0.26079
C         17.19696        38.01953         0.04610
C         18.20071        40.21180        -0.89373
C         17.01591        39.43090        -0.39655
C         18.14968        41.70148        -0.77972
C         16.94444        42.39825        -0.26857
C         18.10591        44.53229        -0.86205
C         16.93934        43.81427        -0.30281
C         18.07564        46.05537        -0.83062
C         16.93256        46.70493        -0.16728
C         18.16326        48.85023        -0.20894
C         17.03872        48.11686         0.13232
C         18.15334        50.34929        -0.08290
C         17.18280        50.86332         0.95266
C         18.54003        52.90447         1.22323
C         17.37276        52.14695         1.48670
C         18.66157        54.22347         1.69516
C         20.71568         6.03644         1.17095
C         20.66333         7.41194         0.93476
C         19.46396         8.07569         0.60473
C         20.71785        10.13402         0.11376
C         19.43980         9.45933         0.27632
C         20.69906        11.50192        -0.44224
C         19.41730        12.26262        -0.56520
C         20.66425        14.44088        -0.70966
C         19.45363        13.75277        -0.58033
C         20.68728        15.90673        -1.06098
C         19.50398        16.63627        -0.46743
C         20.68997        18.76948        -0.82786
C         19.50396        18.09970        -0.65232
C         20.68061        20.25836        -0.89981
C         19.39698        20.93825        -0.54301
C         20.66962        23.19668        -0.41841
C         19.38461        22.42930        -0.40099
C         20.63817        24.59169        -0.53778
C         19.36683        25.30721        -0.71681
C         20.71680        27.37540        -1.41494
C         19.42695        26.62750        -1.42882
C         20.71957        28.71118        -2.05604
C         19.42092        29.50008        -2.11621
C         20.71741        31.70776        -2.07098
C         19.52200        30.91786        -1.60720
C         20.73999        33.18219        -1.79575
C         19.57292        33.83723        -1.13728
C         20.82671        35.97271        -1.25972
C         19.65080        35.19672        -0.91789
C         20.78975        37.37021        -1.22794
C         19.44550        38.05464        -1.22324
C         20.70446        40.20903        -0.88085
C         19.51921        39.52664        -0.93763
C         20.70984        41.67720        -0.63902
C         19.43495        42.43719        -0.59676
C         20.61672        44.61258        -0.80430
C         19.43511        43.89614        -0.82135
C         20.58443        46.07785        -0.86840
C         19.36503        46.75651        -0.88071
C         20.53605        49.01609        -1.28977
C         19.30589        48.23077        -0.92003
C         20.56011        50.44699        -0.81569
C         19.52948        50.98301        -0.00448
C         20.82391        53.06534         0.26223
C         19.63311        52.30597         0.47746
C         20.90859        54.42033         0.70376
C         19.79892        55.01515         1.42259
C         20.94451        57.19388         1.49991
C         19.85460        56.36914         1.82889
C         21.03109        58.54089         1.90139
C         23.20186         3.30215         1.87046
C         21.97883         3.97428         1.68770
C         23.19323         6.07865         1.36528
C         21.94758         5.35547         1.43612
C         23.19702         7.46896         1.10777
C         21.90105         8.23750         1.21739
C         23.19481        10.16936         0.22600
C         21.92051         9.54385         0.46939
C         23.21038        11.51698        -0.36164
C         21.94467        12.29301        -0.23485
C         23.23483        14.47427        -0.60050
C         21.94055        13.76068        -0.46236
C         23.18068        15.92551        -0.68690
C         21.99507        16.63439        -0.79471
C         23.18424        18.82746        -0.76668
C         21.98403        18.08508        -0.84325
C         23.20497        20.28419        -0.63368
C         21.93821        21.04785        -0.71134
C         23.13977        23.17696        -0.00503
C         21.88126        22.46670        -0.29793
C         23.15365        24.69271        -0.13636
C         21.83822        25.47935        -0.25080
C         23.17538        27.46052        -1.13595
C         21.89700        26.76420        -1.06192
C         23.24043        28.80985        -1.51385
C         22.03347        29.46806        -2.06158
C         23.30609        31.73133        -2.01392
C         22.02786        30.97031        -2.22929
C         23.27108        33.19750        -1.78301
C         22.05473        33.87991        -1.69841
C         23.26892        36.03385        -1.61466
C         22.05666        35.29068        -1.51527
C         23.22124        37.45433        -1.49673
C         21.99646        38.12138        -1.29560
C         23.18589        40.24939        -0.83037
C         21.98187        39.54361        -1.03337
C         23.11844        41.63251        -0.22691
C         21.97270        42.43246        -1.03429
C         23.04997        44.62243        -0.45162
C         21.90103        43.91878        -0.68430
C         23.02079        46.10634        -0.42580
C         21.80433        46.81770        -0.83516
C         23.27530        48.82430        -1.58380
C         21.84756        48.20233        -1.37011
C         23.80126        50.14933        -2.17388
C         21.52515        51.36185        -1.28540
C         23.12783        53.23362        -0.71978
C         21.84988        52.55605        -0.58489
C         23.18395        54.58841        -0.26288
C         22.02999        55.18577         0.33807
C         23.32329        57.37482         0.54978
C         22.00608        56.62310         0.63898
C         23.46036        58.57743         1.40347
C         22.23293        59.29350         1.80674
C         23.57805        61.33766         2.06580
C         22.35601        60.62242         2.21608
C         24.40742         3.97709         1.78238
C         25.64892         6.09303         1.41748
C         24.43589         5.37923         1.51388
C         25.66189         7.47081         1.11930
C         24.41113         8.15730         0.93803
C         25.66743        10.26291         0.41246
C         24.41203         9.54550         0.53021
C         25.70976        11.59816         0.02866
C         24.49626        12.30338        -0.42620
C         25.60625        14.51862         0.16702
C         24.41876        13.78817        -0.40856
C         25.72546        15.94459        -0.31816
C         24.45039        16.66717        -0.74391
C         25.66369        18.78902        -0.49422
C         24.44739        18.13111        -0.66419
C         25.66621        20.26017        -0.65421
C         24.38025        20.97559        -0.52496
C         25.68722        23.18056        -0.30078
C         24.44410        22.37432         0.05581
C         25.66764        24.60850        -0.42992
C         24.42408        25.36814        -0.50762
C         25.66002        27.41168        -1.18788
C         24.39610        26.70902        -0.88293
C         25.68211        28.88640        -1.16935
C         24.47644        29.58018        -1.41602
C         25.72447        31.71515        -1.41455
C         24.51947        30.99309        -1.59483
C         25.76166        33.18254        -1.53937
C         24.51073        33.91257        -1.72761
C         25.76602        36.07060        -1.89060
C         24.50190        35.32326        -1.75510
C         25.76928        37.56559        -1.79668
C         24.43936        38.27589        -1.62597
C         25.66536        40.37085        -1.02121
C         24.43088        39.65358        -1.10436
C         25.67820        41.75278        -0.67132
C         24.42702        42.41591        -0.23872
C         25.62948        44.67305        -0.45291
C         24.36184        43.93113        -0.24987
C         25.62807        46.07060        -0.42739
C         24.36192        46.82874        -0.42838
C         25.61300        48.94709        -0.64093
C         24.42988        48.20701        -0.91420
C         25.57026        50.41633        -0.65514
C         24.48145        51.07488        -1.18740
C         25.57972        53.25852        -0.98851
C         24.35992        52.54681        -1.04349
C         25.62215        54.64549        -0.73308
C         24.43039        55.32288        -0.31518
C         25.77554        57.37088         0.11534
C         24.53202        56.64955         0.14826
C         25.85341        58.70718         0.52286
C         24.79632        59.32785         1.32192
C         24.73100        60.76521         1.58816
C         26.88091         8.20245         1.03585
C         28.14452        10.28571         0.73959
C         26.91694         9.57352         0.73010
C         28.21939        11.66440         0.43764
C         26.98827        12.31054        -0.04265
C         28.11280        14.56885         0.46260
C         26.94981        13.85004        -0.02675
C         27.96003        16.00678         0.91422
C         26.85374        16.72281         0.16730
C         28.07235        18.84096         0.23263
C         26.87376        18.10290        -0.07198
C         28.17719        20.25650        -0.17481
C         26.93820        21.02533        -0.51785
C         28.14821        23.19995        -0.15957
C         26.90690        22.49714        -0.28188
C         28.14099        24.61871        -0.29207
C         26.91199        25.27825        -0.53500
C         28.19496        27.45378        -0.71816
C         26.96153        26.68153        -0.96324
C         28.15185        28.87836        -0.76274
C         26.90861        29.58014        -1.01365
C         28.17271        31.71151        -0.90206
C         26.90346        30.99873        -1.10256
C         28.19681        33.21386        -0.97688
C         26.93180        33.88832        -1.30705
C         28.23195        36.09565        -1.08949
C         27.05176        35.33464        -1.56249
C         28.23270        37.54184        -1.16787
C         26.99952        38.28081        -1.41416
C         28.14111        40.46781        -1.25919
C         26.91318        39.67131        -1.24774
C         28.12870        41.88112        -0.89550
C         26.88297        42.52519        -0.67087
C         28.08793        44.68281        -0.38162
C         26.85745        43.95512        -0.48811
C         28.05810        46.09153        -0.14695
C         26.84175        46.81229        -0.27938
C         27.97600        49.02057         0.16085
C         26.77497        48.25315        -0.22170
C         27.98867        50.50958         0.14144
C         26.69824        51.27038        -0.11232
C         28.12424        53.25529        -0.71325
C         26.88418        52.46543        -1.10476
C         28.10232        54.64805        -1.28485
C         26.86690        55.37294        -0.79010
C         26.92834        56.69090        -0.41339
C         29.37437        12.44577         0.58955
C         30.52459        14.63042         0.87449
C         29.34505        13.88245         0.60246
C         30.51557        16.05367         0.96135
C         29.26182        16.76282         0.86151
C         30.40570        18.92454         1.16706
C         29.23093        18.16083         0.69954
C         30.45530        20.40737         1.00506
C         29.39525        21.04745         0.17556
C         30.57892        23.23458         0.26914
C         29.36505        22.52551         0.12634
C         30.58582        24.62809        -0.01156
C         29.39134        25.33813        -0.28463
C         30.67217        27.55423        -0.64507
C         29.38817        26.76178        -0.47426
C         30.55946        28.93809        -0.06122
C         29.30830        29.61912        -0.34073
C         30.28035        31.75476         0.51432
C         29.26407        31.00316        -0.23240
C         30.26897        33.29082         0.48504
C         29.27165        33.99083        -0.33890
C         30.54471        36.08992        -0.11405
C         29.32562        35.38829        -0.50707
C         30.70335        37.50959        -0.59564
C         29.40681        38.23880        -0.85375
C         30.62264        40.46201        -0.57130
C         29.49235        39.67871        -1.06830
C         30.61784        41.84851        -0.60853
C         29.36012        42.58860        -0.75744
C         30.60588        44.66848        -0.23410
C         29.32573        43.96899        -0.48621
C         30.62117        46.12403         0.06578
C         29.30476        46.82508         0.16614
C         30.51392        49.03148        -0.33146
C         29.29659        48.31073         0.21817
C         30.47264        50.52334        -0.09529
C         29.29861        51.21153        -0.03374
C         29.24476        52.65566        -0.24248
C         31.73654        16.75939         1.00025
C         33.00129        18.98131         1.24231
C         31.78089        18.17359         1.31687
C         33.02076        20.37305         1.21902
C         31.75856        21.15204         1.11933
C         33.02983        23.21684         0.71906
C         31.81559        22.54707         0.62145
C         33.06927        24.64830         0.58495
C         31.88337        25.32847         0.01259
C         33.01309        27.56515         0.43581
C         31.92102        26.80930        -0.19899
C         32.92566        28.93242         0.62449
C         31.65621        29.61522         0.41111
C         32.78989        31.77319         1.26492
C         31.53082        31.01262         0.90032
C         32.77061        33.28318         1.27852
C         31.50507        34.04368         0.90653
C         32.85410        36.17863         0.83597
C         31.62054        35.46141         0.47894
C         32.87621        37.56250         0.74531
C         31.66416        38.27990         0.28511
C         32.99883        40.47521         0.30838
C         31.71533        39.76941         0.13648
C         33.04724        41.87161        -0.03349
C         31.87185        42.54077        -0.38925
C         33.17541        44.77772        -0.32820
C         31.88901        43.99329        -0.58915
C         33.09767        46.21971        -0.04026
C         31.87937        46.92496        -0.04157
C         31.80721        48.32101        -0.02359
C         34.23804        21.10830         1.19306
C         35.46526        23.25373         1.12300
C         34.26529        22.51413         1.04374
C         35.48110        24.67366         1.03534
C         34.21942        25.35759         0.83750
C         35.43349        27.57188         0.93343
C         34.14294        26.83336         1.10962
C         35.38723        28.97850         0.93578
C         34.12186        29.68100         0.96245
C         35.30282        31.82430         1.20911
C         34.09778        31.07907         1.11296
C         35.25548        33.25747         1.34118
C         34.07166        33.99399         1.23057
C         35.24186        36.15341         1.47573
C         34.06132        35.44901         1.22343
C         35.28468        37.62017         1.59888
C         33.99857        38.38295         1.22961
C         35.34811        40.52201         0.96479
C         34.10665        39.80682         0.81067
C         35.41985        41.86143         0.66039
C         34.28020        42.60735         0.19263
C         34.33488        43.98911         0.07693
C         36.66740        25.42877         1.04374
C         37.86082        27.60576         0.78811
C         36.66845        26.86236         0.92342
C         37.84467        29.02281         0.76025
C         36.60014        29.72141         0.90843
C         37.79496        31.84345         0.99070
C         36.57004        31.14029         1.05361
C         37.84015        33.25450         1.40105
C         36.51677        33.95823         1.65420
C         37.82052        36.20641         1.49422
C         36.50587        35.44875         1.72614
C         37.72869        37.65426         1.20330
C         36.57281        38.33034         1.40764
C         36.57103        39.83948         1.53514
C         39.03557        29.78075         0.58816
C         40.21249        31.97620         0.49962
C         39.01275        31.17677         0.68048
C         40.20833        33.33111         0.62696
C         39.03122        34.06383         1.05537
C         38.99962        35.43316         1.07558
O         29.28291        20.44577        -1.16005
O         12.23510        24.62722        -1.61409
O         18.93113        26.57555        -2.81971
O         19.04231        16.27091         0.87219
O         23.14112        24.05546         1.19615
O         23.89529        11.68421        -1.63275
O         16.54987        30.65869        -2.50382
O         18.43889        25.29388         0.43673
O         26.42958        20.70006        -1.86054
O         31.94044        31.16893         2.29188
O         20.42666        32.64371        -3.13860
O         22.59712        48.07474        -2.63055
O         31.12498        39.11218         1.35287
O          8.91160        31.49390        -0.46215
O         22.82232        31.38224        -3.37039
O         32.64517        44.48405        -1.72045
O         25.09178        38.16899        -2.94450
O         14.79447        37.61551         2.63828
O         23.57898        46.69044         0.82861
O         13.26132        35.16675         2.66127
O         26.41325        26.85756        -2.32411
O         21.31958        20.83244        -2.07591
O         25.39954        16.12105        -1.72671
O         30.79254        21.08055         2.24426
O         28.69711        32.39797        -2.12281
O         15.90282        26.96973        -2.73568
O         19.32871        21.50428         0.78018
O         29.36649        47.57538         1.45733
O         19.14705        36.77140         0.89005
O         22.24932        42.30002        -2.36630
O         22.32585        57.49170        -0.50873
O         30.88057        18.50157         2.44538
O         24.51750        43.17466         1.01891
O         29.02024        40.14121        -2.36983
O         14.88739        18.29020        -1.93348
O         19.28705        30.94102        -0.15629
O         27.12386        52.06850        -2.41569
O         20.07579        11.66406        -1.75225
O         37.27947        33.38590         2.75562
O         17.77496        45.30268        -2.05857
O         24.13391        50.18302        -3.34484
O         37.29803        35.93894         2.84300
O         21.90546        13.13658         0.95163
O         26.65450        35.63058        -2.95847
O         24.42563        58.44994         2.47274
O         30.70355        45.13987         1.16565
O         18.61523        29.26765        -3.29293
O         17.16022        35.24595         1.74236
O         19.53765        48.76244        -2.32425
O         10.30055        29.02679         2.00289
O         17.96201        41.04910        -2.07950
O         20.14615        42.05579         0.65128
O         29.65938        32.53590         1.58909
O         27.84883        49.81277         1.42572
O         11.75385        40.13161         2.68385
O         21.52101        28.79129        -3.26397
O         27.13356        13.11401        -1.26058
O         32.33186        25.90494        -1.29917
O         12.71837        30.01396         1.77048
O         34.39684        38.16226         2.61996
O         13.33303        29.42925        -1.69662
O         31.88271        33.84176         2.29791
O         15.77216        39.60296        -1.18019
O         30.79636        27.78102        -2.07983
H         31.24401        26.98311        -2.44858
O         21.79990         8.60815         2.64192
H         21.76957         7.77445         3.15804
O          8.11831        28.94882        -0.97642
H          8.17153        29.91061        -1.19921
O         22.01452        51.16931        -2.52743
H         22.50953        51.95551        -2.83876
O         30.34700        48.87007        -1.79441
H         30.95870        49.49167        -2.24377
O         25.38484        14.51355         1.60313
H         24.51006        14.91154         1.79637
O         33.82376        26.89363         2.55841
H         33.88229        27.83387         2.83617
O         18.20946        19.00505         1.12090
H         18.43246        18.13466         1.52863
O         37.76199        40.40517         0.98773
H         37.71203        40.35528         0.01155
O         26.30050        51.87164         1.13546
H         26.57822        51.24741         1.84653
O         24.65664        22.05596         1.47624
H         24.32159        22.83016         1.98856
O          9.76249        35.67374        -0.29369
H          8.95663        35.23872        -0.64566
O         22.69213        41.46243         1.11555
H         23.05699        42.21468         1.64175
O         15.45663        40.08708         2.46893
H         15.25127        39.39838         3.14631
O         18.84657        37.88855        -2.54029
H         19.26486        38.52340        -3.15981
O         20.47385        16.00733        -2.50571
H         21.25204        15.62501        -2.96371
O         16.94774        24.52346        -2.84949
H         16.43134        25.11609        -3.44266
O         31.39081        37.44353        -1.89318
H         30.76216        37.07402        -2.55002
O         13.57792        23.33124         1.51036
H         13.72258        22.47136         1.95895
O         21.55102        25.99930         1.08798
H         21.75062        25.26959         1.72076
O         13.11291        39.63537        -0.33539
H         13.77385        39.91532        -1.00880
O         18.28335        19.91379        -2.41476
H         18.20424        20.75711        -2.90722
O         17.64244        50.82470        -1.38047
H         18.13984        50.33140        -2.07614
O         28.05836        54.51996        -2.71114
H         27.69581        53.60487        -2.91594
O         27.56269        15.98237         2.34199
H         28.35535        15.73580         2.86470
H          5.29592        31.14703         2.23083
H          5.41291        33.57382         2.57097
H          7.48237        26.81710         0.93982
H          6.33077        29.04774         1.45869
H          6.62062        35.70091         2.50431
H          7.80739        37.83035         2.35916
H          9.85101        22.47346         0.53944
H          8.70053        24.66211         1.00534
H          8.68843        39.77085         1.50795
H         10.14757        42.03842         0.41373
H         12.29385        18.24710         0.12628
H         11.06963        20.34008         0.14963
H         11.30576        44.28891         1.21920
H         12.58747        46.43897         1.38138
H         14.83039        13.89485        -0.09206
H         13.58083        16.00595         0.05567
H         13.89227        48.52895         1.53615
H         15.26859        50.53002         1.89938
H         17.28782         9.63264         0.27816
H         16.03529        11.79030         0.06221
H         16.59973        52.57339         2.14455
H         17.82355        54.67088         2.25049
H         19.79273         5.44029         1.09803
H         18.52524         7.50116         0.57122
H         19.01977        56.78590         2.41147
H         20.16144        59.00314         2.39257
H         23.19506         2.22194         2.07277
H         21.03512         3.41245         1.73558
H         23.57471        62.41328         2.29399
H         21.46952        61.15768         2.58475
H         25.35662         3.43824         1.91307
H         26.60134         5.56303         1.56661
H         26.76820        59.28204         0.31298
H         25.60822        61.38704         1.35853
H         27.82673         7.67498         1.23210
H         29.06139         9.75096         1.03039
H         29.02378        55.22418        -0.99930
H         27.88416        57.23384        -0.46279
H         30.31726        11.95069         0.86680
H         31.48206        14.09948         0.97391
H         31.41094        51.08306        -0.24285
H         30.18321        53.22692        -0.15186
H         32.67619        16.22610         0.79136
H         33.95809        18.44253         1.16508
H         34.04137        46.77641         0.06907
H         32.74359        48.90079        -0.05628
H         35.18519        20.56750         1.33808
H         36.41224        22.71855         1.29063
H         36.37173        42.39212         0.81049
H         35.23625        44.52046         0.41819
H         37.63482        24.90874         1.11273
H         38.82473        27.07986         0.71865
H         38.65564        38.21644         1.00753
H         36.59356        40.05629         2.63975
H         39.98784        29.26016         0.40930
H         41.13890        31.45566         0.21621
H         41.12797        33.90424         0.43781
H         39.88003        35.99573         0.72761
