         410
 CSIRO Nanostructure Databank - Neutral Graphene Oxide Data Set
C         27.72438        27.43579        -0.50722
C         27.84924        28.80591        -0.10319
C         26.89096        29.45039         0.64649
C         28.08613        31.60208         0.56530
C         26.98816        30.83859         0.93880
C         28.16356        33.03425         0.86166
C         27.12425        33.71021         1.55544
C         28.19167        35.86969         1.17973
C         27.12911        35.08622         1.68832
C         28.17721        37.31797         1.23788
C         27.04717        38.03356         1.68906
C         28.14843        40.18205         1.30983
C         27.03800        39.42366         1.71939
C         28.16722        41.63730         1.43832
C         27.07395        42.32883         2.04144
C         28.20570        44.45634         1.74505
C         27.07824        43.69763         2.16144
C         28.22302        45.86893         1.87538
C         29.94220        27.55103        -1.52821
C         28.69254        26.86557        -1.28573
C         30.20283        28.81145        -1.04794
C         28.95895        29.61082        -0.72810
C         30.36729        31.63461        -0.39829
C         29.20091        30.95537        -0.09926
C         30.29850        33.13925        -0.48408
C         29.25700        33.78204         0.39955
C         30.44789        35.94091         0.16477
C         29.29577        35.19635         0.57630
C         30.46339        37.36383         0.29671
C         29.31088        38.05651         0.79297
C         30.45110        40.21629         0.39369
C         29.30612        39.48944         0.82186
C         30.34937        41.70601         0.17818
C         29.28009        42.37353         1.00262
C         30.51334        44.53724         0.86119
C         29.33497        43.78384         1.18864
C         30.50772        45.93302         1.03361
C         29.34197        46.58638         1.51057
C         33.06212        24.45347        -0.50859
C         32.01099        24.98038        -1.26239
C         32.93095        27.25032        -1.01833
C         31.94120        26.35936        -1.48074
C         32.85668        28.72731        -1.22101
C         31.51337        29.51634        -1.20631
C         32.79515        31.64537        -0.83488
C         31.57666        30.95573        -0.83218
C         32.82397        33.10207        -0.62896
C         31.62965        33.81957        -0.40683
C         32.84585        35.93124        -0.43684
C         31.63901        35.22318        -0.23434
C         32.78671        37.39214        -0.56427
C         31.60478        38.11615        -0.08679
C         32.84922        40.28323        -0.26283
C         31.62420        39.53528        -0.01057
C         32.85606        41.71849        -0.15409
C         31.67641        42.42865         0.20175
C         32.91428        44.53147         0.14837
C         31.70976        43.82248         0.41266
C         32.99398        45.99332         0.38163
C         31.75040        46.72737         0.83252
C         32.82231        48.85489         0.16891
C         31.71460        48.17647         0.56355
C         35.27836        23.28259         0.96363
C         35.19060        24.78397         0.84469
C         34.09431        25.28524        -0.07654
C         35.30166        27.43888        -0.31545
C         34.07056        26.67190        -0.39412
C         35.30618        28.81522        -0.69546
C         34.07919        29.50565        -0.92684
C         35.30363        31.61760        -0.88939
C         34.05784        30.92024        -0.92386
C         35.34210        33.07523        -0.50604
C         34.04557        33.81918        -0.64334
C         35.32184        35.99245        -0.56735
C         34.06626        35.23789        -0.60086
C         35.32471        37.37476        -0.45588
C         34.09946        38.15536        -0.63596
C         35.29956        40.32850        -0.55145
C         34.08573        39.61931        -0.42513
C         35.30678        41.74166        -0.67502
C         34.06166        42.43641        -0.42190
C         35.19119        44.60050        -0.86050
C         34.04247        43.84802        -0.32787
C         35.22345        46.06876        -0.69351
C         34.08541        46.77302        -0.24554
C         35.17800        48.92101        -0.72568
C         34.05183        48.19328        -0.22055
C         35.37855        50.35798        -0.58333
C         37.71837        23.13558         0.60836
C         36.43100        22.56575         0.91241
C         37.79403        24.60164         0.45324
C         36.53979        25.42342         0.52397
C         37.74830        27.40064        -0.41491
C         36.53034        26.77909        -0.08793
C         37.78773        28.77577        -0.75071
C         36.54762        29.50814        -0.81660
C         37.79097        31.61545        -1.28276
C         36.51715        30.91793        -0.98595
C         37.81964        33.11335        -1.23594
C         36.52413        33.85533        -1.03790
C         37.80982        35.91869        -0.60940
C         36.58359        35.27962        -0.66493
C         37.85740        37.36337        -0.27174
C         36.57082        38.11845        -0.18165
C         37.84461        40.30507        -0.78919
C         36.58974        39.62607        -0.37129
C         37.79372        41.74399        -1.05642
C         36.52289        42.42302        -0.96328
C         37.72142        44.64419        -1.48686
C         36.44627        43.86323        -1.27186
C         37.70160        46.08687        -1.06992
C         36.36352        46.76921        -1.11890
C         38.10942        49.15432        -0.97573
C         36.22486        48.15352        -1.26643
C         37.89697        50.38320        -0.32576
C         36.58037        50.99928        -0.40437
C         40.13460        20.29693         0.90836
C         38.93752        20.96752         0.70435
C         40.13878        23.03793         0.04465
C         38.88739        22.37239         0.46479
C         40.20718        24.50889        -0.09160
C         39.02706        25.21696        -0.07530
C         40.28325        27.31331        -0.59818
C         38.97648        26.57837        -0.70188
C         40.29045        28.72151        -0.78984
C         39.05832        29.41511        -0.91060
C         40.34316        31.57954        -0.97434
C         39.08622        30.84955        -1.23483
C         40.28577        33.00412        -0.66110
C         39.06800        33.81152        -0.89664
C         40.32249        35.94943        -0.57517
C         39.05171        35.17881        -0.68481
C         40.27235        37.36697        -1.07490
C         39.10395        38.15584        -0.57797
C         40.25024        40.22439        -1.43952
C         39.01809        39.59035        -0.92207
C         40.25311        41.74400        -1.54593
C         38.98444        42.44724        -1.29514
C         40.31561        44.63162        -1.24128
C         39.02482        43.91679        -1.48565
C         40.31129        46.02679        -0.96019
C         39.02042        46.77490        -0.83509
C         40.25897        48.78249         0.00103
C         39.13731        48.25206        -0.66368
C         40.21184        50.12551         0.48988
C         39.00471        50.89379         0.42940
C         40.08905        52.68168         1.68577
C         38.97010        52.16625         1.07925
C         42.56528        20.39629         1.39135
C         41.38446        20.95301         0.84948
C         42.70351        23.06637         0.33078
C         41.46783        22.28319         0.23979
C         42.72663        24.44645        -0.11475
C         41.48022        25.15911        -0.34360
C         42.74050        27.25643        -0.90110
C         41.47899        26.56434        -0.56459
C         42.77586        28.74032        -0.89012
C         41.55527        29.43810        -0.86707
C         42.81560        31.60115        -0.89201
C         41.55055        30.88488        -0.86809
C         42.83206        32.99968        -0.90929
C         41.63982        33.74557        -0.54311
C         42.85195        35.95605        -1.10492
C         41.63745        35.23848        -0.63291
C         42.82198        37.31620        -1.27005
C         41.55979        38.07308        -1.36059
C         42.73557        40.27094        -1.40289
C         41.56365        39.55218        -1.31839
C         42.75979        41.72596        -1.35907
C         41.54195        42.45550        -1.37180
C         42.80643        44.57345        -1.15523
C         41.51585        43.87507        -1.24427
C         42.78977        46.05927        -0.73830
C         41.48616        46.70415        -0.54583
C         42.66487        48.61730         0.52282
C         41.47133        48.00754         0.03925
C         42.61696        49.94376         1.07483
C         41.38379        50.67316         1.09553
C         42.50265        52.52244         2.24737
C         41.32565        51.96700         1.68235
C         43.74484        21.11125         1.40243
C         45.09764        23.15301         0.91659
C         43.84666        22.44858         0.88749
C         45.25974        24.36898         0.03722
C         43.95779        25.11516        -0.17640
C         45.33459        27.21451        -0.68087
C         44.03506        26.46229        -0.75273
C         45.32497        28.72369        -0.81821
C         44.02262        29.44476        -0.89768
C         45.31300        31.56215        -0.86859
C         44.05091        30.84985        -0.92291
C         45.35741        32.98105        -1.26068
C         44.03681        33.74836        -1.30054
C         45.31564        35.87487        -1.37870
C         44.10249        35.21967        -1.20979
C         45.30779        37.35013        -1.76177
C         44.10759        38.08446        -1.14416
C         45.32087        40.26425        -1.50327
C         44.01234        39.52987        -1.59242
C         45.26608        41.68245        -1.10974
C         44.02088        42.39215        -1.12249
C         45.17260        44.46430        -0.39995
C         44.02941        43.80251        -0.88103
C         45.17632        45.85073        -0.03286
C         43.97975        46.61066        -0.07846
C         45.11353        48.55748         0.92465
C         43.91037        47.91157         0.48118
C         45.06730        49.87855         1.44793
C         43.79623        50.55779         1.57971
C         43.70147        51.84396         2.17964
C         47.42662        23.33473         1.62842
C         46.20911        22.65908         1.60109
C         47.58700        24.62915         1.06938
C         46.43818        25.25966         0.42106
C         47.72281        27.37188         0.11142
C         46.48225        26.56671        -0.00051
C         47.64127        28.85184         0.09884
C         46.50632        29.48995        -0.31891
C         47.73161        31.68216        -0.37278
C         46.48731        30.93646        -0.47301
C         47.76797        33.08638        -0.69697
C         46.58625        33.76624        -1.07440
C         47.80901        35.89992        -1.23972
C         46.57033        35.17003        -1.28010
C         47.80631        37.36084        -1.29827
C         46.58581        38.08681        -1.41103
C         47.75240        40.19785        -0.93524
C         46.56387        39.48201        -1.25986
C         47.70502        41.60438        -0.64773
C         46.45075        42.29171        -0.66488
C         47.67368        44.37630         0.21126
C         46.36732        43.65356        -0.12132
C         47.63851        45.83761         0.32829
C         46.39807        46.50540         0.37945
C         47.57800        48.56850         1.06934
C         46.36472        47.88366         0.77976
C         47.50346        49.89054         1.58090
C         46.29009        50.51325         1.78711
C         50.02544        24.68460         1.64404
C         48.81179        25.31730         1.21324
C         50.03602        27.54850         1.26450
C         48.92322        26.70641         0.73329
C         50.09129        28.95343         0.80530
C         48.77302        29.67478         0.68438
C         50.14825        31.74287         0.10349
C         48.89620        31.04346         0.05590
C         50.20589        33.13484        -0.25535
C         48.99834        33.80676        -0.63287
C         50.30067        35.86916        -1.10189
C         49.00212        35.19150        -0.97926
C         50.29866        37.40307        -1.20177
C         49.00628        38.09398        -1.12808
C         50.22516        40.22183        -0.73334
C         48.99245        39.49509        -0.90980
C         50.18850        41.62564        -0.52093
C         48.93154        42.31256        -0.39624
C         50.14641        44.44426        -0.02469
C         48.93802        43.69710        -0.09093
C         50.11886        45.85541         0.29162
C         48.86863        46.53861         0.47690
C         50.07642        48.60577         0.96247
C         48.84328        47.91783         0.83357
C         51.21581        25.34686         1.75033
C         52.58178        27.51697         1.52325
C         51.28820        26.81788         1.70173
C         52.55712        28.88804         0.97399
C         51.27934        29.65307         0.83631
C         52.54835        31.83437         0.74878
C         51.31696        31.05978         0.52671
C         52.63769        33.21697         0.25784
C         51.45138        33.85528        -0.19769
C         52.71380        35.96459        -0.47043
C         51.51456        35.22681        -0.58454
C         52.72692        37.40236        -0.64116
C         51.52584        38.11607        -0.83951
C         52.70177        40.27191        -0.65992
C         51.47977        39.53428        -0.73144
C         52.64895        41.67985        -0.58941
C         51.41151        42.36402        -0.43464
C         52.61858        44.52736        -0.11457
C         51.38907        43.78212        -0.21729
C         52.59959        45.91570         0.19969
C         51.33042        46.58065         0.41312
C         51.27491        47.96144         0.74692
C         55.03814        27.59412         1.71129
C         53.79144        26.91161         1.79269
C         55.10289        28.94169         1.39437
C         53.87118        29.62369         0.95276
C         55.13596        31.80475         0.82280
C         53.86003        31.11428         1.02664
C         55.11808        33.20216         0.56349
C         53.88247        33.89305         0.25732
C         55.14948        36.00113        -0.03850
C         53.92291        35.28842        -0.08603
C         55.17339        37.43170        -0.26124
C         53.95513        38.13386        -0.49421
C         55.19524        40.25996        -0.54317
C         53.96131        39.55968        -0.60406
C         55.23005        41.72966        -0.72334
C         53.88470        42.46549        -0.72291
C         55.07844        44.57909        -0.17653
C         53.86466        43.88126        -0.33305
C         55.03974        45.96150         0.12703
C         53.83196        46.61124         0.29433
C         56.31145        29.70285         1.35500
C         56.32510        31.03694         0.99026
C         56.32906        33.94772         0.54580
C         56.34212        35.29516         0.27407
C         56.37780        38.16391        -0.19624
C         56.38654        39.54279        -0.34076
C         56.41144        42.52121        -0.33659
C         56.33856        43.86561        -0.18005
O         38.36325        44.35754        -2.75725
O         54.61224        42.18465        -1.97073
O         43.00970        45.64125        -2.12892
O         37.03205        33.63204        -2.37429
O         44.66781        33.24273        -2.52542
O         50.34539        27.42499         2.68810
O         38.42381        31.14630        -2.52851
O         41.12743        35.82415         0.63132
O         43.38752        26.61742        -2.05767
O         53.06833        31.65457         2.13636
O         32.79973        46.34974         1.79981
O         50.46611        36.55287        -2.38648
O         36.56191        39.00460         0.98015
O         40.13623        40.89081        -2.73946
O         37.40124        25.35272         1.71603
O         46.86417        43.72915         1.25970
O         38.78419        37.74931         0.79029
O         44.69928        39.92287        -2.80163
O         53.33759        29.04851        -0.28285
O         40.94381        33.26733         0.63368
O         45.67013        27.85578        -1.95207
O         40.79908        22.37516        -1.06930
O         40.65073        37.55926        -2.45106
O         38.22379        46.20666         0.31273
O         30.87277        26.80582        -2.26302
O         48.82242        26.84175        -0.73026
O         33.34163        37.82846        -1.85790
O         32.21008        29.19319        -2.44828
O         37.22117        48.80650        -2.00007
O         35.43186        44.21264        -2.27475
O         45.60365        23.84090        -1.29363
H         45.64554        24.59964        -1.91577
O         29.87712        41.83968        -1.22189
H         30.54199        41.40344        -1.79735
O         38.82469        26.28093        -2.15934
H         39.68462        25.92924        -2.47890
O         48.34474        29.91536         2.08436
H         49.12515        30.23992         2.58335
O         29.82404        33.38302        -1.86626
H         28.93101        32.98202        -1.94102
O         35.61133        33.05275         0.94871
H         34.84010        32.63881         1.39143
O         28.41210        29.99632        -2.06046
H         29.16219        30.34758        -2.58885
O         34.81746        25.26499         2.17160
H         35.64750        25.26233         2.70210
O         45.13601        37.35812        -3.19608
H         45.91957        36.93832        -3.60718
O         44.33963        38.18771         0.29532
H         44.19650        37.30597         0.70096
H         26.83097        26.86740        -0.21007
H         26.01577        28.89189         1.01015
H         26.15618        31.29942         1.48742
H         26.27679        33.14606         1.96647
H         26.28454        35.56744         2.19930
H         26.14708        37.49728         2.01738
H         26.12851        39.92241         2.07836
H         26.19721        41.77173         2.39593
H         26.21366        44.21918         2.59652
H         27.34282        46.38279         2.28717
H         28.58906        25.83649        -1.65483
H         29.34754        47.67691         1.64193
H         33.08418        23.37756        -0.29051
H         31.22344        24.32900        -1.66169
H         32.75727        49.94379         0.03049
H         30.77133        48.72412         0.70189
H         34.35375        22.75836         1.24722
H         34.47438        50.97823        -0.47465
H         36.37316        21.48128         1.08558
H         36.52552        52.07497        -0.17254
H         40.10936        19.24575         1.23100
H         38.00069        20.41653         0.86220
H         40.05150        53.67138         2.16372
H         38.03909        52.74954         1.07096
H         42.53482        19.38140         1.81315
H         42.45545        53.51354         2.72103
H         44.63896        20.62790         1.81575
H         44.59607        52.31398         2.60889
H         48.26026        22.87623         2.17540
H         46.13719        21.71888         2.16446
H         48.42292        50.43371         1.83606
H         46.28782        51.53372         2.19173
H         50.02764        23.59478         1.78730
H         50.08974        49.67277         1.22057
H         52.13330        24.77325         1.94172
H         52.20201        48.54055         0.84430
H         55.95799        27.04898         1.96662
H         53.80683        25.87150         2.14806
H         55.98315        46.51501         0.23708
H         53.84367        47.68483         0.52216
H         57.26114        29.19252         1.57144
H         57.30055        31.53317         0.89413
H         57.27826        33.44951         0.78157
H         57.30445        35.82143         0.30246
H         57.33607        37.65317        -0.04031
H         57.34880        40.07023        -0.30595
H         57.37524        42.01401        -0.18923
H         57.24713        44.43709         0.06165
