         334
 CSIRO Nanostructure Databank - Neutral Graphene Oxide Data Set
C         30.48933        57.13008        -0.86755
C         30.54035        58.47865        -1.28682
C         29.38738        59.26347        -1.56704
C         30.76497        61.16168        -2.27320
C         29.52256        60.55215        -2.09651
C         32.83296        52.94040         0.38839
C         32.83603        54.34602         0.08838
C         31.63959        55.03305        -0.16210
C         32.95415        56.97182        -0.87081
C         31.66626        56.37752        -0.60516
C         32.91750        58.21995        -1.54748
C         31.82309        59.07124        -1.56322
C         33.15942        61.20310        -1.69621
C         31.96985        60.49014        -1.89238
C         35.25338        48.66784         0.84735
C         35.24565        50.03166         0.94608
C         33.91261        50.75119         0.89942
C         35.25723        52.91128         0.65005
C         33.99361        52.23189         0.61368
C         35.28713        54.32132         0.45103
C         34.09195        55.04766         0.06435
C         35.55062        57.07550        -0.44609
C         34.16512        56.37143        -0.41922
C         35.50968        58.59774        -0.28718
C         34.70810        59.31019        -1.09534
C         35.50248        61.47500        -0.51433
C         34.22630        60.69991        -0.74843
C         37.76515        44.39335         0.43533
C         37.74983        45.77673         0.74803
C         36.53049        46.46849         0.80507
C         37.74355        48.63545         1.43727
C         36.45024        47.88071         1.16506
C         37.71721        50.09418         1.19126
C         36.48408        50.77614         1.06957
C         37.70931        52.91768         0.88621
C         36.47760        52.20398         0.88736
C         37.71490        54.34612         0.80587
C         36.49312        55.02408         0.62510
C         37.72758        57.21898         0.81621
C         36.40238        56.51762         0.70790
C         37.67116        58.68148         0.98816
C         36.35967        59.40909         0.67739
C         37.81177        61.50472         0.26340
C         36.55422        60.83619         0.11057
C         40.18858        40.11209         0.00287
C         40.16526        41.52810         0.09616
C         38.96182        42.26179         0.14738
C         40.22297        44.35463         0.53588
C         38.96898        43.66180         0.35749
C         40.20605        45.76420         0.82120
C         39.01335        46.45530         0.95689
C         40.23152        48.65962         0.85825
C         39.08342        47.88431         1.47487
C         40.16267        50.04894         0.83286
C         38.94879        50.78263         1.04148
C         40.16222        52.95169         0.89508
C         38.95497        52.22014         0.94953
C         40.16879        54.36777         0.84349
C         38.94400        55.07986         0.84038
C         40.20477        57.23013         0.92481
C         38.93961        56.52902         0.86436
C         40.23961        58.66516         0.94054
C         38.97428        59.42992         1.01387
C         40.24680        61.51513         0.61925
C         38.99785        60.86399         0.63598
C         42.62092        35.82903        -0.05798
C         42.62198        37.22170         0.11367
C         41.41682        37.96214         0.01975
C         42.64490        40.07840         0.18167
C         41.39988        39.37688         0.08178
C         42.65665        41.50933         0.12363
C         41.40725        42.24701         0.18320
C         42.79086        44.25780         0.71889
C         41.43003        43.62889         0.43730
C         42.78746        45.77811         0.75379
C         41.49180        46.51307         0.91150
C         42.64584        48.62920         0.25691
C         41.46264        47.96906         0.60841
C         42.61409        50.09481         0.08501
C         41.35354        50.82411         0.43005
C         42.66154        52.97626         0.52681
C         41.46396        52.20921         1.02688
C         42.63581        54.35577         0.49709
C         41.41552        55.08465         0.73221
C         42.69340        57.19883         0.78568
C         41.42370        56.49772         0.80141
C         42.71585        58.63465         1.24727
C         41.43746        59.37146         0.95018
C         42.69920        61.49022         0.80275
C         41.46140        60.81008         0.82513
C         45.15936        33.02281        -0.40314
C         43.92988        33.65833        -0.33841
C         45.14129        35.77668         0.47028
C         43.80475        35.01756         0.17131
C         45.11106        37.25263         0.36714
C         43.87848        37.93817         0.26463
C         45.12167        40.06080         0.23158
C         43.88544        39.36290         0.24112
C         45.16406        41.56547         0.31063
C         43.85421        42.19794         0.00188
C         45.14990        44.36136        -0.22012
C         43.80449        43.67561        -0.27175
C         45.10875        45.80698        -0.15371
C         43.97759        46.49903         0.23346
C         45.10431        48.66476        -0.09070
C         43.92040        47.95112         0.13758
C         45.10433        50.14492        -0.37331
C         43.87699        50.86257         0.10355
C         45.13711        52.97596         0.17548
C         43.87839        52.23520         0.23842
C         45.13945        54.36847         0.22141
C         43.84420        55.11924         0.00536
C         45.14035        57.23051         0.54692
C         43.87627        56.54195         0.50925
C         45.15761        58.65971         0.67733
C         43.95668        59.37462         0.83809
C         45.17158        61.49724         0.63776
C         43.94395        60.80150         0.78432
C         46.37136        33.68812        -0.16640
C         47.59080        35.78891         0.23050
C         46.41328        35.07541         0.15902
C         47.60095        37.21912         0.69308
C         46.32899        37.95683         0.35537
C         47.60346        40.09987         0.02218
C         46.34116        39.36671         0.22406
C         47.59775        41.43473        -0.30522
C         46.28206        42.15566        -0.56884
C         47.60228        44.39245        -0.39942
C         46.33114        43.66839        -0.40242
C         47.59376        45.76943        -0.34829
C         46.32556        46.53564        -0.65516
C         47.55755        48.70010        -0.26388
C         46.36134        47.99476        -0.26150
C         47.59994        50.13041        -0.03276
C         46.38401        50.84291         0.00973
C         47.61202        52.95325         0.25172
C         46.37693        52.24743         0.15391
C         47.60494        54.37598         0.33952
C         46.37010        55.08508         0.31111
C         47.60901        57.21573         0.50136
C         46.36232        56.51680         0.42113
C         47.61116        58.65527         0.55235
C         46.40418        59.36760         0.58839
C         47.62987        61.51182         0.43792
C         46.39874        60.81484         0.56558
C         48.82875        37.97650         0.26918
C         50.15889        39.99878        -0.26963
C         48.84486        39.31314         0.05025
C         50.12239        41.49632         0.04146
C         48.87748        42.15396        -0.62834
C         50.06704        44.32220        -0.39981
C         48.87701        43.65009        -0.40080
C         50.07192        45.79464        -0.57856
C         48.85241        46.55755        -0.09934
C         50.10506        48.71170        -0.33255
C         48.81725        47.98542        -0.68329
C         50.10085        50.09169         0.04510
C         48.83956        50.81947         0.11742
C         50.07355        52.95655         0.46046
C         48.84467        52.23255         0.26706
C         50.07912        54.33846         0.57182
C         48.84678        55.08275         0.46848
C         50.08842        57.24401         0.86037
C         48.82653        56.49281         0.52535
C         50.04845        58.67821         0.40887
C         48.86397        59.37619         0.44933
C         50.08661        61.53346         0.27295
C         48.85804        60.83451         0.35458
C         51.32408        42.20552        -0.49892
C         52.58135        44.34803        -0.90908
C         51.43309        43.64992        -0.14788
C         52.63031        45.82865        -0.61625
C         51.35023        46.56071        -0.70544
C         52.54733        48.67065        -0.13256
C         51.31191        48.00990        -0.38306
C         52.54862        50.06765         0.15022
C         51.31361        50.75615         0.30539
C         52.60561        52.91117         0.45595
C         51.32697        52.18215         0.81141
C         52.61694        54.32338         0.53891
C         51.36194        55.04732         0.98512
C         52.54124        57.16604         0.40096
C         51.36867        56.50508         0.56278
C         52.57253        58.59937         0.03124
C         51.28666        59.37882         0.04825
C         52.55339        61.50475         0.06375
C         51.32210        60.85620         0.15142
C         53.77861        46.50932        -0.37508
C         54.98417        48.64048        -0.01964
C         53.78304        47.94739        -0.17421
C         55.00454        50.03968         0.14579
C         53.80426        50.75778         0.24218
C         55.05225        52.91719         0.23660
C         53.80995        52.20825         0.32193
C         55.05484        54.34195         0.29022
C         53.82158        55.02560         0.45594
C         55.08275        57.22028         0.41426
C         53.82689        56.48547         0.82195
C         55.03195        58.65203         0.26655
C         53.84205        59.34120         0.13019
C         54.98026        61.47989        -0.28604
C         53.80620        60.80058        -0.02741
C         56.34640        50.71806         0.27478
C         57.47875        52.94104         0.09599
C         56.29140        52.22171         0.16611
C         57.49419        54.35227         0.13669
C         56.29368        55.06693         0.25850
C         57.53498        57.23631         0.06272
C         56.28347        56.52367         0.27977
C         57.54595        58.64326        -0.01824
C         56.31290        59.45244         0.31126
C         57.51219        61.48057        -0.47781
C         56.23184        60.69873        -0.58315
C         58.83611        55.03851         0.14817
C         59.94981        57.22326        -0.29151
C         58.76974        56.53102        -0.06710
C         59.96730        58.64174        -0.40234
C         58.73422        59.35037        -0.27215
C         59.97288        61.48158        -0.51250
C         58.71895        60.80288        -0.39317
C         61.17049        59.36774        -0.57926
C         61.16078        60.76873        -0.61022
O         49.18034        41.93248        -2.09702
O         51.85965        58.87965        -1.23473
O         42.34673        46.23160         2.08686
O         51.42712        55.02634         2.43085
O         50.56203        46.16800        -1.91300
O         34.09551        58.65913        -2.17628
O         38.23497        59.15003         2.27413
O         41.69875        50.63932        -0.97101
O         36.91886        48.20763         2.56387
O         44.37955        35.21060         1.53231
O         50.09123        57.31328         2.33326
H         50.51148        56.44802         2.64619
O         59.72673        54.42929        -0.79853
H         59.33482        54.52408        -1.69048
O         57.28041        50.17241        -0.67032
H         56.95095        50.36733        -1.57120
O         51.66382        43.83803         1.26750
H         51.08895        43.17644         1.72791
O         49.99361        41.67003         1.46752
H         50.52247        40.94724         1.87382
O         46.25359        46.52013        -2.12431
H         47.05893        47.00360        -2.44156
O         33.01953        50.11228        -0.02379
H         33.35396        50.26868        -0.93042
O         48.97346        46.72919         1.33713
H         48.96065        45.84468         1.75947
O         36.19296        56.74630        -1.69201
H         35.66534        57.17011        -2.40520
O         35.65334        56.82873         1.92012
H         36.23654        56.66689         2.69058
O         56.47265        59.92899         1.67755
H         56.36650        59.16113         2.27783
O         45.89352        41.87730        -1.94022
H         46.65324        42.14367        -2.51754
O         48.31151        42.76944        -2.89214
H         48.73265        43.66340        -2.83693
O         45.45606        41.92897         1.70107
H         44.72778        42.51484         2.02660
O         33.51937        60.58219         0.53022
H         34.16771        60.27372         1.21503
O         42.78460        58.57666         2.73068
H         43.65274        58.18484         2.96686
O         47.64631        37.16606         2.16593
H         47.52345        38.08185         2.49549
O         45.05460        50.22620        -1.85489
H         44.84972        51.15616        -2.09007
O         43.27481        43.87836        -1.60695
H         43.91137        43.47683        -2.23743
O         41.68592        51.97024         2.45824
H         41.70446        52.84031         2.90955
O         43.22354        43.79992         2.02997
H         42.85423        44.44533         2.68027
O         51.32935        52.15222         2.27853
H         51.36454        53.10916         2.56639
O         56.12622        60.27039        -1.97968
H         55.24016        59.86556        -2.09934
O         52.39507        44.15052        -2.31773
H         51.70721        44.79752        -2.60801
O         48.71326        47.86545        -2.13646
H         48.77154        48.76743        -2.51571
O         35.65579        59.57429         1.93535
H         36.34690        59.74792         2.61655
O         43.68891        55.23433        -1.45487
H         43.54186        54.33033        -1.80571
O         51.23062        39.46065         0.51042
H         51.37268        38.52505         0.26281
O         39.44039        47.76816         2.88297
H         38.59324        47.64563         3.37208
O         53.79067        56.51466         2.28930
H         52.98025        55.97897         2.55115
H         29.51008        56.65001        -0.72349
H         28.38646        58.84135        -1.39813
H         30.81415        62.20991        -2.60287
H         28.61431        61.12232        -2.34066
H         31.87088        52.40646         0.39054
H         30.67624        54.51640        -0.03993
H         33.16581        62.27276        -1.96379
H         34.31798        48.13808         0.61119
H         33.44323        50.62777         1.91632
H         35.61838        62.51104        -0.86976
H         36.80816        43.87093         0.29004
H         35.60305        45.94319         0.53333
H         37.86701        62.56010        -0.04711
H         39.23759        39.56568        -0.08311
H         37.99928        41.73555         0.06720
H         40.28578        62.59308         0.40202
H         41.70432        35.33328        -0.41181
H         40.46715        37.41954        -0.09756
H         42.70104        62.58676         0.71307
H         45.19526        31.97673        -0.74057
H         43.03101        33.16044        -0.72969
H         45.16135        62.59627         0.58975
H         47.32030        33.15479        -0.31651
H         48.55325        35.26983         0.10218
H         47.61733        62.61170         0.40293
H         49.77560        37.41242         0.26226
H         50.38436        39.86138        -1.36662
H         50.07849        62.63359         0.30548
H         51.66411        41.91797        -1.50842
H         53.54906        43.86865        -0.62095
H         52.58033        62.60489         0.04179
H         54.74044        45.97584        -0.33323
H         55.93902        48.09692        -0.06490
H         54.95867        62.56485        -0.47237
H         56.76021        50.46545         1.29269
H         58.43459        52.40200         0.02737
H         57.49854        62.57316        -0.61421
H         59.30076        54.86373         1.16073
H         60.89328        56.66343        -0.37119
H         59.98130        62.57947        -0.57358
H         62.12125        58.82305        -0.66980
H         62.10999        61.31086        -0.72646
