         640
 CSIRO Nanostructure Databank - Neutral Graphene Oxide Data Set
C         23.39418        27.25005        -1.75429
C         23.32434        28.63693        -1.69308
C         23.58515        31.59950        -2.19560
C         23.58394        32.94761        -2.21333
C         23.13669        35.96015        -1.25360
C         23.27493        37.27743        -0.94980
C         23.14607        40.15263         0.24611
C         23.09124        41.55917         0.06126
C         23.00528        44.48531        -0.47567
C         22.98422        45.86868        -0.63574
C         25.71869        24.47548        -0.75346
C         24.60674        25.13860        -1.27120
C         25.54285        27.30993        -0.59323
C         24.49669        26.56223        -1.19022
C         25.53345        28.71658        -0.67685
C         24.39661        29.39117        -1.18868
C         25.56234        31.60002        -0.73337
C         24.25738        30.88987        -1.02996
C         25.54377        32.99729        -0.68386
C         24.32183        33.67263        -1.17588
C         25.71049        35.92950         0.13032
C         23.94197        34.89754        -0.67633
C         25.60594        37.29735        -0.02551
C         24.22002        37.91483         0.08786
C         25.43304        40.10614        -0.73200
C         24.25538        39.41852        -0.08276
C         25.46831        41.59509        -0.49002
C         24.23332        42.29215        -0.29792
C         25.44805        44.42010        -0.57733
C         24.21337        43.73930        -0.43530
C         25.43381        45.86136        -0.88872
C         24.17023        46.60607        -0.82336
C         25.40513        48.73586        -0.83757
C         24.21163        48.01626        -0.89123
C         27.95439        22.96767         0.54979
C         27.79877        24.42817         0.63367
C         26.70125        25.14071        -0.01669
C         27.94076        27.33816         0.17283
C         26.59530        26.62819         0.24754
C         27.95304        28.75289        -0.08221
C         26.75076        29.45281        -0.36447
C         28.00080        31.58099        -0.43731
C         26.76020        30.86785        -0.48930
C         27.98665        33.00703        -0.47501
C         26.78001        33.71534        -0.44063
C         28.02364        35.90150        -0.46683
C         26.85009        35.17289        -0.25029
C         28.03113        37.32148        -0.44718
C         26.79169        38.03178        -0.32218
C         27.97463        40.15122        -0.56752
C         26.76394        39.43580        -0.48497
C         27.95226        41.59300        -0.58497
C         26.68900        42.29253        -0.55535
C         27.92858        44.44792        -0.46360
C         26.68225        43.73162        -0.53465
C         27.89030        45.93275        -0.14268
C         26.71997        46.64204        -0.77893
C         27.89688        48.81640        -0.54437
C         26.66674        48.11664        -0.67992
C         27.95637        50.24005        -0.53558
C         30.36860        23.08656         1.04574
C         29.12748        22.35944         0.85014
C         30.37050        24.50360         0.93094
C         29.10657        25.24101         0.87722
C         30.38194        27.35758         0.50259
C         29.11984        26.66662         0.47904
C         30.41677        28.74994         0.24439
C         29.19968        29.46371        -0.06445
C         30.51042        31.53693        -0.52438
C         29.21450        30.85287        -0.32399
C         30.52575        33.02286        -0.86886
C         29.28943        33.76665        -0.33661
C         30.52783        35.92552        -0.76749
C         29.22809        35.16873        -0.98283
C         30.50471        37.30469        -0.74065
C         29.25466        38.03802        -0.63501
C         30.46228        40.20973        -0.54427
C         29.23272        39.45441        -0.59044
C         30.42459        41.61619        -0.45934
C         29.16330        42.31308        -0.51641
C         30.39991        44.47477        -0.20352
C         29.12527        43.74898        -0.42820
C         30.41858        45.96750        -0.19851
C         29.16320        46.69773        -0.40043
C         30.41380        48.81797        -0.47281
C         29.15403        48.08337        -0.48013
C         30.41053        50.23253        -0.49620
C         29.15122        50.91751        -0.51714
C         32.81240        20.28153         1.37236
C         31.65488        20.97297         1.46004
C         32.83923        23.10206         1.06674
C         31.59729        22.39066         1.15525
C         32.83375        24.53091         1.01074
C         31.59697        25.22315         0.90384
C         32.82612        27.36268         0.88773
C         31.59802        26.65498         0.77307
C         32.82319        28.77869         0.76473
C         31.65314        29.44170         0.40132
C         32.96045        31.61703         0.23718
C         31.74329        30.84177        -0.05171
C         32.85265        33.11514         0.36830
C         31.75056        33.79124        -0.40636
C         32.97131        35.92100        -0.22632
C         31.75630        35.17421        -0.51370
C         32.99682        37.33069        -0.36436
C         31.79591        38.06248        -0.93604
C         32.91502        40.23018        -0.42107
C         31.72928        39.52612        -0.55917
C         32.92917        41.65935        -0.34009
C         31.66721        42.36824        -0.41593
C         32.91816        44.51279        -0.75604
C         31.66088        43.75358        -0.42154
C         32.89304        45.99079        -0.44026
C         31.69349        46.68723        -0.39120
C         32.89179        48.82480        -0.48825
C         31.66007        48.11507        -0.42877
C         32.87169        50.24279        -0.58222
C         31.65834        50.95305        -0.52613
C         32.85510        53.10023        -0.37242
C         31.69733        52.39153        -0.37332
C         35.35666        18.80857         1.05221
C         35.32840        20.20745         1.00520
C         34.02431        20.91755         0.73946
C         35.30177        23.09316         1.02985
C         34.06935        22.39922         1.01899
C         35.31131        24.52649         1.06918
C         34.07536        25.24417         1.04032
C         35.31995        27.38161         1.07293
C         34.07505        26.66396         1.03077
C         35.34474        28.80280         1.04667
C         34.04650        29.55818         1.17015
C         35.34828        31.67755         0.75752
C         34.09587        30.96861         0.63579
C         35.36566        33.10313         0.54306
C         34.18014        33.80894         0.25838
C         35.41724        35.92410         0.18705
C         34.18951        35.21597         0.07230
C         35.40929        37.36464         0.12983
C         34.18005        38.04475        -0.16205
C         35.29529        40.23345         0.27295
C         34.24123        39.50874        -0.53808
C         35.35312        41.70719         0.17261
C         34.13397        42.38595        -0.13641
C         35.32264        44.54434        -0.05980
C         34.15791        43.82513        -0.24553
C         35.36371        45.98101        -0.22718
C         34.13610        46.70015        -0.40016
C         35.39143        48.82355        -0.41373
C         34.14046        48.11795        -0.43727
C         35.41857        50.24293        -0.54336
C         34.14654        50.94782        -0.78975
C         35.42725        53.15008        -0.46211
C         34.13766        52.47403        -0.71849
C         35.45788        54.55257        -0.32253
C         37.79114        18.79688         1.12595
C         36.55810        18.11439         1.13933
C         37.78528        20.22266         1.06671
C         36.54474        20.93221         1.03527
C         37.77292        23.08614         1.01186
C         36.54489        22.37468         1.01427
C         37.78075        24.51908         1.04308
C         36.54755        25.23616         1.08047
C         37.79313        27.38297         1.15706
C         36.55483        26.66810         1.10123
C         37.80671        28.81244         1.21655
C         36.55404        29.51553         1.10745
C         37.76801        31.67953         1.11506
C         36.53529        30.96546         0.99093
C         37.79783        33.10619         0.98371
C         36.60207        33.81223         0.65988
C         37.85686        35.93341         0.63613
C         36.62366        35.22511         0.48590
C         37.91768        37.38667         0.24241
C         36.59534        38.07359         0.37117
C         37.75977        40.27369         1.13671
C         36.52001        39.49149         0.71850
C         37.78515        41.69552         0.60101
C         36.55574        42.38502         0.38411
C         37.83454        44.55464         0.21249
C         36.53187        43.88283         0.55399
C         37.84127        45.94948        -0.02322
C         36.59225        46.67675        -0.15978
C         37.85870        48.81127        -0.29815
C         36.61535        48.10199        -0.29051
C         37.87248        50.23990        -0.37186
C         36.62918        50.95863        -0.47749
C         37.87846        53.11288        -0.37768
C         36.63529        52.41159        -0.45614
C         37.88789        54.53776        -0.36721
C         36.65747        55.23455        -0.29184
C         40.29470        15.98107         1.13744
C         39.10096        16.66356         1.22357
C         40.26089        18.80292         0.94780
C         39.04968        18.08023         1.11211
C         40.25149        20.23607         0.88713
C         39.02042        20.94406         0.98141
C         40.24214        23.08678         0.85561
C         39.01449        22.37170         0.95655
C         40.24244        24.51606         0.88719
C         39.01706        25.23270         1.01607
C         40.26041        27.38054         1.08567
C         39.02635        26.66395         1.10618
C         40.28307        28.80033         1.31146
C         39.04112        29.52092         1.39999
C         40.00077        31.80762         1.92311
C         38.94627        30.97630         1.48319
C         40.17023        33.15341         1.59485
C         39.01602        33.83855         1.14882
C         40.27712        35.98812         1.17368
C         39.02624        35.26546         0.98001
C         40.30146        37.41415         1.06356
C         39.08197        38.14339         0.83540
C         40.27270        40.28355         1.07382
C         39.05601        39.52251         0.94328
C         40.23228        41.67975         0.83628
C         39.01161        42.37698         0.55473
C         40.26304        44.50826         0.10818
C         39.03507        43.82012         0.28130
C         40.28438        45.89553        -0.07959
C         39.07735        46.64286        -0.13601
C         40.31193        48.79939        -0.24717
C         39.09436        48.08895        -0.24740
C         40.34132        50.22043        -0.27034
C         39.11021        50.94371        -0.34789
C         40.33898        53.09354        -0.37630
C         39.12321        52.39122        -0.37046
C         40.35192        54.51706        -0.43872
C         39.13728        55.24832        -0.45797
C         40.36276        57.32846        -0.80966
C         39.17483        56.66424        -0.64285
C         42.74545        15.98328         0.77548
C         41.51262        16.67813         0.91697
C         42.71839        18.80763         0.60239
C         41.49860        18.09831         0.83081
C         42.70627        20.24006         0.54665
C         41.47696        20.94932         0.71552
C         42.69586        23.09053         0.51938
C         41.47324        22.37577         0.70392
C         42.69355        24.52211         0.53576
C         41.47178        25.23224         0.75094
C         42.69658        27.35053         0.57014
C         41.47450        26.65617         0.82839
C         42.72231        28.78061         0.71811
C         41.59146        29.43680         1.24595
C         42.81336        31.61739         1.19771
C         41.82698        30.76869         1.69511
C         42.76546        33.07918         1.32838
C         41.51066        33.83120         1.87473
C         42.68193        36.00565         1.41048
C         41.46829        35.28598         1.42821
C         42.71072        37.40752         1.44351
C         41.50395        38.13156         1.31532
C         42.75010        40.26224         1.26594
C         41.51679        39.57953         1.25302
C         42.78505        41.71895         1.09903
C         41.48183        42.45976         0.85747
C         42.80864        44.49279         0.19344
C         41.53467        43.70291        -0.02089
C         42.83666        45.86423         0.09454
C         41.58460        46.57819        -0.26510
C         42.84349        48.79491         0.01776
C         41.59750        48.08240        -0.32250
C         42.81078        50.22311         0.04310
C         41.60206        50.90558        -0.20012
C         42.84799        53.10309        -0.05782
C         41.64567        52.35819        -0.58799
C         42.83663        54.54584        -0.28005
C         41.60334        55.22499        -0.50660
C         42.83509        57.32783        -0.81090
C         41.60509        56.63025        -0.72236
C         43.91304        16.66838         0.52938
C         45.15085        18.81223         0.15117
C         43.93192        18.08909         0.42821
C         45.14004        20.23540         0.11093
C         43.91679        20.95336         0.32129
C         45.13694        23.09684         0.08310
C         43.91237        22.38096         0.30075
C         45.15053        24.52068         0.11838
C         43.91003        25.23675         0.31891
C         45.11497        27.38527        -0.19132
C         43.88185        26.64928         0.27810
C         45.13523        28.85278         0.16458
C         43.94077        29.52180         0.51223
C         45.14255        31.66770         0.37893
C         43.95382        30.94933         0.63151
C         45.06687        33.16280         0.23024
C         43.87878        33.78882         0.95990
C         45.20514        35.98950         0.94017
C         43.89759        35.26579         1.01493
C         45.26504        37.41571         1.34601
C         43.99652        38.12114         1.78925
C         45.21098        40.25528         1.34402
C         44.00186        39.57588         1.39212
C         45.24182        41.64547         0.95967
C         44.06110        42.33697         0.73765
C         45.29507        44.49969         0.57645
C         44.09751        43.71329         0.12920
C         45.28685        45.90872         0.53000
C         44.06143        46.63450         0.23890
C         45.29051        48.82807         0.37807
C         44.03811        48.05395         0.19338
C         45.19688        50.28846         0.62014
C         44.02612        50.97511         0.38140
C         45.20322        53.23635         0.68984
C         43.95716        52.44799         0.42029
C         45.33522        54.67591         0.14487
C         44.02931        55.27732        -0.30365
C         44.02459        56.65710        -0.60126
C         47.53535        18.82735        -0.36063
C         46.37254        18.13495        -0.09062
C         47.55825        20.24225        -0.38674
C         46.35250        20.95331        -0.13887
C         47.57835        23.10247        -0.32518
C         46.35177        22.38679        -0.13794
C         47.58342        24.54474        -0.26702
C         46.38223        25.22184        -0.01892
C         47.61421        27.43938        -0.20126
C         46.39061        26.70010         0.28991
C         47.59129        28.84963        -0.18454
C         46.34648        29.55948         0.06689
C         47.59900        31.71702         0.05736
C         46.34925        30.98463         0.16204
C         47.62768        33.10959         0.31313
C         46.39225        33.84529         0.53395
C         47.72502        35.83703         1.16224
C         46.43929        35.17768         0.85019
C         47.72322        37.31606         1.47604
C         46.44841        38.07462         1.41375
C         47.76240        40.23232         1.24558
C         46.49353        39.55424         1.75001
C         47.73870        41.64506         1.00395
C         46.50866        42.34479         0.88418
C         47.72013        44.47880         0.93641
C         46.49403        43.77034         0.79747
C         47.68874        45.89435         1.04080
C         46.50373        46.60213         0.82696
C         47.63461        48.78377         1.54845
C         46.55046        48.08419         0.73019
C         47.70040        50.24464         1.15876
C         46.38120        50.97711         1.28655
C         47.71132        52.96304         0.24085
C         46.47216        52.46441         0.90706
C         47.57258        54.04808        -0.71968
C         46.43424        54.75357        -0.88667
C         49.97304        20.31353        -1.01088
C         48.78526        20.97373        -0.63137
C         50.09594        23.12698        -0.48761
C         48.77980        22.39251        -0.53902
C         49.98792        24.59347        -0.82864
C         48.81042        25.27752        -0.55592
C         49.96947        27.48128        -0.81781
C         48.79245        26.74341        -0.54627
C         49.99339        28.88937        -0.70145
C         48.79126        29.58708        -0.38635
C         50.02209        31.74186        -0.39599
C         48.80124        31.01689        -0.23788
C         50.03832        33.13508        -0.17358
C         48.87083        33.81312         0.26098
C         50.17862        35.89204         0.64213
C         48.95520        35.19236         0.66977
C         50.27144        37.30566         1.09385
C         49.01637        38.07602         1.43798
C         50.21927        40.22014         0.95041
C         48.98458        39.54332         1.20448
C         50.22876        41.64392         0.80264
C         48.97262        42.36002         0.85265
C         50.17967        44.51862         0.66484
C         48.95822        43.77471         0.84296
C         50.21187        45.89126         0.82694
C         48.98076        46.58180         1.27037
C         50.21833        48.80034         1.04903
C         48.98903        48.06458         1.43106
C         50.16476        50.17293         0.94641
C         48.88833        50.88739         0.91387
C         50.11712        52.70289        -0.29266
C         48.88573        52.23841         0.33453
C         51.12987        21.04301        -1.37138
C         52.40431        23.17044        -1.70460
C         51.20836        22.40355        -1.20109
C         52.39849        24.62201        -1.29485
C         51.21620        25.29272        -1.11588
C         52.46496        27.50530        -1.22139
C         51.15773        26.77562        -1.40221
C         52.45650        28.92609        -1.12642
C         51.22794        29.63320        -0.88077
C         52.48566        31.76042        -0.81110
C         51.24188        31.03263        -0.72691
C         52.51690        33.16528        -0.63069
C         51.23325        33.95249        -0.58432
C         52.59409        35.95260         0.12206
C         51.34239        35.28258         0.11925
C         52.66541        37.37411         0.46031
C         51.47813        38.07841         0.73406
C         52.69231        40.20510         0.65115
C         51.46304        39.49754         0.79998
C         52.69502        41.66211         0.53172
C         51.43463        42.33985         0.57747
C         52.65652        44.55575         0.30487
C         51.37578        43.78150         0.14413
C         52.65365        45.91702         0.41108
C         51.42854        46.65581         0.68702
C         52.68560        48.79611         0.64829
C         51.43765        48.05269         0.80274
C         52.69002        50.20517         0.77214
C         51.42188        51.00658         0.94916
C         51.30974        52.12907        -0.04926
C         54.89276        23.18922        -1.55800
C         53.72731        22.49456        -1.45336
C         54.92085        24.62327        -1.63559
C         53.71239        25.33144        -1.07607
C         54.89868        27.51062        -1.51161
C         53.66739        26.81217        -1.34629
C         54.90667        28.93426        -1.44892
C         53.68881        29.63653        -1.19883
C         54.94368        31.76321        -1.13279
C         53.70609        31.05547        -1.04155
C         54.97422        33.16994        -0.91384
C         53.74061        33.86868        -0.63480
C         55.06435        35.90448        -0.13416
C         53.75021        35.26266        -0.30155
C         55.15476        37.31388         0.35385
C         53.89888        38.08591         0.47826
C         55.19227        40.28489         0.79279
C         53.91073        39.48512         0.58953
C         55.15277        41.59298        -0.00402
C         53.88262        42.35544         0.27917
C         55.17510        44.52776         0.38074
C         53.91422        43.82012        -0.08209
C         55.17044        45.92238         0.46446
C         53.91733        46.66519         0.04626
C         55.13188        48.82246         0.46014
C         53.90984        48.11850         0.44133
C         55.11450        50.21999         0.64541
C         53.90757        50.89839         0.76755
C         57.30778        24.69725        -2.31129
C         56.09508        25.35398        -1.90998
C         57.30571        27.51815        -2.03893
C         56.10273        26.79355        -1.80338
C         57.33121        28.94591        -1.92377
C         56.13157        29.65220        -1.61205
C         57.37726        31.78710        -1.63054
C         56.15178        31.07060        -1.45894
C         57.39733        33.21186        -1.45025
C         56.20410        33.86648        -1.07202
C         57.49520        36.09461        -1.02777
C         56.19925        35.32790        -0.91324
C         57.61281        37.43986        -0.43599
C         56.45791        38.04587         0.24363
C         57.68298        40.27202         0.07658
C         56.47740        39.52646         0.48972
C         57.66911        41.69332         0.19179
C         56.41756        42.38797         0.26428
C         57.64637        44.43633         0.84644
C         56.38146        43.76277         0.49534
C         57.63244        45.99355         0.91158
C         56.37010        46.68021         0.61802
C         57.64366        48.75120         0.33837
C         56.39567        48.07974         0.43412
C         58.46283        25.39991        -2.53492
C         59.69423        27.54925        -2.60596
C         58.49916        26.82012        -2.39194
C         59.72114        28.92314        -2.47090
C         58.55167        29.65781        -2.12923
C         59.76402        31.84496        -2.16855
C         58.56990        31.08950        -1.98064
C         59.79685        33.20584        -1.98200
C         58.63737        33.94446        -1.59824
C         59.93608        36.07485        -1.30228
C         58.71966        35.33705        -1.32348
C         59.97613        37.41565        -0.98256
C         58.81784        38.13100        -0.51487
C         60.07208        40.31432        -0.33539
C         58.86590        39.56740        -0.22087
C         60.09924        41.67166        -0.09420
C         58.91221        42.40088         0.19229
C         60.10637        44.55729         0.61015
C         58.92720        43.79296         0.53679
C         60.09781        45.95223         0.68024
C         58.89976        46.68947         0.67286
C         58.85277        48.07656         0.40337
O         49.91095        37.61360         2.49544
O         31.37508        30.84348        -1.51037
O         55.31943        36.18479         1.29141
O         49.19265        47.19818         2.60206
O         26.29063        46.15030        -2.07554
O         46.36551        48.54451        -0.63901
O         45.84948        53.22574         2.01542
O         28.16230        24.95400         1.96537
O         40.99618        31.23195         2.72307
O         41.70778        47.25852        -1.56498
O         42.10142        42.54455         2.16171
O         47.73157        36.32901         2.56514
O         35.37544        39.75370         1.65208
O         24.56645        35.22663         0.55414
O         34.14078        51.77237        -2.00793
O         30.39731        45.21209         1.11672
O         44.37086        35.85559        -0.29079
O         57.61209        45.16103         2.10947
O         56.81950        38.59667         1.57455
O         56.48522        36.06691        -2.14746
O         33.00169        44.45864        -2.23484
H         33.87406        44.82700        -2.49213
O         46.39014        26.81428         1.74406
H         47.20482        26.38641         2.08169
O         33.82452        20.79400        -0.72224
H         33.00187        21.28227        -0.94028
O         50.92974        26.80761        -2.86798
H         50.68774        27.72788        -3.10713
O         50.96214        34.31651        -2.00757
H         50.88751        33.47639        -2.50954
O         41.83881        52.35369        -2.05657
H         41.09506        51.84638        -2.44677
O         26.14485        26.77462         1.64034
H         26.77357        26.24097         2.18621
O         51.48526        51.63727         2.27145
H         51.57777        50.92244         2.93603
O         29.52421        33.93261         1.08157
H         28.75077        34.39142         1.47146
O         25.20722        39.94863        -2.19490
H         25.91697        40.44949        -2.65179
O         53.94866        43.84714        -1.57672
H         53.01685        43.63134        -1.85109
O         33.87953        29.77622         2.62921
H         33.91372        28.89526         3.06033
O         51.19860        43.71054        -1.34911
H         50.86531        44.58799        -1.63903
O         53.93943        46.67221        -1.42503
H         54.03500        45.72751        -1.71176
O         53.90517        25.24604         0.39635
H         54.75991        25.68185         0.60233
O         23.37384        31.06460         0.12382
H         23.33661        32.02575         0.31789
O         34.63099        39.56869        -1.93811
H         33.90119        39.14830        -2.45145
O         44.32828        43.47230        -1.32115
H         44.48564        44.34780        -1.73629
O         46.53018        39.62555         3.21871
H         47.32075        39.12746         3.52236
O         44.80614        33.37774        -1.19629
H         44.65842        34.35115        -1.30387
O         50.48063        23.11233         0.95145
H         50.57002        22.17088         1.21388
O         47.17938        48.64532         2.90654
H         47.85499        49.02423         3.50494
O         44.06139        38.09186         3.25214
H         44.83395        38.65027         3.51924
O         52.25552        23.19467        -3.17545
H         52.90744        23.83659        -3.52913
O         41.67802        33.88234         3.31815
H         41.59756        32.95771         3.64649
O         41.55204        43.17922        -1.38421
H         41.71003        43.92876        -1.99602
O         28.98378        35.11014        -2.41150
H         29.60328        34.44767        -2.80173
O         36.37003        44.09929         2.00775
H         35.54978        43.63755         2.28434
O         32.04124        38.08920        -2.39778
H         31.83346        37.19561        -2.74745
O         45.12467        27.30066        -1.64713
H         44.34037        27.78141        -1.98473
O         23.67232        37.64731         1.39841
H         23.69832        36.66961         1.52105
O         46.06752        50.88401         2.70450
H         45.65258        51.74442         2.95944
O         55.13314        41.24351        -1.41756
H         54.90642        42.07201        -1.90388
O         32.44215        33.28517         1.78836
H         33.12759        32.85429         2.34422
O         55.23536        40.65352         2.18771
H         55.59627        39.87948         2.67645
O         37.68276        40.44444         2.58602
H         36.72315        40.47761         2.81223
O         30.52734        33.06272        -2.32273
H         31.05689        32.28069        -2.61498
O         45.77498        55.56110         1.21213
H         46.20343        54.99124         1.89543
O         38.20928        37.36995        -1.21316
H         39.04821        36.87586        -1.33613
O         27.68117        46.01155         1.30631
H         28.52222        45.69418         1.71759
H         22.57326        26.67367        -2.20455
H         22.42517        29.14883        -2.06380
H         23.01915        31.02649        -2.94420
H         23.00738        33.51440        -2.96011
H         22.44065        35.68201        -2.06162
H         22.63733        37.98361        -1.50598
H         22.26947        39.63997         0.66789
H         22.14837        42.07803         0.28065
H         22.04636        43.96009        -0.36667
H         22.02117        46.39968        -0.61515
H         25.78897        23.38588        -0.88772
H         23.81704        24.56719        -1.77863
H         25.34158        49.83314        -0.85220
H         23.26059        48.56823        -0.92431
H         27.08300        22.35675         0.27379
H         27.02307        50.81887        -0.56392
H         29.17247        21.26173         0.81760
H         29.12946        52.01486        -0.53951
H         32.83273        19.21959         1.65494
H         30.75099        20.47592         1.84108
H         32.83048        54.16418        -0.09853
H         30.76423        52.92270        -0.14152
H         34.42121        18.23593         0.99504
H         34.52026        55.12316        -0.29725
H         36.52816        17.01759         1.16835
H         36.64020        56.32961        -0.22643
H         40.31274        14.88502         1.22275
H         38.17743        16.09140         1.38224
H         40.37280        58.41447        -0.98079
H         38.23860        57.23526        -0.69181
H         42.75310        14.88648         0.85256
H         42.82891        58.41033        -1.00262
H         44.84374        16.09733         0.41582
H         44.97838        57.20159        -0.61466
H         48.45540        18.25621        -0.54099
H         46.40993        17.03817        -0.07283
H         48.40342        54.22898        -1.41569
H         46.37123        55.51802        -1.67505
H         49.98702        19.22429        -1.14251
H         50.07645        53.56896        -0.96717
H         51.96276        20.49622        -1.83663
H         52.22146        52.51464        -0.52858
H         55.84314        22.63390        -1.54557
H         53.75846        21.39951        -1.35900
H         56.05198        50.78918         0.69345
H         53.90639        51.98957         0.89779
H         57.31296        23.60614        -2.43621
H         57.66032        49.83304         0.15050
H         59.38196        24.87309        -2.82988
H         60.61038        27.00581        -2.87878
H         60.67072        29.44789        -2.63866
H         60.69196        31.33738        -2.46267
H         60.74745        33.73306        -2.13747
H         60.87862        35.57720        -1.56893
H         60.94390        37.93166        -1.03308
H         61.01545        39.80347        -0.56952
H         61.06378        42.19570        -0.13082
H         61.07897        44.05632         0.50738
H         61.05326        46.49381         0.62146
H         59.79407        48.62497         0.25366
