         349
 CSIRO Nanostructure Databank - Neutral Graphene Oxide Data Set
C          2.67429         2.84721        -4.49081
C          2.78675         4.25312        -4.54253
C          3.57558         1.93276        -3.94391
C          3.84657         5.06488        -4.05636
C          2.42573         7.10751        -3.66852
C          2.30991         8.44691        -3.29953
C          3.63907         6.38855        -3.56923
C          3.33656         9.14084        -2.60481
C          2.29756        11.41813        -2.84243
C          2.24438        12.74211        -2.51208
C          3.31531        10.52180        -2.35366
C          3.17503        13.37595        -1.56471
C          1.46601        15.23629        -0.88614
C          1.36209        16.52146        -0.47653
C          2.79272        14.57283        -0.74673
C          2.50310        17.19404         0.11584
C          2.51959        18.60460         0.20649
C          4.93245         2.29302        -3.70470
C          5.16681         4.49498        -3.87351
C          5.81539         1.87909        -2.73033
C          6.14925         4.94955        -3.03219
C          4.80108         7.10484        -2.98649
C          4.44539         8.24885        -2.04945
C          6.10413         6.38326        -2.69763
C          5.70983         9.04206        -1.65478
C          4.42397        11.12813        -1.57769
C          4.33072        12.55881        -1.10359
C          5.23194        10.18143        -0.71141
C          5.11495        12.96086         0.07344
C          3.43208        14.90715         0.63759
C          3.60621        16.43141         0.60470
C          4.74627        14.08406         1.03909
C          4.72344        17.07564         1.12233
C          3.64267        19.25734         0.67181
C          4.77527        18.51199         1.11095
C          7.04739         2.57748        -2.42448
C          7.35201         4.08160        -2.69413
C          8.05917         1.82883        -1.87497
C          8.16937         4.64947        -1.52722
C          7.23004         6.99969        -1.86056
C          6.78540         8.18327        -1.03960
C          8.04607         6.01156        -1.05587
C          7.59366         8.66999        -0.03967
C          6.39925        10.83225        -0.00418
C          6.22146        12.20197         0.42343
C          7.36651         9.99160         0.52030
C          7.16445        12.74550         1.38372
C          6.01134        14.88993         1.37152
C          5.81621        16.31586         1.84589
C          7.15031        14.18905         1.67631
C          7.11523        17.07683         1.92378
C          5.95039        19.18076         1.49446
C          7.14819        18.47359         1.80303
C          9.27333         2.43026        -1.37551
C          9.16973         3.84037        -1.02330
C         10.38234         1.68721        -1.04833
C         10.07292         4.31526         0.03772
C          8.87197         6.54284        -0.06088
C          8.78587         7.93026         0.37211
C          9.89998         5.71215         0.58748
C          9.80353         8.52047         1.12414
C          8.22897        10.47061         1.61415
C          7.97198        11.84739         2.02466
C          9.62495         9.83652         1.83728
C          9.77617        12.86357         2.80820
C          8.48679        14.90491         1.89536
C          8.32671        16.35420         2.33095
C          9.68539        14.21637         2.55980
C          9.61914        17.15198         2.45328
C          8.39772        19.18650         1.78667
C          9.60944        18.53864         1.95574
C         11.59128         2.34173        -0.53195
C         11.43868         3.73502         0.05782
C         12.75152         1.59181        -0.07844
C         12.42167         4.22412         1.04104
C         11.08064         6.35169         1.20430
C         11.02177         7.78563         1.42497
C         12.22070         5.59882         1.52076
C         12.12360         8.48977         1.88832
C         10.86159        10.62916         2.21686
C         10.94552        12.02843         2.56874
C         12.09521         9.93458         2.04957
C         12.19422        12.71225         2.52975
C         10.93778        14.97364         2.77709
C         10.95894        16.47366         2.58907
C         12.24069        14.17521         2.81707
C         12.22932        17.19990         2.19513
C         10.80945        19.09404         1.41026
C         12.05314        18.47297         1.40077
C         13.74962         2.15148         0.69988
C         13.56866         3.48106         1.30315
C         14.98328         1.35498         0.71652
C         14.49683         4.11503         2.36239
C         13.38253         6.28787         2.02298
C         13.33766         7.74732         2.39061
C         14.57068         5.60287         2.18496
C         14.63895         8.42077         2.03717
C         13.34525        10.61909         2.06767
C         13.38819        12.00849         2.25046
C         14.54995         9.84379         1.56403
C         14.68761        12.74011         2.25006
C         13.55635        14.96276         2.70806
C         13.45451        16.35729         2.10784
C         14.70887        14.20409         2.08904
C         14.69418        16.96970         1.93367
C         13.03543        18.97513         0.47440
C         14.40110        18.74576         0.65126
C         16.00974         1.43232         1.61215
C         15.86076         3.50687         2.43324
C         17.37309         0.99859         1.49590
C         17.06228         4.12008         2.19960
C         15.84705         6.27741         2.21694
C         15.82765         7.72908         2.03354
C         17.04694         5.57323         2.14997
C         17.08934         8.39816         1.72905
C         15.87898        10.53673         1.64407
C         15.93076        11.99092         1.88457
C         17.04123         9.83155         1.51466
C         17.11360        12.74085         1.42770
C         15.88595        14.87504         1.70859
C         15.88821        16.30930         1.58446
C         17.09745        14.13292         1.42874
C         17.05898        17.20194         1.14029
C         15.48098        18.78198        -0.25393
C         16.75106        18.19362        -0.00338
C         18.42763         1.85203         1.85406
C         18.35128         3.39251         1.77444
C         19.70828         1.26667         1.86731
C         19.60243         4.09045         2.37573
C         18.33998         6.33068         2.36909
C         18.30325         7.73166         1.81158
C         19.60513         5.57137         2.04821
C         19.57010         8.40590         1.62345
C         18.30976        10.50351         1.07238
C         18.30474        12.00734         1.17867
C         19.56893         9.92003         1.69654
C         19.49609        12.66618         0.88075
C         18.34293        14.85249         1.12921
C         18.31734        16.35714         0.84804
C         19.49683        14.07050         0.66375
C         19.34651        16.82288        -0.09636
C         17.82264        18.64022        -0.78645
C         19.13638        18.09388        -0.76907
C         20.91908         1.99635         1.86440
C         20.90265         3.41971         2.00069
C         22.11813         1.31378         1.53032
C         22.08952         4.16521         1.83093
C         20.78330         6.25758         1.78037
C         20.76115         7.71260         1.60209
C         22.05116         5.56510         1.72991
C         22.04492         8.48670         1.60329
C         20.77642        10.58535         1.07514
C         20.73937        11.92173         0.77196
C         22.05679         9.82165         0.87798
C         21.92014        12.62573         0.30095
C         20.59041        14.68050         0.02918
C         20.45172        16.04168        -0.41612
C         21.78729        13.91144        -0.20958
C         21.49953        16.61197        -1.28936
C         20.21308        18.72275        -1.40992
C         21.46981        18.07109        -1.55163
C         23.32805         1.99766         1.35844
C         23.41395         3.42075         1.86573
C         24.44780         1.35906         0.82094
C         24.58405         4.19581         1.30070
C         23.27229         6.32247         1.26332
C         23.36240         7.78571         1.67484
C         24.56799         5.57277         1.37453
C         24.64303         8.53629         1.41002
C         23.23557        10.72707         1.25122
C         23.21231        11.97502         0.37066
C         24.60346        10.03034         1.32896
C         24.35527        12.60840        -0.09818
C         22.88778        14.37431        -1.13126
C         22.77075        15.84100        -1.52991
C         24.26442        13.90492        -0.71913
C         24.00974        16.61518        -1.74855
C         22.58614        18.65690        -2.12577
C         23.86262        17.99196        -2.20319
C         25.62961         2.07549         0.46672
C         25.71493         3.47896         0.75277
C         26.67739         1.44575        -0.24079
C         26.82093         4.19876         0.24984
C         25.81057         6.34866         1.25856
C         25.80866         7.84201         1.22636
C         26.98488         5.60205         0.63613
C         27.14518         8.50793         1.10673
C         25.84606        10.76240         0.86304
C         25.66524        11.85828        -0.19085
C         27.17612        10.04333         0.86373
C         26.88089        12.73383        -0.43718
C         25.38723        14.61630        -1.13492
C         25.24363        15.99652        -1.59263
C         26.72035        14.04051        -0.98455
C         26.46914        16.76950        -1.84399
C         24.95031        18.66372        -2.73970
C         26.30513        18.17143        -2.53713
C         27.75372         2.18034        -0.77014
C         27.79714         3.58230        -0.55647
C         28.86956         1.52274        -1.43153
C         28.85519         4.39819        -1.18516
C         28.10617         6.38184         0.08804
C         28.27486         7.68729         0.58631
C         29.11289         5.76198        -0.67491
C         29.56639         8.21582         0.47167
C         28.33215        10.79159         0.25463
C         28.16206        12.11326        -0.37110
C         29.61806        10.40319         0.51016
C         29.31303        12.79072        -0.84385
C         27.84955        14.76052        -1.46357
C         27.73830        16.05391        -2.02376
C         29.23573        14.25816        -1.17783
C         28.82612        16.69233        -2.68508
C         27.40456        18.60673        -3.37335
C         28.63265        17.94901        -3.37650
C         29.94318         2.20243        -1.90527
C         29.97855         3.67692        -1.91517
C         31.24617         4.41378        -2.05927
C         30.31708         6.44345        -0.99947
C         30.53751         7.73451        -0.42635
C         31.35900         5.72095        -1.71055
C         31.66676         8.59331        -0.79057
C         30.89193        10.98473        -0.00432
C         30.62097        12.21517        -0.83405
C         31.77403         9.93993        -0.68909
C         31.66996        12.84287        -1.49109
C         30.28456        14.73437        -2.15919
C         30.08397        16.00819        -2.83910
C         31.47321        14.04177        -2.22789
C         31.08281        16.57220        -3.63161
C         29.70141        18.48019        -4.17657
C         30.89229        17.80860        -4.29217
O         26.62059        18.00433        -1.10500
O          8.81100        16.81301         3.62384
O         25.40280        10.89572         2.23273
O         15.61032        12.26880         3.30815
O          4.41780         9.69923         0.31634
O         14.72909        18.36055         1.95617
O          3.61679        14.75725        -1.92497
O         11.97309         3.57118        -1.28801
O         27.46060         9.45371         2.15867
O          5.90645         7.23035        -3.91286
O          8.52273         9.63619         2.78127
O         21.74684        15.93483        -2.59181
O          5.41708         3.29954        -4.56544
O          9.43170         4.52061         1.32815
O         11.54281        14.54699         4.04499
O         11.73638        17.20524         3.58414
O          2.44256        14.63783         1.58097
O         29.88852         9.29101         1.31294
O         15.80220         2.16798         2.79805
O          8.60988        12.21069         3.19743
O         22.72960         8.28905         2.88995
O         26.87905         5.79998         2.09268
O         18.81081        15.85509         2.12572
O          5.18761        12.15714        -2.24918
O         28.86322         4.29609        -2.65152
O         22.67382        13.59887        -2.36647
H         22.01468        14.11298        -2.89276
O          8.99695        15.06926         0.50729
H          8.77470        14.25802         0.00074
O         25.54898        11.05771        -1.42711
H         25.12481        11.62040        -2.11085
O         19.57125        10.27295         3.09899
H         20.42975         9.99991         3.48742
O         29.60090        14.93347         0.09972
H         30.46883        14.56663         0.37736
O         13.99438        15.20917         4.08144
H         13.17738        15.44504         4.58573
O         31.66586        11.42787         1.15414
H         31.60270        10.71185         1.82393
O         19.46754         3.96031         3.83472
H         20.35247         4.11197         4.23173
O         23.08466         6.44972        -0.20380
H         22.97517         5.54742        -0.57397
O         14.28076         9.74172         0.09971
H         14.90514         9.07816        -0.26591
O         18.41337        10.19370        -0.35918
H         17.64416        10.59773        -0.81312
O          3.93139         7.55705        -0.89779
H          3.89888         8.23170        -0.14951
O         22.19286         9.50945        -0.53300
H         21.37826         9.05383        -0.83239
O          6.27056         9.65590        -2.81955
H          6.94385         9.04105        -3.20278
O          8.22656         4.11389        -3.85922
H          7.70973         3.74427        -4.60878
O         22.91886        11.19213         2.58431
H         23.76532        11.47498         3.00209
O          5.34352        16.16049         3.22919
H          4.80279        15.33501         3.25821
O         13.85629         3.87030         3.65284
H         14.04443         2.93496         3.88747
O         13.21033         7.78605         3.85545
H         13.83699         7.12846         4.22725
O          8.18712         7.55288        -2.83962
H          8.38090         6.84305        -3.49084
O          4.42979        13.44555         2.29708
H          3.44339        13.60548         2.42011
O         18.44680         3.65615         0.34454
H         17.70891         3.19199        -0.10388
O         17.40101        18.03767         2.26854
H         17.83002        17.45325         2.93385
O         18.39597         6.50408         3.83541
H         18.57182         5.60590         4.21186
O         23.71619         3.29820         3.30061
H         24.62563         2.94000         3.38234
H          1.67668         2.45394        -4.74394
H          1.85591         4.77538        -4.81386
H          3.21074         0.93828        -3.64738
H          1.56342         6.63299        -4.15913
H          1.38244         8.97544        -3.56564
H          1.53401        11.02256        -3.52849
H          1.46402        13.37611        -2.95761
H          0.62438        14.72010        -1.37091
H          0.43220        17.09128        -0.62164
H          1.64796        19.17724        -0.14128
H          5.57506         0.99205        -2.12399
H          3.68531        20.35560         0.69503
H          7.94818         0.73652        -1.79300
H          5.97063        20.28107         1.48105
H         10.39064         0.59864        -1.20457
H          8.38898        20.23313         1.44801
H         12.86286         0.55180        -0.42065
H         10.70850        20.04456         0.86426
H         15.12765         0.69963        -0.15576
H         12.67729        19.55436        -0.39034
H         17.60840        -0.01789         1.14196
H         15.34722        19.30638        -1.21349
H         19.77203         0.17230         1.76440
H         17.64159        19.48781        -1.46613
H         22.06541         0.24129         1.28805
H         20.08626        19.73972        -1.80963
H         24.37402         0.29540         0.54693
H         22.53978        19.70928        -2.44362
H         26.62420         0.36142        -0.41914
H         24.80254        19.61705        -3.26825
H         28.85937         0.42314        -1.47096
H         27.23612        19.43899        -4.07314
H         30.81472         1.65728        -2.29811
H         32.11694         3.87835        -2.46708
H         32.32305         6.22423        -1.87010
H         32.49854         8.09063        -1.31018
H         32.71291        10.37012        -1.07553
H         32.67239        12.39507        -1.47423
H         32.30943        14.41141        -2.83673
H         32.04704        16.06248        -3.75726
H         29.54554        19.43860        -4.69169
H         31.70722        18.22273        -4.90169
