         324
 CSIRO Nanostructure Databank - Neutral Graphene Oxide Data Set
C         30.33733        56.97972        -0.63888
C         30.33885        58.37102        -0.88281
C         29.14142        59.05697        -1.23935
C         30.33230        61.16420        -1.39279
C         29.15401        60.43053        -1.48742
C         32.75676        52.83138         0.20082
C         32.66397        54.24836         0.70751
C         31.48613        54.94804         0.10797
C         32.76687        57.03628        -0.19970
C         31.51960        56.29463        -0.25112
C         32.78151        58.43099        -0.46363
C         31.55898        59.10849        -0.77835
C         32.74479        61.25697        -0.92485
C         31.56355        60.52795        -1.03572
C         35.38327        48.64081         0.06076
C         35.28559        50.03553         0.32347
C         34.08819        50.75899         0.03702
C         35.09740        52.85727         0.95603
C         33.94011        52.12690         0.36067
C         35.16528        54.31007         0.67945
C         33.96854        54.98084         0.45777
C         35.22900        57.04397        -0.00757
C         33.98218        56.35991         0.09714
C         35.23574        58.43870        -0.34015
C         34.02097        59.13552        -0.46499
C         35.22369        61.17684        -1.33212
C         34.04281        60.64574        -0.49921
C         37.83594        44.39679         0.03654
C         37.81343        45.78782         0.28808
C         36.62786        46.51926         0.04771
C         37.72476        48.54189         0.87138
C         36.56703        47.90185         0.30682
C         37.58503        49.93345         1.27490
C         36.40228        50.68803         0.90000
C         37.66247        52.87398         1.16178
C         36.38016        52.12471         1.20837
C         37.65769        54.26966         0.86650
C         36.42729        54.97459         0.61239
C         37.70192        57.04366         0.13909
C         36.44978        56.35357         0.26027
C         37.69440        58.40217        -0.33839
C         36.50563        59.10246        -0.55988
C         37.69148        61.19932        -1.08759
C         36.52558        60.49802        -0.97276
C         40.30877        40.11562        -0.40003
C         40.25593        41.52789        -0.01602
C         39.04415        42.25147        -0.03607
C         40.20806        44.34033         0.61100
C         39.01584        43.65407         0.21342
C         40.22070        45.72130         0.85197
C         39.00232        46.45902         0.74410
C         40.14861        48.57447         1.43152
C         38.94573        47.86207         1.05247
C         40.16350        49.96626         1.50191
C         38.89778        50.72423         1.56499
C         40.11772        52.87074         1.27150
C         38.87549        52.17842         1.30766
C         40.12048        54.27253         1.02904
C         38.90328        54.97287         0.77726
C         40.18291        57.06506         0.31393
C         38.91704        56.36274         0.40327
C         40.22043        58.44672        -0.13872
C         38.98143        59.02955        -0.67254
C         40.23763        61.26818        -0.83603
C         38.99526        60.52893        -1.04495
C         42.70154        36.63551        -2.36202
C         42.71559        37.57276        -1.35949
C         41.45334        37.90149        -0.58919
C         42.66768        39.94920         0.41631
C         41.42062        39.36684        -0.22930
C         42.73861        41.46549         0.11136
C         41.43745        42.16354         0.36113
C         42.71786        44.32639         0.43600
C         41.46035        43.56119         0.88539
C         42.68256        45.73191         1.03446
C         41.47814        46.39308         1.19086
C         42.65746        48.54424         1.92109
C         41.34492        47.74938         1.88947
C         42.65486        50.03552         1.77105
C         41.38188        50.74636         1.61060
C         42.58161        52.93598         1.84114
C         41.34036        52.13578         1.50669
C         42.57308        54.32626         1.22758
C         41.38542        54.98458         0.94466
C         42.63060        57.14504         0.61381
C         41.36961        56.38726         0.59140
C         42.65354        58.59401         0.23503
C         41.38975        59.18923        -0.21683
C         42.68005        61.30860        -0.50098
C         41.42539        60.59964        -0.57354
C         45.26118        34.43966        -4.14981
C         44.04978        35.13970        -3.86355
C         45.06285        37.06844        -2.73969
C         43.91083        36.28580        -3.06965
C         45.18548        37.78267        -1.56591
C         43.95215        38.21421        -0.92583
C         45.21242        39.97612         0.32294
C         43.94975        39.31424        -0.08885
C         45.20277        41.41028         0.78314
C         43.93526        42.17886         0.70572
C         45.23738        44.30553         0.70637
C         43.94511        43.53286         0.81352
C         45.17761        45.72375         1.20252
C         43.95650        46.36974         1.29838
C         45.18069        48.56548         1.32728
C         43.93912        47.80688         1.66273
C         45.14552        50.03379         1.54028
C         43.84176        50.71936         1.76978
C         45.12826        52.93019         1.83234
C         43.85825        52.18381         1.40302
C         45.11814        54.36815         1.47101
C         43.86838        54.95932         0.90440
C         45.15611        57.22640         0.67521
C         43.91890        56.41050         0.51963
C         45.17600        58.55606         0.30312
C         43.93876        59.15989        -0.33414
C         45.14576        61.35732        -0.35652
C         43.91517        60.67339        -0.34029
C         46.55515        34.70312        -3.72667
C         47.89749        36.32853        -2.24731
C         46.94056        35.96609        -3.16636
C         47.81639        37.60887        -1.54782
C         46.51075        38.11106        -1.01355
C         47.74265        40.13756        -0.07771
C         46.52562        39.34946        -0.06611
C         47.64703        41.63301         0.03876
C         46.48196        42.17167         0.84478
C         47.73651        44.23054         1.46328
C         46.46145        43.51338         1.10174
C         47.69743        45.73799         1.33731
C         46.44922        46.43554         1.33199
C         47.68922        48.57191         1.45585
C         46.46864        47.84098         1.40471
C         47.70221        49.99772         1.62176
C         46.43450        50.70168         1.89367
C         47.71383        52.90242         1.72629
C         46.44307        52.21324         1.98606
C         47.68364        54.33475         1.32659
C         46.39868        55.06498         1.15117
C         47.70156        57.29854         0.95226
C         46.37127        56.56629         1.15743
C         47.64660        58.63286         0.34657
C         46.41577        59.28383         0.18549
C         47.61331        61.33800        -0.43736
C         46.39447        60.68007        -0.22557
C         48.96464        38.23340        -1.11026
C         50.14840        40.30058        -0.46919
C         48.95325        39.54770        -0.50969
C         50.17778        41.64656        -0.00356
C         48.95697        42.30163         0.34612
C         50.19041        44.31515         0.94546
C         48.98054        43.61469         0.84775
C         50.20471        45.67916         1.59563
C         48.90581        46.43692         1.39024
C         50.16330        48.59064         1.46688
C         48.92756        47.86277         1.42962
C         50.15688        50.00860         1.52346
C         48.90892        50.71772         1.65275
C         50.17399        52.86279         1.56222
C         48.90900        52.17504         1.68036
C         50.20111        54.35070         1.53051
C         48.93974        55.13790         1.44222
C         50.07623        57.10442         0.34609
C         48.94425        56.51764         0.86713
C         50.04721        58.45878        -0.15885
C         48.86640        59.22049        -0.12594
C         50.06185        61.29375        -0.72992
C         48.85951        60.63617        -0.46771
C         51.39546        42.34793         0.11677
C         52.63708        44.40890         0.65061
C         51.41677        43.68740         0.56204
C         52.65668        45.79336         0.94798
C         51.43472        46.48248         1.25463
C         52.64657        48.62584         1.29478
C         51.41874        47.88534         1.34825
C         52.63669        50.03314         1.38013
C         51.39395        50.73043         1.46480
C         52.67308        52.88399         1.49868
C         51.37502        52.16298         1.49215
C         52.71067        54.36463         1.22937
C         51.39706        54.96205         0.87606
C         52.61735        57.02008         0.04637
C         51.34198        56.32442         0.26867
C         52.55990        58.30384        -0.66967
C         51.24461        59.01336        -0.80922
C         52.58472        61.22271        -1.10388
C         51.27277        60.54868        -1.05134
C         53.86691        46.51402         0.88891
C         55.12098        48.58643         1.17185
C         53.90621        47.91447         1.12244
C         55.20916        50.03400         1.52975
C         53.89642        50.76766         1.34334
C         55.22649        52.91235         1.35764
C         53.92124        52.13180         1.30858
C         55.14084        54.31020         0.74883
C         53.93544        55.00650         0.71217
C         55.08717        57.04636        -0.04052
C         53.86202        56.36317         0.22627
C         55.07628        58.55001        -0.14534
C         53.83269        59.08009        -0.83405
C         55.05489        61.19882        -1.20910
C         53.77959        60.55382        -1.03170
C         56.34140        50.74245         0.83538
C         57.52974        52.80963         0.30587
C         56.38038        52.11252         0.78168
C         57.55078        54.20594         0.16388
C         56.32777        54.95407         0.29789
C         57.54426        57.02862        -0.35828
C         56.31015        56.34780        -0.03071
C         57.52654        58.41441        -0.74043
C         56.32837        59.13956        -0.74986
C         57.48909        61.21381        -1.68785
C         56.25360        60.50319        -1.18384
C         58.74463        54.90581        -0.17180
C         60.08762        56.95442        -0.59013
C         58.75389        56.27955        -0.38078
C         59.99962        58.37019        -1.10026
C         58.77113        59.06722        -1.15058
C         59.96465        61.04435        -1.92875
C         58.76467        60.41742        -1.57099
C         61.18544        59.01065        -1.48032
C         61.17139        60.34411        -1.89184
O         44.96548        53.96589         2.86950
O         45.19474        40.30591         1.78248
O         42.69069        58.20864         1.63908
O         45.44634        44.39577        -0.72119
O         35.45417        52.48369         2.32567
O         43.50134        48.09673         3.04439
O         53.35179        58.27817        -1.93470
O         51.21732        55.07985        -0.57094
O         46.58278        37.99168         0.44745
O         47.04036        57.20049         2.27461
O         43.98152        55.37950        -0.50738
O         47.07399        54.51320        -0.02499
O         52.79916        53.88590         2.60823
O         39.09940        59.46227        -2.06291
O         46.14117        37.04062        -3.61995
O         46.42531        51.36826         3.19171
O         45.13409        49.47763         0.15874
O         49.66020        55.02237         2.71466
O         51.02852        59.55876        -2.12790
O         38.03910        50.26917         2.63547
O         41.01084        47.42254         3.26832
H         41.86674        47.33726         3.75099
O         43.94810        58.74002        -1.73035
H         44.73318        59.13569        -2.16374
O         42.92205        41.56847        -1.33735
H         42.91438        42.53842        -1.54785
O         41.61047        43.46788         2.34204
H         40.84712        42.96265         2.69348
O         60.92831        56.16323        -1.44400
H         60.52657        56.14769        -2.33665
O         42.79339        44.42895        -1.00546
H         43.78136        44.55857        -1.19345
O         47.88845        44.00017         2.92092
H         47.75579        43.04169         3.08806
O         34.97610        60.96357        -2.72866
H         35.18850        60.03262        -2.94519
O         50.29218        45.42438         3.04204
H         49.47128        44.92533         3.28859
O         42.55753        39.73563         1.83676
H         43.45870        39.89639         2.21892
O         34.31086        61.10677         0.86763
H         33.59160        60.77057         1.44283
O         57.63577        62.48946        -1.04084
H         57.79162        62.33128        -0.08738
O         40.29006        37.50428        -1.30944
H         40.27233        37.99159        -2.15834
O         32.46106        54.21134         2.16683
H         33.21853        53.72272         2.55740
O         42.53260        53.06154         3.28077
H         43.34107        53.54825         3.57324
O         54.98736        59.06095         1.23241
H         55.77403        58.73867         1.72111
O         47.25330        42.09774        -1.31759
H         46.71263        42.93652        -1.21632
O         55.50731        50.12055         2.96993
H         55.59308        51.08367         3.17965
O         55.50978        53.08052         2.78635
H         54.70314        53.50194         3.17294
O         43.86081        52.20618        -0.05116
H         44.33536        51.41325        -0.38697
H         29.39211        56.42121        -0.70796
H         28.20384        58.48912        -1.32038
H         30.33034        62.24518        -1.59142
H         28.21916        60.93917        -1.76210
H         31.87252        52.34174        -0.23336
H         30.52607        54.41010         0.08025
H         32.72355        62.34516        -1.08877
H         34.50999        48.11565        -0.35260
H         33.23592        50.21755        -0.39796
H         35.30589        62.28102        -1.17454
H         36.92114        43.89588        -0.31101
H         35.74265        45.99857        -0.34451
H         37.66251        62.28230        -1.28402
H         39.39792        39.65774        -0.81595
H         38.11053        41.74169        -0.31576
H         40.22323        62.36624        -0.90415
H         41.76219        36.11488        -2.60240
H         41.46492        37.30848         0.36730
H         42.65676        62.40329        -0.61959
H         45.10868        33.45804        -4.62728
H         43.12434        34.59786        -4.11634
H         45.15209        62.44707        -0.51395
H         47.30143        33.89739        -3.79490
H         48.71529        35.64360        -1.97862
H         47.60825        62.40836        -0.69211
H         49.94142        37.81844        -1.40087
H         51.08671        39.83500        -0.80608
H         50.08858        62.39343        -0.76035
H         52.33926        41.84824        -0.14560
H         53.57916        43.90188         0.39621
H         52.58701        62.31964        -1.20205
H         54.80575        45.97679         0.68963
H         56.05595        48.01909         1.04672
H         55.06844        62.26326        -1.48772
H         57.20221        50.15508         0.47922
H         58.43114        52.22987         0.05522
H         57.32850        61.44293        -2.77848
H         59.69013        54.34928        -0.24668
H         60.60956        56.98381         0.40919
H         59.94340        62.09703        -2.24346
H         62.12945        58.44908        -1.44581
H         62.10676        60.84128        -2.18342
