         261
 CSIRO Nanostructure Databank - Neutral Graphene Oxide Data Set
C        -10.94581         0.81228        -1.55870
C        -10.23856         1.79509        -0.73196
C         -8.77747         0.69548         0.52697
C         -7.66275         1.44883         1.18214
C         -6.40007         0.66971         1.37102
C         -5.13959         1.42527         1.06890
C         -3.89070         0.65120         0.76255
C         -2.57797         1.37569         0.59579
C         -1.30422         0.64011         0.84209
C         -0.00851         1.36081         0.52747
C          1.07557         0.64594        -0.21916
C          2.28870         1.41511        -0.69400
C          3.58856         0.66871        -0.92909
C          4.89232         1.46285        -1.15448
C          6.18498         0.71028        -1.00220
C          7.50591         1.45799        -0.96861
C          8.63228         0.89107        -0.07020
C          9.96972         1.51376        -0.47049
C         11.15131         0.71792        -0.57092
C         -9.58543         2.94929        -1.03471
C         -8.65498         3.65710        -0.08535
C         -7.66562         2.94510         0.86873
C         -6.40214         3.69770         1.27380
C         -5.08432         2.92115         1.34362
C         -3.78858         3.62467         1.00546
C         -2.56158         2.86569         0.57060
C         -1.24140         3.60658         0.46039
C          0.03738         2.84541         0.60070
C          1.32647         3.60001         0.36774
C          2.40324         2.91498        -0.44065
C          3.64873         3.68878        -0.78204
C          4.91023         2.98479        -1.24561
C          6.23157         3.73586        -1.41522
C          7.53814         2.93919        -1.25842
C          8.84941         3.72672        -1.06200
C         10.02532         2.86758        -0.67984
C         -8.29895         5.05361        -0.47985
C         -7.32173         5.80389         0.08607
C         -6.33121         5.19079         1.02062
C         -4.99102         5.89290         1.09703
C         -3.78080         5.09906         0.70271
C         -2.50252         5.85224         0.47546
C         -1.21490         5.08831         0.25431
C          0.09717         5.86103         0.08933
C          1.34317         5.08386         0.53531
C          2.63179         5.82182         0.32311
C          3.83695         5.02900        -0.13024
C          5.10772         5.77503        -0.30775
C          6.30934         5.23348        -1.07624
C          7.58506         5.76784        -0.48292
C          8.74805         5.09092        -0.41611
C         -7.10430         7.25823        -0.37402
C         -6.29000         8.05686         0.69015
C         -4.93665         7.36959         0.88059
C         -3.63945         8.05459         0.43666
C         -2.41584         7.31904         0.97618
C         -1.30289         8.04375         0.21616
C          0.01506         7.32561         0.47485
C          1.30057         8.07455         0.45406
C          2.59718         7.31357         0.33235
C          3.72871         8.01668        -0.43459
C          5.05661         7.28309        -0.14710
C          6.29831         8.01857        -0.51274
C          7.32167         7.10230        -1.15691
C         -6.10804         9.53427         0.42428
C         -4.93751        10.19653         0.58784
C         -3.64521         9.53917         0.71373
C         -2.44899        10.20871         0.76224
C         -1.18352         9.52793         0.52466
C          0.00657        10.18707         0.38785
C          1.26239         9.48975        -0.10570
C          2.60562        10.18925         0.06437
C          3.76919         9.51419        -0.15780
C          5.04577        10.16172        -0.45773
C          6.17698         9.47751        -0.76542
C        -10.82254        -0.54455        -1.43525
C         -9.86100        -1.37071        -0.67908
C         -8.72764        -0.71146         0.04027
C         -7.60687        -1.54332         0.56209
C         -6.40513        -0.84157         1.11829
C         -5.11751        -1.59918         0.89419
C         -3.83545        -0.86321         0.83385
C         -2.59267        -1.57851         1.27858
C         -1.29622        -0.82935         1.06878
C         -0.11507        -1.58572         0.54494
C          1.03531        -0.86722        -0.12937
C          2.35262        -1.57781        -0.30505
C          3.63219        -0.78287        -0.49882
C          4.92969        -1.27132         0.17343
C          6.14968        -0.75111        -0.58567
C          7.43966        -1.42850        -0.35171
C          8.70940        -0.67939        -0.04089
C          9.90779        -1.37328        -0.62187
C         11.11246        -0.66034        -0.75444
C         -9.81348        -2.72264        -0.88078
C         -8.77788        -3.66381        -0.27101
C         -7.47713        -2.93786         0.02928
C         -6.27724        -3.73656         0.41461
C         -5.16261        -3.08040         1.18663
C         -3.91127        -3.85076         1.52075
C         -2.59501        -3.06112         1.56869
C         -1.26312        -3.79056         1.39447
C         -0.02272        -3.02986         0.96431
C          1.11741        -3.77381         0.32603
C          2.40671        -3.03447        -0.00449
C          3.71680        -3.61356         0.46701
C          4.97313        -2.78314         0.54560
C          6.32620        -3.51415         0.67338
C          7.60360        -2.72832         0.39503
C          8.75062        -3.50732        -0.21190
C          9.84066        -2.80161        -0.67595
C         -8.45255        -4.89235        -1.17798
C         -7.31017        -5.77031        -0.64954
C         -6.35187        -5.22818         0.36703
C         -5.15419        -6.03117         0.82896
C         -3.90867        -5.41958         1.55688
C         -2.59138        -6.05017         1.09482
C         -1.31628        -5.26480         1.03988
C          0.01082        -5.99921         1.08040
C          1.16378        -5.25402         0.45463
C          2.51641        -5.90548         0.33257
C          3.79273        -5.10599         0.32279
C          5.07784        -5.81499         0.65858
C          6.36695        -5.02924         0.66248
C          7.56082        -5.76260         0.13477
C          8.86994        -5.00125        -0.01484
C         -7.15865        -7.02555        -1.13499
C         -6.09628        -7.94920        -0.67223
C         -5.04525        -7.43567         0.27458
C         -3.72906        -8.17716         0.37138
C         -2.54341        -7.57207         1.06494
C         -1.18904        -8.36782         1.14195
C          0.08125        -7.50034         1.11207
C          1.39435        -8.20963         0.79218
C          2.61746        -7.37806         0.59014
C          3.85299        -7.96206        -0.02187
C          5.11039        -7.30216         0.48175
C          6.44344        -8.03499         0.36589
C          7.53666        -7.09178        -0.12222
C         -5.80491        -9.20008        -1.43218
C         -4.61290        -9.81556        -1.36401
C         -3.40758        -9.10682        -0.79205
C         -2.17792        -9.95122        -0.57660
C         -1.11429        -9.52932         0.13484
C          0.13226       -10.39654         0.28494
C          1.42113        -9.59263         0.22370
C          2.55626       -10.12838        -0.29646
C          3.83798        -9.38071        -0.44781
C          5.17263       -10.02210        -0.59268
C          6.32261        -9.35918        -0.36852
O         -1.13222         0.07723         2.18812
O         -6.34361        -5.87455         1.66752
O          3.60807        -0.40727        -1.89744
O          3.74902        -8.24812        -1.43653
O          2.35104        -7.94908         1.88757
O         -4.16983         3.33138         2.39097
O          5.94311         7.72815         0.89688
O          2.35760        -2.58549        -1.37397
O         -3.49230        -8.40066         1.78039
O          6.79561        -1.56174        -1.63009
O         -0.04058        -1.45280        -0.91142
O          4.93167        -6.71047         1.80542
O          8.31959         1.36377         1.19547
O         -6.69819         4.65507         2.32648
O         -1.29401         4.19460        -0.88930
O         -4.79240         1.09576        -0.30350
O          0.24443        -6.68538         2.31998
O          0.61782         7.78321         1.70924
O          6.51144        -4.27020         1.90131
O          3.19008        -5.55814        -0.91867
O         -3.35184         7.96891        -1.01887
O          1.54799         4.22829         1.68894
O          7.84916         1.93386        -2.29129
O          1.20493         1.10166        -1.60324
O          8.91040        -1.05173         1.39374
O         -2.63204         2.08922        -0.66704
O         -4.88142        -3.42523         2.54772
O          5.57247         0.88744        -2.29916
O         -0.24892        -3.38167         2.35339
O         -4.44505        -1.39743        -0.38647
O         -6.41119        -3.15230        -0.93145
O          4.87248         5.00109         0.90539
O          3.40319         7.83241        -1.77937
O          2.55355         3.63373        -1.72340
O         -7.18866         1.09790         2.51057
O          5.39683         3.43282        -2.54611
O          4.15462        -3.04622         1.73448
O         -4.81265         6.79618         2.23494
O          6.55328         6.26707        -2.16197
O          0.31878         2.03707         1.78347
O         -3.40282         5.52744        -0.63279
O         -2.61990        -2.09568         2.64454
O         -2.10192        -5.50400        -0.17350
O         -1.84219         7.91945        -1.15095
O         -8.26209         0.40655        -0.81891
O         -6.14332        -8.26340         0.76827
O         -8.88794         3.56411         1.34992
O          8.16052        -2.25681         1.68391
O         -1.15996        -9.08192         2.33509
O          2.97782         6.62134         1.51718
O          0.71893        -4.62749        -0.78573
O         -7.35159        -1.50286         1.99896
O        -10.04070         1.30524         0.57639
O          0.35248         5.98081        -1.33731
H         -0.09051         5.23470        -1.80767
O         -7.06679         7.97510         1.90554
H         -6.52813         7.49475         2.57879
O         -9.62931        -5.68878        -1.33395
H         -9.73701        -6.23531        -0.52806
O         -2.21925         7.36578         2.37337
H         -3.06788         7.13392         2.82054
O          9.25999         4.09953        -2.42529
H          8.96243         3.37800        -3.02708
O          1.10549         9.33444        -1.54553
H          1.88550         8.80494        -1.87997
O          6.87782        -8.40627         1.69891
H          6.44888        -7.77845         2.32819
O          4.98570        -0.54705         1.42753
H          4.71803        -1.14911         2.15928
O         -4.00957        -5.79672         2.92574
H         -4.91210        -5.56180         3.23795
O          0.14654       -11.44250        -0.67788
H          0.32381       -11.05881        -1.56082
O         -9.29110        -4.13563         0.99317
H        -10.19925        -4.47301         0.84869
O          9.69399        -5.57340        -1.02508
H          9.22613        -5.52554        -1.88376
O         -3.02258        -8.13281        -1.83146
H         -2.88710        -8.61828        -2.67257
O         -8.36132         7.88851        -0.57582
H         -8.75691         8.02220         0.31242
H         12.04357        -1.21021        -0.95315
H         12.12663         1.22922        -0.56296
H         11.00577         3.31464        -0.92057
H          9.69601         5.64195        -0.31145
H          8.19233         7.61849        -1.62070
H          7.07480        10.02125        -1.09695
H          5.04212        11.25918        -0.54870
H          2.62011        11.28815         0.14965
H          0.03718        11.27765         0.54220
H         -2.44025        11.30236         0.88880
H         -4.93151        11.29559         0.51724
H         -7.03162        10.10832         0.25842
H         -6.55751         7.25979        -1.35367
H         -8.94427         5.53608        -1.23149
H         -9.65376         3.37077        -2.04763
H        -11.63634         1.18585        -2.33230
H        -11.46256        -1.14286        -2.10598
H        -10.60077        -3.19648        -1.49012
H         -8.17796        -4.50846        -2.19458
H         -7.85786        -7.39122        -1.90365
H         -6.64861        -9.68274        -1.95001
H         -4.45823       -10.78267        -1.86768
H         -2.07514       -10.87222        -1.17621
H          0.06904       -10.87264         1.30036
H          2.52486       -11.16639        -0.66549
H          5.20744       -11.04034        -1.01079
H          7.27598        -9.87803        -0.55357
H          8.46694        -7.55381        -0.49225
H          9.42343        -5.13591         0.95885
H         10.71990        -3.36213        -1.02977
