         276
 CSIRO Nanostructure Databank - Neutral Graphene Oxide Data Set
C        -11.10505         0.66386        -1.31031
C         -9.91513         1.49973        -0.89593
C         -8.90097         0.73811        -0.05793
C         -7.61704         1.52086         0.16392
C         -6.34559         0.76465         0.23957
C         -5.05879         1.43889        -0.15155
C         -3.89397         0.79026         0.58323
C         -2.55638         1.55321         0.50601
C         -1.27179         0.84188         0.86533
C          0.06050         1.56017         0.73055
C          1.34956         0.79753         0.77184
C          2.61105         1.53811         0.38224
C          3.91535         0.82325         0.44820
C          5.09463         1.61227         1.03078
C          6.43482         0.82625         1.06242
C          7.73602         1.58507         0.84508
C          8.89942         0.71822         0.52399
C         10.04222         1.68843        -1.14841
C         10.48130         0.75398        -2.19090
C        -10.17910         2.90328        -0.28761
C         -8.87856         3.71212        -0.35391
C         -7.58623         3.01709        -0.08559
C         -6.29870         3.69237        -0.50154
C         -5.04557         2.84690        -0.64699
C         -3.71547         3.54933        -0.79053
C         -2.46132         2.81266        -0.33026
C         -1.15114         3.54750        -0.38183
C          0.08221         2.97223         0.27170
C          1.37362         3.62150        -0.19766
C          2.62514         3.05154         0.51657
C          3.91357         3.67907        -0.05500
C          5.19770         3.00785         0.33810
C          6.44649         3.83316         0.47059
C          7.75928         3.09332         0.53997
C          8.96388         3.76172        -0.20724
C          9.44296         2.88461        -1.37050
C         -8.87712         5.03112        -0.62281
C         -7.66886         5.90450        -0.92212
C         -6.33298         5.09302        -1.09878
C         -4.99322         5.78867        -1.31201
C         -3.68194         5.02187        -1.12621
C         -2.40409         5.80508        -0.86496
C         -1.13920         5.04703        -0.57670
C         -0.00059         5.77493         0.10002
C          1.30046         5.07357         0.22936
C          2.55650         5.87043         0.03311
C          3.84562         5.16919        -0.28937
C          5.15834         5.95137        -0.53772
C          6.46554         5.16878        -0.28408
C          7.65318         6.03940         0.03819
C          8.49989         5.10564        -0.80207
C         -7.48203         7.02310         0.11362
C         -6.67665         8.06569        -0.20242
C         -4.84198         7.30231        -1.33388
C         -3.72138         7.99028        -0.61145
C         -2.52460         7.17425        -0.23005
C         -1.31305         7.89372         0.28369
C          0.01367         7.26825        -0.01298
C          1.28063         8.04593         0.14336
C          2.50452         7.27056         0.61904
C          3.84781         7.98537         0.54190
C          5.13461         7.30421         0.18550
C          6.35447         8.20563        -0.03681
C          7.64147         7.39033         0.06241
C         -6.31360         9.26895         0.54305
C         -5.10183         9.89100         0.46960
C         -3.81565         9.34854         0.02228
C         -2.67328        10.01510         0.39126
C         -1.34727         9.35163         0.74037
C         -0.01708        10.09688         0.58726
C          1.19144         9.48168         0.53412
C          2.49501        10.12733         1.02342
C          3.79998         9.51962         0.42928
C          5.07753        10.05086         1.05549
C          6.25075         9.42736         0.85734
C        -11.15488        -0.67898        -1.26102
C        -10.24578        -1.51542        -0.37710
C         -8.93117        -0.76927        -0.07446
C         -7.61882        -1.45012        -0.39274
C         -6.34859        -0.69179        -0.15622
C         -5.05941        -1.45451         0.03951
C         -3.77784        -0.70513         0.26887
C         -2.57954        -1.41693         0.84368
C         -1.28604        -0.66925         1.04303
C          0.01673        -1.46382         0.92347
C          1.32597        -0.69613         0.81948
C          2.57957        -1.42316         0.41101
C          3.89041        -0.69507         0.46482
C          5.10630        -1.45251         0.88808
C          6.43068        -0.71208         0.98229
C          7.68010        -1.48832         0.62871
C          8.87362        -0.62871         0.41819
C         10.08739        -1.59855        -1.23982
C         10.52212        -0.60962        -2.22865
C        -10.05432        -2.98362        -0.69849
C         -8.87724        -3.68085        -0.50521
C         -7.54874        -2.96086        -0.62888
C         -6.40763        -3.66236         0.07252
C         -5.16529        -2.91011         0.41627
C         -3.86536        -3.65265         0.53729
C         -2.56702        -2.92018         0.67724
C         -1.32919        -3.57502         0.06880
C         -0.02610        -2.91315         0.50992
C          1.22125        -3.60712         0.01351
C          2.52325        -2.91831         0.24508
C          3.76307        -3.69012         0.56347
C          5.07342        -2.95277         0.79156
C          6.37592        -3.70452         0.55017
C          7.47840        -2.84319        -0.11432
C          8.80815        -3.63739        -0.46076
C          9.55218        -2.81104        -1.52276
C         -8.82749        -5.10891        -0.43902
C         -7.60927        -5.83859        -0.44181
C         -6.35227        -5.00895        -0.63572
C         -5.02821        -5.76224        -0.49954
C         -3.81174        -5.05756         0.01283
C         -2.59490        -5.82226         0.44651
C         -1.28922        -5.07480         0.37736
C         -0.04953        -5.86183         0.12911
C          1.20853        -5.10901        -0.19492
C          2.48552        -5.86083        -0.10324
C          3.72775        -5.16772         0.39133
C          4.99945        -5.88239         0.06373
C          6.31717        -5.18114         0.26317
C          7.45979        -5.89664        -0.37424
C          8.50473        -5.03453        -1.06036
C         -7.57798        -7.23338        -0.44620
C         -6.34734        -8.02686        -0.57648
C         -5.03932        -7.27690        -0.51884
C         -3.91354        -8.00312         0.17394
C         -2.59517        -7.30077         0.36929
C         -1.42675        -8.10336        -0.23316
C         -0.04445        -7.34442        -0.29897
C          1.12390        -8.02949         0.41398
C          2.42855        -7.30683         0.29573
C          3.64431        -8.15758        -0.04023
C          4.93917        -7.34809        -0.22381
C          6.21790        -8.15268        -0.42622
C          7.45643        -7.24929        -0.47433
C         -6.30094        -9.50259        -0.34122
C         -5.15703       -10.18274        -0.09943
C         -3.90662        -9.48691         0.32000
C         -2.57853       -10.15869         0.52731
C         -1.37939        -9.51492         0.37688
C         -0.07451       -10.16103         0.57044
C          1.12700        -9.51032         0.55849
C          2.47218       -10.23401         0.82469
C          3.74333        -9.30091         0.97360
C          5.09134       -10.00007         0.86901
C          6.21527        -9.40923         0.42314
O          7.22203         3.83365         1.68512
O          4.71557         7.36802         1.57238
O          4.93489        -2.27054         2.07866
O          2.93305         5.63371        -1.35669
O         -1.86301        -8.36251        -1.53744
O          0.73958         7.75938        -1.18064
O         -9.16111        -0.01538         1.16400
O         -2.16605         7.08688         1.18355
O          1.74581        -7.41551         1.58217
O         -6.04761         8.01830        -1.46951
O         -5.51280        -7.74365        -1.79380
O         -5.04953         1.70264        -1.57197
O          3.30743         1.20723        -0.82901
O          4.84561        -6.37557        -1.32510
O         -4.03092        -5.20612        -1.41761
O          6.67360        -4.66758         1.58859
O          4.74737         3.02178        -1.04942
O         10.15172         1.31538         0.21802
O         -6.14461        -3.33553         1.44130
O         -1.55250         2.68169        -1.47194
O          1.92709        -3.04622        -1.11496
O         -5.77108         5.22308        -2.42021
O          7.23288         1.28989         2.18952
O         -6.92432        -0.78712        -1.49903
O          0.08041         2.69534         1.68481
O         -1.39765         5.60741        -1.89236
O          0.07545        -2.54097         1.90413
O         -6.99715         1.16627         1.45060
O         -3.80863         7.90857        -2.10579
O          1.94881        -5.49534        -1.39423
O          7.23387         4.80697        -1.54445
O          1.53829         0.09013         2.03826
O          7.23987        -1.37104         2.00265
O          0.45719         5.28603         1.39282
O         -2.60748        -6.64422         1.65541
O         10.11675        -1.22765         0.12556
O          3.31006        -1.06646        -0.81505
O         -3.17465        -3.57100         1.81767
O         -2.02940         1.59941         1.85664
O         -4.10937        -1.19464        -1.05022
O         -0.43358        -5.49216         1.47902
O         -4.30201        -8.59399         1.45387
O         -6.43177        -4.51897        -2.03868
O          3.56233        -4.60934         1.70900
O         -7.15334        -3.21395        -2.03220
O         -6.74609         3.72440         0.89010
O         -3.52891         4.02589        -2.15493
O         -2.14003        -1.02447         2.16911
O          3.75916        -8.71097         2.28682
H          3.86156        -9.41989         2.95410
O         -4.34093         0.81999         1.95196
H         -3.55344         0.67966         2.53298
O        -11.00720        -1.64788         0.86316
H        -10.64546        -0.97715         1.49403
O          0.34134        -7.35584        -1.67935
H         -0.42637        -7.77031        -2.17228
O          5.19272         6.31083        -1.93454
H          5.34015         5.49244        -2.45645
O         -9.20223         1.78498        -2.13849
H         -9.02236         0.94358        -2.61046
O         -1.46087         9.32674         2.20098
H         -1.97495         8.52013         2.43907
O          2.70425       -11.18003        -0.21492
H          2.90884       -10.67038        -1.03227
O          4.73230         1.83584         2.39855
H          5.56185         1.98862         2.90916
O          2.62230         3.48509         1.87966
H          1.75937         3.22818         2.29089
O          7.96532        -4.80003        -2.38438
H          7.65520        -5.65536        -2.75037
O          3.78956         9.83546        -0.97665
H          4.67767         9.59909        -1.34921
O          2.23942         7.12171         2.04057
H          3.06131         6.77859         2.46264
O          3.36379        -8.75847        -1.32871
H          3.18891        -8.03141        -1.96632
O          6.89685        -2.44279        -1.38060
H          7.02074        -3.18561        -2.02322
O          9.58911        -3.83918         0.70653
H          9.96672        -2.97296         0.98330
O         -7.99608         6.49099        -2.19040
H         -7.19988         6.43658        -2.76998
O         -1.45345        -3.38710        -1.35354
H         -0.67735        -3.77130        -1.81544
O          6.32013         8.69578        -1.40790
H          6.13968         7.91416        -1.98833
O         10.03382         4.01367         0.69949
H         10.38447         3.14401         0.99913
O          6.16751        -8.65441        -1.79529
H          5.73640        -7.95715        -2.33721
O          1.44274         3.45105        -1.60800
H          2.05408         4.12962        -1.98443
O          2.51806         9.96289         2.44623
H          2.35426         9.00963         2.64420
O        -11.21458         3.56062        -1.00079
H        -10.91868         3.66265        -1.92959
H         10.79439        -1.04791        -3.20331
H         10.72876         1.25667        -3.14102
H          9.29794         3.24953        -2.39788
H          9.27538         5.57105        -1.45302
H          8.58741         7.94223        -0.05994
H          7.17438         9.82262         1.30663
H          5.02431        10.95113         1.68609
H          2.48321        11.22453         0.81094
H         -0.05227        11.15688         0.88752
H         -2.80572        11.00658         0.85747
H         -5.01216        10.84848         1.00896
H         -7.10009         9.74902         1.14649
H         -8.01075         6.98081         1.07556
H         -9.84502         5.52759        -0.79673
H        -10.51173         2.79370         0.77631
H        -11.89317         1.20975        -1.85295
H        -12.03511        -1.19285        -1.67837
H        -10.99018        -3.56071        -0.77946
H         -9.77733        -5.66417        -0.39366
H         -8.52661        -7.77585        -0.30296
H         -7.23347       -10.05858        -0.52442
H         -5.18124       -11.28234        -0.05849
H         -2.59433       -11.19933         0.89069
H         -0.09081       -11.24920         0.74740
H          2.36730       -10.81647         1.77963
H          5.17571       -10.97423         1.37854
H          7.16923        -9.95490         0.49566
H          8.33845        -7.73062        -0.93180
H          9.47148        -5.60015        -1.15290
H          9.50305        -3.14971        -2.56799
