         244
 CSIRO Nanostructure Databank - Neutral Graphene Oxide Data Set
C          1.27623         2.03035         0.14623
C          1.25841         3.43372         0.31886
C          2.37763         1.18826        -0.02223
C          2.39155         4.28380         0.29459
C          1.16447         6.43647        -0.08053
C          1.16501         7.80768        -0.28908
C          2.37082         5.70419        -0.03275
C          2.37287         8.50385        -0.51497
C          1.22693        10.72470        -0.89660
C          1.25918        12.11118        -0.89095
C          2.39532         9.97381        -0.64315
C          2.44062        12.82437        -0.58322
C          1.32001        15.06528        -0.83042
C          1.32277        16.45045        -0.74547
C          2.45581        14.27280        -0.48658
C          2.42134        17.14669        -0.19822
C          2.48989        18.55951        -0.12342
C          3.69859         1.59111         0.33152
C          3.66669         3.72988         0.53957
C          4.93059         1.22300        -0.17988
C          4.88840         4.28786         0.10865
C          3.60536         6.38913        -0.26025
C          3.58150         7.77684        -0.53114
C          4.87924         5.67842        -0.22443
C          4.81302         8.54805        -0.96899
C          3.59547        10.67269        -0.40363
C          3.63636        12.08990        -0.32391
C          4.83369         9.87895        -0.22379
C          4.87208        12.78890        -0.02736
C          3.62334        14.91467        -0.01710
C          3.54423        16.34754         0.30304
C          4.85207        14.20943         0.15703
C          4.84275        17.09269         0.63748
C          3.66281        19.23399         0.18788
C          4.88603        18.55179         0.44397
C          6.13141         2.03262        -0.02722
C          6.09926         3.51283         0.09444
C          7.33580         1.39891        -0.26752
C          7.30538         4.22727         0.00331
C          6.10584         6.34395        -0.39685
C          6.15363         7.74927        -0.94979
C          7.33026         5.62505        -0.24974
C          7.35532         8.54073        -0.44084
C          6.11972        10.61539        -0.03724
C          6.11039        12.09060         0.04073
C          7.37875         9.89885        -0.33182
C          7.33110        12.77832         0.18619
C          6.07563        14.91397         0.43090
C          6.09742        16.33006         0.58817
C          7.32845        14.20062         0.41967
C          7.29510        17.04160         0.76877
C          6.12114        19.19558         0.50980
C          7.33301        18.47503         0.72839
C          8.63498         2.14004        -0.43195
C          8.56699         3.46181         0.31416
C          9.88996         1.39921        -0.02621
C          9.84612         4.23988         0.18450
C          8.61077         6.31024        -0.31360
C          8.61924         7.77560        -0.57865
C          9.79756         5.65250         0.00808
C          9.90542         8.51742        -0.48271
C          8.64698        10.70079        -0.54777
C          8.60462        12.10669         0.01340
C          9.86846         9.94694         0.02808
C          9.80083        12.75673         0.20705
C          8.52912        14.85672         0.74383
C          8.51205        16.28128         1.06423
C          9.79581        14.11253         0.80115
C          9.86476        17.07542         1.09860
C          8.57695        19.16446         0.72719
C          9.81810        18.51288         0.78187
C         11.03881         2.09090         0.29901
C         11.04559         3.55393         0.35377
C         12.30095         1.40930         0.43830
C         12.30877         4.25943         0.49808
C         11.01351         6.42420         0.48126
C         11.19908         7.72408        -0.31996
C         12.33710         5.67146         0.46461
C         12.35691         8.54569         0.29059
C         11.16445        10.68186        -0.20018
C         11.08533        12.18119        -0.37822
C         12.37277        10.00594        -0.11052
C         12.35306        12.86601         0.06623
C         11.12642        14.86891         0.92212
C         11.11383        16.34689         0.86416
C         12.37097        14.16216         0.49904
C         12.27735        17.06978         0.66109
C         11.04166        19.18538         0.53609
C         12.27498        18.51127         0.53568
C         13.49787         2.08724         0.56843
C         13.52750         3.54548         0.63343
C         14.74879         1.37936         0.51751
C         14.74276         4.24248         0.83546
C         13.56801         6.36175         0.53870
C         13.68266         7.79986         0.05318
C         14.76278         5.65535         0.82415
C         14.83143         8.61018         0.57691
C         13.62345        10.67619        -0.05706
C         13.65449        12.17141        -0.30435
C         14.82030         9.97525         0.31522
C         14.79778        12.77848         0.51358
C         13.61963        14.91179         0.54595
C         13.57139        16.36685         0.75444
C         14.83267        14.27411         0.38005
C         14.84801        17.14885         0.58759
C         13.50897        19.21861         0.33429
C         14.75403        18.59670         0.29443
C         15.95480         2.02878         0.64019
C         16.00519         3.45708         1.13439
C         17.18704         1.34371         0.41767
C         17.27695         4.17290         0.70895
C         16.03872         6.40492         1.08633
C         16.07852         7.95305         1.10602
C         17.33114         5.64496         0.91007
C         17.32761         8.54023         0.45038
C         16.09720        10.69520         0.30288
C         16.09909        12.09308         0.22538
C         17.31803         9.97543         0.21374
C         17.27710        12.81320        -0.04960
C         16.07011        14.97639         0.17042
C         16.07268        16.42145         0.19225
C         17.26020        14.26646        -0.10018
C         17.21184        17.15093        -0.07216
C         15.98110        19.28290         0.05586
C         17.19546        18.59575        -0.03817
C         18.39724         2.01653         0.36750
C         18.42539         3.47040         0.49493
C         19.61547         1.30864         0.08197
C         19.76637         4.17078         0.54580
C         18.54991         6.36440         0.44504
C         18.46842         7.78998         0.22164
C         19.69987         5.63574         0.14996
C         19.64763         8.47811        -0.37092
C         18.49858        10.69963        -0.10781
C         18.47723        12.09090        -0.27648
C         19.81711         9.96753        -0.09231
C         19.66195        12.84471        -0.85284
C         18.49481        14.97137        -0.29559
C         18.48976        16.46754        -0.49591
C         19.69896        14.29607        -0.42658
C         19.69340        17.13352         0.16902
C         18.45781        19.28920        -0.14460
C         19.66507        18.62908        -0.09060
C         20.78845         1.96748        -0.17724
C         20.87236         3.39592        -0.13356
C         21.99209         4.06509        -0.58461
C         20.90365         6.25083        -0.35306
C         20.89814         7.70700        -0.64683
C         22.01822         5.48325        -0.65474
C         22.16247         8.48854        -0.71282
C         20.88969        10.61366        -1.00932
C         20.96966        12.10262        -0.71617
C         22.17420         9.82440        -0.85708
C         22.12130        12.80504        -0.52029
C         20.96820        14.98986        -0.37204
C         20.98916        16.44574        -0.22523
C         22.13169        14.23275        -0.38683
C         22.12652        17.19893        -0.36409
C         20.91834        19.32364        -0.18866
C         22.09662        18.63252        -0.29228
O          5.40605         9.95055         1.10794
O          9.34813         8.26977        -1.80844
O         10.51522        14.24400         2.09229
O         14.35670        16.79582         1.93117
O          9.16359        16.68357         2.31041
O         19.93778         8.03812        -1.74357
O          3.92834        16.65671         1.68938
O         16.80149         5.94498         2.26929
O          6.52556         7.44465        -2.28440
O          3.73821         2.58800         1.33536
O          9.69744         9.83182         1.47722
H          9.53566        10.73184         1.83754
O         11.02139        12.43470        -1.83127
H         10.23512        11.91898        -2.16613
O          4.57133         8.92688        -2.34576
H          5.23207         8.37660        -2.86228
O          8.82181        10.84511        -1.98710
H          8.80600         9.92658        -2.36368
O          8.47405         3.10610         1.72893
H          8.55418         3.93077         2.25316
O         20.34269        10.07807         1.26150
H         19.61098         9.89992         1.88934
O         19.37653        12.94073        -2.29659
H         19.62776        12.06494        -2.68793
O         14.45568        12.48795         1.90079
H         15.08346        12.96831         2.47978
O         16.16269         8.37231         2.50164
H         16.64130         7.65497         2.98105
O         11.57206         7.26611        -1.64166
H         10.76379         7.35161        -2.21151
O         20.46910        10.50991        -2.39466
H         20.26882         9.55118        -2.56254
O         16.09273         3.34170         2.59078
H         16.32064         4.24253         2.92733
O         10.66763         6.63907         1.87263
H         11.42882         7.10639         2.29830
O         19.53801        16.93744         1.60280
H         20.28171        17.39189         2.05052
O         13.87755        12.40427        -1.71631
H         12.99994        12.32619        -2.16183
O          8.75857         2.42393        -1.85952
H          8.82181         1.57074        -2.33686
O         20.12797         4.17047         1.97441
H         21.04596         4.50810         2.04415
O         12.22048         8.61329         1.73634
H         11.40965         9.15064         1.93023
O         14.05183         7.70921        -1.35135
H         13.27385         7.35925        -1.85193
O         18.63995        16.68287        -1.93066
H         18.17614        15.95929        -2.40189
H          0.29066         1.57604        -0.04577
H          0.26612         3.90408         0.24381
H          2.22120         0.20411        -0.48802
H          0.20939         5.92268         0.09567
H          0.21028         8.35123        -0.26499
H          0.27744        10.21513        -1.11140
H          0.32860        12.65623        -1.09848
H          0.42278        14.57393        -1.22942
H          0.44685        17.01800        -1.09225
H          1.59714        19.14015        -0.39932
H          5.00779         0.31922        -0.80331
H          3.67419        20.33337         0.15544
H          7.32824         0.31795        -0.48681
H          6.16897        20.28857         0.39065
H          9.94138         0.30988        -0.18616
H          8.56264        20.25377         0.57033
H         12.31039         0.31057         0.37183
H         11.02140        20.27147         0.36073
H         14.73076         0.30290         0.28516
H         13.45372        20.30721         0.18040
H         17.16062         0.26069         0.21960
H         15.97181        20.38051        -0.02578
H         19.57411         0.21182         0.01102
H         18.44393        20.38650        -0.24142
H         21.68254         1.40157        -0.47975
H         22.84899         3.49716        -0.97545
H         22.92005         5.96601        -1.05536
H         23.11450         7.94408        -0.62356
H         23.14091        10.34519        -0.92306
H         23.09183        12.28934        -0.47359
H         23.10880        14.72300        -0.27373
H         23.09012        16.71989        -0.59189
H         20.91463        20.42339        -0.22594
H         23.04510        19.17900        -0.39179
