         661
 CSIRO Nanostructure Databank - Neutral Graphene Oxide Data Set
C          5.96431        31.62890        -0.42296
C          5.98147        32.98313        -0.60416
C          8.49803        27.34818        -0.03987
C          8.47407        28.75254        -0.05457
C          7.22863        29.49558        -0.11496
C          8.41448        31.66453        -0.05897
C          7.17739        30.87042        -0.20741
C          8.42426        33.06272        -0.50624
C          7.21783        33.74319        -0.70057
C          8.39810        35.91828        -0.91797
C          7.21667        35.16182        -0.87976
C          8.40172        37.33696        -0.85970
C         10.98968        23.05714         0.08684
C         10.96334        24.47088         0.07129
C          9.74817        25.20209         0.04004
C         10.96306        27.33345        -0.13182
C          9.72188        26.61701        -0.03844
C         10.93730        28.75394        -0.24009
C          9.71889        29.45328        -0.11990
C         10.97782        31.65958        -0.33272
C          9.73513        30.91941        -0.00871
C         10.97177        33.00298        -0.61667
C          9.69414        33.70822        -0.84816
C         10.98779        36.01573        -1.15018
C          9.68498        35.20634        -1.11840
C         10.83841        37.30847        -0.33469
C          9.59109        38.08076        -0.70478
C         10.83626        40.22736        -0.57537
C          9.63039        39.47751        -0.75620
C         10.85603        41.61763        -0.65749
C         13.50998        18.78828        -0.07076
C         13.46606        20.21259         0.04301
C         12.24551        20.91820         0.04756
C         13.45262        23.05330         0.16728
C         12.21058        22.33487         0.10696
C         13.45011        24.47943         0.13544
C         12.21465        25.19049         0.07065
C         13.44580        27.29801        -0.09381
C         12.20479        26.60850        -0.03834
C         13.43756        28.73340        -0.45994
C         12.17716        29.50524        -0.34592
C         13.47072        31.64157        -0.04964
C         12.20003        30.88378        -0.33167
C         13.47152        33.08883        -0.44954
C         12.24226        33.74362        -0.99411
C         13.34617        35.90351        -0.31357
C         12.20988        35.22883        -0.68212
C         13.35844        37.38675        -0.39734
C         12.10012        38.12860        -0.41521
C         13.31135        40.25584        -0.10050
C         12.09195        39.50731        -0.38067
C         13.27837        41.69847        -0.13889
C         12.06563        42.37409        -0.49504
C         13.27731        44.52520        -0.48962
C         12.08672        43.76812        -0.66910
C         13.30216        45.92200        -0.69296
C         15.88123        14.52696         0.26841
C         15.84960        15.89813         0.39250
C         14.71424        16.65509        -0.00433
C         15.95735        18.75568         0.36971
C         14.69892        18.05842         0.10206
C         16.01002        20.20624        -0.02969
C         14.69623        20.93376         0.14911
C         15.94231        23.05303         0.33519
C         14.68875        22.33439         0.21015
C         15.94396        24.48633         0.23389
C         14.69540        25.18893         0.10365
C         15.93320        27.33340        -0.24685
C         14.66319        26.60236        -0.03299
C         15.93152        28.81067         0.09102
C         14.73007        29.46653        -0.55785
C         15.98862        31.71846        -0.44960
C         14.71082        30.95988        -0.57122
C         15.87111        33.11162         0.01596
C         14.65560        33.80481        -0.21791
C         15.77946        35.94196         0.32650
C         14.62323        35.24821        -0.06045
C         15.68000        37.38220         0.76798
C         14.60538        38.13882         0.01200
C         15.68744        40.27194         0.71169
C         14.47510        39.57530         0.25394
C         15.69892        41.77089         0.50787
C         14.47167        42.45355         0.04221
C         15.79726        44.60733        -0.19152
C         14.48900        43.84137        -0.12803
C         15.71099        46.04842         0.28119
C         14.38216        46.74830        -0.17478
C         15.68289        48.88426        -0.39666
C         14.53967        48.12057        -0.60038
C         15.68611        50.15806        -1.09442
C         18.17754        10.16563         0.80756
C         18.18970        11.55203         0.63654
C         16.98694        12.26640         0.61905
C         18.27530        14.40361         0.99703
C         16.92616        13.71815         0.98984
C         18.28506        15.89082         0.97880
C         16.96581        16.61658         1.13679
C         18.34601        18.79180         1.01414
C         17.07875        18.09098         0.79852
C         18.35060        20.22613         0.92058
C         17.18109        20.93802         0.57395
C         18.34555        23.11789         1.07355
C         17.14037        22.35245         0.58070
C         18.41221        24.53468         0.54669
C         17.18797        25.17291         0.23124
C         18.48096        27.35680         0.08277
C         17.23576        26.59268        -0.12447
C         18.41806        28.79523        -0.04579
C         17.24535        29.49768        -0.16045
C         18.38492        31.66574         0.35307
C         17.32936        30.99089        -0.48129
C         18.30996        33.04190         0.78338
C         16.99565        33.80754         0.60466
C         18.24580        35.95615         0.78282
C         17.02153        35.27470         0.56513
C         18.26677        37.39489         0.82873
C         16.99940        38.13006         0.77370
C         18.23962        40.24491         0.68316
C         16.95948        39.49767         0.78325
C         18.23317        41.72655         0.49347
C         16.98004        42.51340         0.43678
C         18.19463        44.66665         0.82903
C         16.99416        43.87007         0.35221
C         18.20190        46.15646         0.53550
C         16.93518        46.86228         0.35831
C         18.11853        48.99256         0.37632
C         16.87928        48.27329         0.22478
C         18.24225        50.37049         0.26761
C         16.51639        51.22392        -0.77960
C         18.19614        52.98773        -1.27430
C         16.92774        52.36037        -1.50213
C         18.32812        54.30470        -1.75199
C         20.61323         6.18176        -0.63034
C         20.65949         7.54636        -0.10933
C         19.57416         8.07319         0.55425
C         20.60399        10.29627         1.26244
C         19.39057         9.41181         1.27185
C         20.72437        11.58596         0.86919
C         19.48616        12.31293         0.40949
C         20.72287        14.28484         1.52981
C         19.44581        13.73028         0.92197
C         20.75698        15.82075         1.67783
C         19.56134        16.62325         1.23128
C         20.78895        18.81133         1.43934
C         19.54545        18.11450         1.32210
C         20.83077        20.20824         1.31589
C         19.60274        20.94623         1.07592
C         20.89333        23.04423         0.87735
C         19.61564        22.32751         0.94233
C         20.91649        24.51952         0.64740
C         19.62116        25.24494         0.48759
C         21.03241        27.32498         0.02148
C         19.67396        26.65619         0.25264
C         20.97569        28.84688         0.10425
C         19.68586        29.56845         0.00857
C         20.85798        31.69222         0.78389
C         19.58824        30.88729         0.74702
C         20.79615        33.10200         0.91560
C         19.55518        33.82081         0.87359
C         20.74371        35.96723         0.93882
C         19.50459        35.23176         0.89728
C         20.73768        37.38816         0.94640
C         19.49125        38.07922         0.94290
C         20.74917        40.29227         0.97623
C         19.46454        39.55706         1.26526
C         20.70832        41.79674         1.19563
C         19.51760        42.49047         0.55184
C         20.77424        44.69340         0.92401
C         19.51812        43.97766         0.53748
C         20.76545        46.19810         0.73742
C         19.38350        46.82880         0.72320
C         20.64127        49.00889         0.61159
C         19.34161        48.31219         0.92754
C         20.69182        50.32724         0.10717
C         19.44321        51.04737        -0.15940
C         20.69136        52.88193        -1.27273
C         19.40379        52.29190        -0.80005
C         20.77761        54.31724        -1.56008
C         19.55560        55.02244        -1.78762
C         20.81628        57.04890        -2.35419
C         19.59127        56.37887        -2.16782
C         20.83718        58.41673        -2.73039
C         22.54125         3.74392        -2.65446
C         21.60181         4.25486        -1.83023
C         22.56216         6.54563        -2.12375
C         21.54535         5.66868        -1.49475
C         22.73032         7.91951        -1.52359
C         21.89296         8.28599        -0.36924
C         23.25141        10.32000        -0.11581
C         22.32213         9.35211         0.38988
C         23.20593        11.68642         0.25483
C         22.01125        12.31743         0.76058
C         23.23393        14.47091         0.96321
C         22.01054        13.69776         0.98536
C         23.29821        15.84119         1.36293
C         22.06646        16.55766         1.79933
C         23.33061        18.75814         1.49891
C         22.04656        18.09568         1.94000
C         23.33154        20.21709         1.78151
C         22.06836        20.96046         1.49252
C         23.35386        23.11467         1.36348
C         22.09051        22.32746         1.35188
C         23.29355        24.58676         1.65800
C         22.06561        25.31536         1.20476
C         23.36449        27.42219         0.97468
C         22.15468        26.75001         0.86454
C         23.45384        28.85015         0.44415
C         22.15412        29.60003         0.58841
C         23.37990        31.78533         0.81614
C         22.09966        30.97053         0.77078
C         23.16163        33.04338         1.67184
C         22.00201        33.85666         1.12692
C         23.26626        35.98290         1.05703
C         21.98119        35.23916         1.06880
C         23.20442        37.46170         0.99682
C         21.99842        38.13509         0.95377
C         23.19438        40.34339         1.00180
C         21.96471        39.61335         0.93433
C         23.18029        41.76705         1.33558
C         21.99622        42.53013         0.79366
C         23.14372        44.71684         1.74544
C         21.92868        44.01275         1.14633
C         23.14532        46.21210         1.49645
C         21.79945        46.92428         1.63540
C         23.14898        49.11947         1.08575
C         21.82860        48.40706         1.24103
C         23.18371        50.24869         0.11890
C         21.93431        50.94797        -0.16303
C         23.28631        52.94537        -0.97513
C         22.02035        52.16393        -0.96718
C         23.27291        54.29458        -1.41518
C         22.02577        54.96660        -1.71101
C         23.29333        56.98421        -2.34494
C         22.05180        56.33513        -2.12306
C         23.29253        58.32004        -2.94965
C         22.04156        59.09226        -2.99581
C         23.30950        61.19126        -3.22912
C         22.09383        60.46961        -3.27947
C         23.57213         4.56302        -3.38421
C         24.87123         6.67774        -3.02521
C         23.73128         5.96136        -2.82797
C         25.09897         8.00507        -2.45796
C         24.02758         8.60195        -1.67014
C         25.32717        10.70225        -1.52643
C         24.19589         9.83233        -1.06709
C         25.50782        11.93712        -0.68347
C         24.37407        12.50062        -0.00205
C         25.75379        14.50972         0.58315
C         24.41373        13.82668         0.46830
C         25.63271        16.00638         0.56254
C         24.48741        16.61210         1.05646
C         25.85142        18.71973         1.34380
C         24.47328        18.07582         1.23168
C         25.88915        20.23407         1.43542
C         24.63861        20.94033         1.78976
C         25.89761        23.16027         1.84565
C         24.64617        22.40903         1.52937
C         25.87499        24.61194         1.62007
C         24.59445        25.36497         1.93570
C         25.81882        27.43189         1.23748
C         24.57902        26.75845         1.34377
C         25.82443        28.87679         1.17308
C         24.62325        29.60009         1.01390
C         25.77943        31.65679         1.61082
C         24.59055        30.98064         1.24498
C         25.77508        33.09132         1.99373
C         24.46306        33.82912         1.93244
C         25.75614        36.05554         1.96104
C         24.52685        35.27995         1.53358
C         25.73439        37.51467         1.55576
C         24.49951        38.17343         0.95139
C         25.77422        40.44464         1.12019
C         24.48394        39.67332         0.88505
C         25.76686        41.89096         1.38011
C         24.48726        42.57237         1.50480
C         25.66456        44.70288         1.34020
C         24.46289        44.02937         1.42931
C         25.68966        46.15629         1.63914
C         24.39279        46.91413         1.73797
C         25.69304        49.09557         1.03476
C         24.43228        48.43251         1.41647
C         25.73407        50.35031         0.45875
C         24.51554        50.93322        -0.14735
C         25.71920        53.07803        -0.56187
C         24.49919        52.34909        -0.56080
C         25.72075        54.41478        -1.04090
C         24.50504        55.02105        -1.48728
C         25.74955        57.11932        -1.99278
C         24.51378        56.36057        -1.99255
C         25.78217        58.46612        -2.32421
C         24.63931        59.13324        -2.93282
C         24.51708        60.58764        -2.95518
C         26.32466         8.62535        -2.50233
C         27.73684        10.73773        -2.07462
C         26.59349         9.86060        -1.66020
C         27.82407        12.04050        -1.59298
C         26.71185        12.64682        -0.83870
C         28.01879        14.70821        -0.53256
C         26.83132        13.95917        -0.33030
C         28.04798        16.08492        -0.24906
C         26.69297        16.78198        -0.18616
C         28.08991        18.95099         0.11768
C         26.79527        18.23322         0.25999
C         28.29912        20.21740         0.89658
C         27.05454        20.92871         1.28754
C         28.36907        23.14780         1.18590
C         27.17747        22.37841         1.62389
C         28.29663        24.55410         1.14023
C         27.06880        25.27953         1.36089
C         28.27748        27.45117         1.07025
C         27.05883        26.73174         1.24811
C         28.27168        28.88063         1.04758
C         27.03750        29.59284         1.22240
C         28.21117        31.77314         1.14089
C         27.01781        31.00679         1.39592
C         28.24145        33.15267         1.29293
C         27.15540        33.77609         2.15005
C         28.37787        36.01223         1.79474
C         27.08712        35.31115         2.11457
C         28.55455        37.32216         2.15187
C         26.74027        38.44567         2.10612
C         28.25012        40.39116         1.61133
C         26.94730        39.72655         1.67426
C         28.28521        41.91818         1.66984
C         26.96023        42.59882         1.39719
C         28.17441        44.71650         1.01014
C         26.94262        44.01636         1.30525
C         28.03438        46.17100         0.59862
C         26.96624        46.89155         1.41877
C         28.23255        49.08251         1.09642
C         26.94692        48.39717         1.39384
C         28.21069        50.44665         0.54414
C         26.98100        51.07825         0.27753
C         28.20656        53.10969        -0.29553
C         26.96761        52.42731        -0.18761
C         28.24651        54.59242        -0.57409
C         26.94676        55.17472        -1.07884
C         26.94492        56.47217        -1.51986
C         29.01316        12.79249        -1.75655
C         30.37307        14.77172        -1.27297
C         29.17522        14.08138        -1.18452
C         30.56967        16.05785        -0.52025
C         29.26662        16.82901        -0.39627
C         30.51174        18.97862        -0.59777
C         29.28943        18.20717        -0.31384
C         30.67586        20.38820        -0.12168
C         29.57608        20.98694         0.71444
C         30.75524        23.17090         0.46396
C         29.54363        22.46150         0.77475
C         30.76857        24.56048         0.61680
C         29.46076        25.29951         0.53858
C         30.68059        27.50350         0.64891
C         29.51253        26.77186         0.86379
C         30.65039        28.92384         0.52640
C         29.43534        29.60106         0.72594
C         30.60256        31.79212         0.35929
C         29.29687        31.05777         0.37416
C         30.57900        33.21231         0.43954
C         29.40303        33.90470         0.91245
C         30.63966        36.02900         0.76776
C         29.46872        35.31416         1.11694
C         30.73840        37.48246         1.00670
C         29.62262        38.22445         1.67168
C         30.42680        40.34316         0.46854
C         29.42469        39.69386         1.42213
C         30.51311        41.86245         0.53282
C         29.43710        42.59697         0.94137
C         30.40519        44.69776        -0.15591
C         29.37185        44.04328         0.77015
C         30.56463        46.24417        -0.01709
C         29.34610        46.91921         0.57340
C         30.69754        48.97725         0.69122
C         29.42268        48.25995         0.78452
C         30.68391        50.35961         0.51380
C         29.45426        51.08892         0.31351
C         29.41830        52.45007        -0.07171
C         31.72333        16.88430        -1.03624
C         32.86042        19.06867        -1.39125
C         31.72811        18.23769        -0.99203
C         33.03085        20.36985        -1.03121
C         32.09146        20.94776         0.07019
C         33.17306        23.20644         0.18354
C         32.00798        22.46959         0.20971
C         33.24441        24.63876         0.08635
C         32.03259        25.31071         0.58870
C         33.13434        27.51967        -0.03890
C         31.99269        26.82315         0.57276
C         33.03247        28.95919        -0.17043
C         31.84379        29.64392         0.13873
C         32.97290        31.82138        -0.24257
C         31.79044        31.08915         0.08480
C         32.93350        33.24224        -0.26019
C         31.75434        33.94035         0.12241
C         32.95376        36.10010        -0.12941
C         31.78091        35.37671         0.20491
C         33.01135        37.51553         0.04058
C         31.79527        38.25260         0.31953
C         32.97285        40.36990         0.00116
C         31.75615        39.61755         0.33753
C         32.94964        41.79967         0.47104
C         31.71416        42.45845        -0.19820
C         32.95723        44.59341         0.55302
C         31.80952        44.01206        -0.26818
C         32.92213        45.95683         0.90242
C         31.80836        46.78148         0.67259
C         31.86880        48.17125         0.85336
C         34.25472        21.02441        -1.70288
C         35.28417        23.38239        -1.76309
C         34.69666        22.33973        -1.13799
C         35.43031        24.73020        -1.18336
C         34.31836        25.36915        -0.45387
C         35.32103        27.58268        -1.23147
C         34.25331        26.81613        -0.47307
C         35.41526        29.04314        -0.86554
C         34.21143        29.69935        -0.53108
C         35.33004        31.83132        -0.98529
C         34.17699        31.11885        -0.55527
C         35.10298        33.20216        -1.27154
C         34.05894        33.95309        -0.77047
C         35.47087        36.00970        -0.22422
C         34.13779        35.46742        -0.84397
C         35.45751        37.41277         0.34060
C         34.23795        38.18272         0.07553
C         35.55710        40.35375         0.23530
C         34.29435        39.62923        -0.04925
C         35.47432        41.80148         0.28180
C         34.27563        42.50543         0.34672
C         34.18102        43.90329         0.60464
C         36.55928        25.45676        -1.50067
C         37.82206        27.58754        -1.33714
C         36.65041        26.87849        -1.28192
C         37.87713        29.02480        -1.12275
C         36.61797        29.76894        -1.00159
C         37.88405        31.92399        -0.92681
C         36.62264        31.20035        -1.03845
C         38.05285        33.31828        -0.87354
C         37.00264        34.25370        -1.15961
C         38.00950        36.06304         0.09231
C         36.82324        35.43543        -0.47405
C         37.98707        37.38424         0.49586
C         36.71564        38.15738         0.79159
C         36.71079        39.63858         0.43962
C         39.05845        29.68670        -0.94535
C         40.38232        31.80219        -0.52133
C         39.05354        31.09481        -0.41233
C         40.47227        33.14154        -0.38494
C         39.26352        33.95757        -0.37159
C         39.23716        35.28156         0.02346
O         22.26760        24.94953         2.63544
O         26.68268        22.68777         2.97455
O         24.40633        47.93867         2.79034
O         15.51092        41.18294         1.85569
O         34.38003        22.48125         0.22885
O         29.31521        20.21950         1.94463
O         21.31788        16.07831         3.00023
O         16.62848        26.94189        -1.45331
O         17.38202        33.26685         1.94902
O         23.93688        49.98278        -1.11916
O         15.27595        31.55499        -1.76336
O         26.30593        35.79131         3.26586
O         14.38371        37.79755        -1.38561
O         19.66515        43.24193        -0.72138
O         17.12343        51.15373         0.49309
O         35.25306        36.23338         1.21041
O         27.64226        37.91037         3.03358
O         25.00385        33.44660         3.22165
O         19.13077        16.29755        -0.15387
O         30.84446        37.87920         2.45227
O         26.65985        46.37029         2.73191
O         30.27666        20.16387        -1.49280
O         23.67438        42.06145         2.65384
O         33.60249        40.12425        -1.27448
O         25.32361        40.15809        -0.24627
O         24.00343        20.56282         3.05403
O         36.03048        33.86450        -2.08748
O          9.10596        31.42727         1.22679
O         24.24982        35.39944         0.11047
O         21.37137        52.05392        -2.28212
O         25.55556        37.63261         0.10804
O         24.18826        22.78797         0.18338
O         27.72762        48.99810         2.48123
O         22.34688        49.34000         2.27893
O         14.70773        46.38441         1.23557
O         21.20539        23.66449        -0.49656
O          9.62936        34.27789        -2.23441
O         24.12740        58.45628        -4.12731
O         26.99019        19.13991        -0.86713
O         14.17971        28.89499        -1.76124
O         32.29075        26.10780         1.82321
O         21.76693         9.59721         1.66033
O         18.35300        40.78666        -0.66663
O         20.51104        29.47514        -1.17900
O         21.99936         7.72242        -2.79473
O         15.19781        37.34662         2.14741
H         15.87089        36.88813         2.69342
O         32.23505        44.34638        -1.62387
H         33.12361        43.95323        -1.76147
O         21.29174        46.43022        -0.60923
H         20.77268        45.88849        -1.24157
O         20.61746        13.71806         2.87634
H         21.13244        14.30905         3.47540
O         12.33570        33.66095        -2.46485
H         13.25607        33.89131        -2.71624
O         27.54227        46.15365        -0.77581
H         28.18674        45.60315        -1.29174
O         29.80352        40.09050        -0.84477
H         30.39242        40.53163        -1.50813
O         19.24392        39.62739         2.73027
H         19.92484        39.06703         3.16093
O         29.76292        44.46301        -1.44536
H         30.28868        44.98592        -2.09772
O         34.08354        35.88409        -2.22781
H         34.73287        35.33328        -2.72135
O         16.10190        44.75576        -1.62632
H         16.28462        43.86467        -1.99457
O         18.10070        44.59715         2.29051
H         17.33471        45.13868         2.57804
O         13.60368        31.60026         1.41395
H         12.79826        31.99942         1.80644
O         30.67510        46.73620        -1.39463
H         30.86003        47.69884        -1.34671
O         32.63808        41.78834         1.89423
H         33.43893        41.51237         2.38820
O         24.82651         3.87224        -3.41917
H         25.12208         3.72363        -2.49812
O         22.05475        18.40617         3.36685
H         21.56863        17.68194         3.82576
O         25.00043        11.16705        -2.86784
H         24.15483        11.66055        -2.82388
O         26.91025         9.36635        -0.31413
H         27.75928         8.87946        -0.36612
O         31.62707        41.97426        -1.55751
H         31.14623        42.66307        -2.07191
O         34.83955        27.58907        -2.62887
H         35.52042        28.04105        -3.17129
O         22.18846        42.45687        -0.63531
H         21.35736        42.76921        -1.07276
O         19.19286        48.49475         2.39410
H         19.86078        47.91098         2.83855
O         20.54207        42.01920         2.62044
H         19.92751        41.32788         2.97163
O         22.66803        32.58280         2.95423
H         23.43355        32.59709         3.57937
O         26.22807        16.78625        -1.57158
H         26.49737        17.65798        -1.95084
O         19.13613         9.04393         2.66965
H         20.00478         8.80316         3.05856
O         36.66074        38.16710         2.26038
H         36.33009        37.27748         2.52574
O         27.58313        33.45052         3.49762
H         26.93137        33.87259         4.10264
O         10.68316        36.87076         1.04923
H         10.58432        37.66743         1.61194
O         29.16656        25.31272        -0.92995
H         29.01046        24.38424        -1.20909
O         23.69546        28.74296        -0.99618
H         23.01191        28.12455        -1.36005
O         30.94962        15.66861         0.84866
H         30.19854        15.16686         1.23167
O         19.33365        30.45360         2.15236
H         19.23687        31.26688         2.69562
O         26.23416        14.16337         1.94882
H         26.16249        13.18915         2.04424
O         21.40096        27.00996        -1.35874
H         20.84979        27.59492        -1.93106
O         22.98223        44.58960         3.19208
H         22.15040        45.05907         3.43735
O         28.83538        31.06023        -1.03357
H         28.78546        31.99503        -1.32709
O         16.64800        16.51939         2.56808
H         15.77816        16.95057         2.70929
O         19.62406        12.43590        -1.04598
H         18.92585        13.04570        -1.36632
O         18.14158        23.28941         2.53326
H         18.05466        22.39350         2.92401
O         21.36417        46.84831         3.02267
H         21.97637        47.43116         3.53032
O         16.24503        20.19918        -1.48714
H         16.32733        21.13337        -1.77536
O         16.49006        13.71523         2.40178
H         16.53348        14.65385         2.71720
O         38.82166        30.94773         1.04049
H         38.85478        31.84658         1.43236
O         33.98623        21.21488        -3.09443
H         33.50609        20.43148        -3.43295
O         15.67180        28.92383         1.52666
H         16.52597        28.93443         2.00854
O         11.21567        36.38921        -2.52105
H         11.16437        35.55616        -3.04493
O         29.32058        54.91638        -1.46887
H         29.11660        54.52764        -2.34397
O         26.40300        18.21054         2.58796
H         25.85769        18.56157         3.32480
O         32.58022        20.41378         1.31992
H         33.41813        20.87872         1.53330
O         28.51430        42.18798         3.09334
H         29.39473        41.82726         3.33210
O         24.64887        25.55939         3.38565
H         23.71485        25.63018         3.69514
O         23.65446        32.22128        -0.53654
H         23.70782        31.42460        -1.10785
O         17.82623        31.07897        -1.85227
H         17.03460        31.04934        -2.44039
H          5.00620        31.08808        -0.42975
H          5.03378        33.52350        -0.74525
H          7.54848        26.79290        -0.00573
H          6.29225        28.91894        -0.16929
H          6.24980        35.68763        -0.85584
H          7.43987        37.86961        -0.92541
H         10.04049        22.50141         0.05895
H          8.79550        24.65231         0.07708
H          8.70230        40.02901        -0.97404
H          9.92218        42.16047        -0.86799
H         12.57115        18.24106        -0.24231
H         11.30029        20.35954        -0.02008
H         11.15730        44.29381        -0.93347
H         12.45607        46.41445        -1.19514
H         15.02533        14.00776        -0.19037
H         13.82077        16.12828        -0.37093
H         13.75238        48.52669        -1.25403
H         15.00538        50.25192        -1.95414
H         17.20670         9.65044         0.88456
H         16.04258        11.70309         0.69900
H         16.27812        52.79167        -2.27875
H         17.42249        54.82129        -2.10385
H         19.82216         5.51855        -0.24630
H         18.69374         7.41634         0.65381
H         18.64817        56.91272        -2.35574
H         19.88411        58.96021        -2.81325
H         22.55355         2.66200        -2.85555
H         20.86391         3.58752        -1.35868
H         23.26591        62.28709        -3.31010
H         21.15126        61.02269        -3.40043
H         23.23709         4.65263        -4.45760
H         25.70199         6.20644        -3.57352
H         26.69014        59.05243        -2.11659
H         25.40245        61.19630        -2.72050
H         27.17089         8.12978        -3.00487
H         28.59157        10.30431        -2.61820
H         28.49496        55.10434         0.39938
H         27.88802        57.03814        -1.53073
H         29.85673        12.34520        -2.30374
H         31.24262        14.29390        -1.74958
H         31.63556        50.90560         0.43187
H         30.35677        53.00992        -0.19594
H         32.63408        16.34226        -1.33524
H         33.61176        18.59569        -2.04790
H         33.82368        46.40520         1.34853
H         32.82311        48.64496         1.12821
H         35.11064        20.28388        -1.59543
H         35.61745        23.25330        -2.80359
H         36.41759        42.36599         0.35026
H         35.08716        44.46036         0.89109
H         37.41031        24.94369        -1.97527
H         38.77740        27.05040        -1.44572
H         38.92613        37.84545         0.84002
H         37.64292        40.18638         0.65111
H         40.01306        29.14004        -0.98517
H         41.29364        31.18544        -0.54578
H         41.44976        33.64314        -0.32327
H         40.16680        35.75234         0.37763
