         424
 CSIRO Nanostructure Databank - Neutral Graphene Oxide Data Set
C          1.87279         1.98888        -2.51636
C          1.79953         3.40401        -2.46968
C          2.81436         1.30074        -1.80052
C          2.80728         4.16525        -1.83283
C          1.72802         6.34765        -2.40261
C          1.72378         7.72901        -2.40615
C          2.81553         5.61818        -1.86972
C          2.81165         8.47455        -1.88414
C          1.73396        10.64995        -2.46610
C          1.75513        12.02143        -2.53579
C          2.81314         9.91616        -1.90048
C          2.83061        12.78513        -1.98752
C          1.91652        14.93679        -2.91594
C          2.08771        16.25133        -3.20816
C          2.89112        14.18478        -2.16836
C          3.40385        16.92966        -2.96344
C          3.32682        18.43179        -2.92914
C          3.73938         2.02082        -0.86498
C          3.87267         3.48914        -1.18612
C          5.06834         1.34236        -0.76602
C          5.02247         4.20282        -0.75364
C          3.92125         6.33920        -1.33298
C          3.92348         7.76833        -1.34274
C          5.05084         5.63117        -0.80939
C          5.05817         8.48819        -0.83458
C          3.92142        10.63412        -1.36187
C          3.91217        12.06859        -1.34297
C          5.05263         9.92374        -0.85277
C          5.00432        12.76154        -0.76071
C          3.88306        14.96018        -1.40652
C          4.13796        16.36672        -1.76244
C          4.91503        14.22202        -0.57263
C          5.18417        17.07000        -1.20414
C          4.28206        19.14508        -2.30598
C          5.33292        18.49858        -1.52105
C          6.20924         2.03923        -0.42554
C          6.17885         3.49598        -0.30663
C          7.44820         1.35617        -0.21866
C          7.30238         4.20996         0.15614
C          6.18587         6.34183        -0.32074
C          6.18418         7.78347        -0.33907
C          7.30607         5.62070         0.17436
C          7.36483         8.50751         0.05573
C          6.20467        10.64558        -0.42104
C          6.18236        12.07434        -0.37757
C          7.38044         9.93428        -0.03036
C          7.37272        12.80623         0.00780
C          6.08367        14.98344         0.05029
C          6.23031        16.41515        -0.43831
C          7.38509        14.22004         0.05099
C          7.39296        17.09865        -0.12700
C          6.37217        19.21572        -1.02196
C          7.36707        18.60891        -0.07072
C          8.58295         2.00915         0.26928
C          8.48183         3.44382         0.63704
C          9.80945         1.33970         0.41701
C          9.75598         4.18271         0.96216
C          8.42524         6.36515         0.87133
C          8.52359         7.81593         0.47844
C          9.76079         5.65603         0.83228
C          9.74973         8.50939         0.64945
C          8.57227        10.65344         0.29040
C          8.57211        12.08459         0.28503
C          9.76747         9.94129         0.57748
C          9.77075        12.79313         0.60961
C          8.58404        14.93422         0.30028
C          8.60275        16.39197         0.22617
C          9.77538        14.22655         0.58930
C          9.81470        17.08887         0.32032
C          8.71573        19.24557        -0.15511
C          9.86606        18.53570         0.12163
C         11.03017         2.02024         0.68353
C         11.04048         3.45092         0.86700
C         12.25106         1.32153         0.70817
C         12.23822         4.14744         0.93409
C         10.94200         6.35175         0.91383
C         10.97010         7.79337         0.86184
C         12.22595         5.62749         1.27163
C         12.21408         8.50953         0.97124
C         10.97638        10.65843         0.85466
C         10.95825        12.06949         0.90026
C         12.20668         9.93750         1.03320
C         12.16455        12.81012         1.41981
C         11.02854        14.93879         0.75564
C         11.05019        16.39565         0.58620
C         12.19779        14.24779         0.98527
C         12.23384        17.10193         0.75340
C         11.12285        19.21207         0.21283
C         12.29472        18.53207         0.56055
C         13.48286         2.00956         0.79693
C         13.48559         3.44358         0.84206
C         14.71905         1.32428         0.89347
C         14.73543         4.12038         0.83952
C         13.43563         6.32802         0.65607
C         13.45057         7.80707         0.97406
C         14.69784         5.58906         1.06811
C         14.68063         8.51178         1.05944
C         13.44489        10.66140         1.14356
C         13.46362        12.07620         1.20878
C         14.67709         9.94164         1.14229
C         14.69410        12.78196         1.31369
C         13.51359        14.96053         0.78542
C         13.44856        16.38886         1.29969
C         14.73201        14.22870         1.29324
C         14.75747        17.10762         1.07342
C         13.54080        19.21302         0.66981
C         14.76113        18.53414         0.88994
C         15.96185         1.98091         0.87907
C         15.96693         3.43540         0.76254
C         17.13060         1.17810         1.17462
C         17.19912         4.22176         0.71454
C         15.97476         6.35799         1.14038
C         15.93349         7.82495         1.01087
C         17.23822         5.63705         0.91080
C         17.14551         8.53333         0.95816
C         15.91190        10.64977         1.24379
C         15.90885        12.06369         1.38858
C         17.13638         9.92466         1.10477
C         17.16948        12.77761         1.81282
C         15.93211        14.94697         1.38495
C         15.94540        16.39637         1.20570
C         17.18341        14.26850         1.55963
C         17.20598        17.09825         1.23724
C         16.00085        19.22081         0.88637
C         17.22055        18.54302         1.07669
C         18.41857         1.52590         0.74793
C         18.42503         3.64157         0.35384
C         19.70087         1.19741         1.20881
C         19.68345         4.22990         0.63557
C         18.43980         6.34485         0.79219
C         18.41638         7.82960         0.51703
C         19.68433         5.65264         0.77546
C         19.67622         8.54032         0.95880
C         18.40541        10.66591         0.97950
C         18.40957        12.13049         1.24911
C         19.66685         9.90197         1.07634
C         19.69237        12.84221         1.46165
C         18.39704        14.96471         1.56464
C         18.39407        16.39976         1.46368
C         19.67989        14.25070         1.56074
C         19.64476        17.15763         1.67168
C         18.45364        19.24164         1.06843
C         19.68405        18.59239         1.30882
C         20.87877         1.99844         0.95615
C         20.87860         3.44434         0.76930
C         22.11962         1.34192         1.06903
C         22.11156         4.16094         0.93860
C         20.93236         6.34735         0.87269
C         20.93160         7.79632         1.00257
C         22.13046         5.60908         0.92513
C         22.13252         8.49218         1.05638
C         20.89510        10.63082         1.55620
C         20.89170        12.12730         1.33181
C         22.16192         9.92469         1.14643
C         22.10065        12.82975         1.20844
C         20.92142        14.93442         1.56912
C         20.96571        16.40415         1.74997
C         22.12039        14.23211         1.34452
C         22.20228        17.13570         1.41450
C         20.91685        19.25283         1.25243
C         22.17377        18.56333         1.29295
C         23.35937         2.03106         1.08569
C         23.32334         3.45757         1.14291
C         24.59988         1.34110         1.01170
C         24.55953         4.18582         1.45374
C         23.40166         6.31185         1.01042
C         23.40645         7.78293         0.66613
C         24.56813         5.64447         1.27003
C         24.62706         8.54789         1.11445
C         23.34900        10.62389         1.04783
C         23.30859        12.08966         0.70438
C         24.61103         9.91243         1.09714
C         24.60235        12.83584         0.86706
C         23.44642        14.94775         1.50501
C         23.40482        16.43375         1.20958
C         24.60907        14.19176         0.88733
C         24.59832        17.14035         0.99112
C         23.39438        19.25986         1.13976
C         24.62399        18.57095         1.00668
C         25.85887         1.99696         1.06966
C         25.88563         3.44078         1.42792
C         27.06552         1.33871         0.88908
C         27.13608         4.20264         1.15008
C         25.87103         6.34156         1.45062
C         25.89187         7.83476         1.39233
C         27.12396         5.61944         1.14308
C         27.15220         8.53687         1.08307
C         25.87025        10.70439         1.38325
C         25.85971        12.03679         0.60564
C         27.14918         9.95901         1.04565
C         27.08933        12.88154         0.97571
C         25.80652        14.95067         0.43454
C         25.82783        16.43210         0.58509
C         27.10898        14.19196         0.19817
C         27.12141        17.12997         0.63587
C         25.88003        19.24160         0.89591
C         27.11214        18.54215         0.78255
C         28.37260         2.01630         1.20723
C         28.32792         3.50229         0.93010
C         29.54526         1.34828         0.55623
C         29.51937         4.20969         0.60232
C         28.30647         6.34623         0.86320
C         28.31808         7.79432         0.84137
C         29.50622         5.63538         0.56394
C         29.53054         8.48736         0.50134
C         28.33311        10.66709         0.81296
C         28.37396        12.10889         0.78617
C         29.56681         9.94776         0.54737
C         29.55465        12.80925         0.66707
C         28.36206        14.97703         0.51987
C         28.34410        16.40352         0.57692
C         29.56538        14.26128         0.58880
C         29.58979        17.10435         0.62784
C         28.37582        19.21858         0.80902
C         29.57516        18.53065         0.72758
C         30.69902         2.05304         0.21677
C         30.72260         3.50520         0.28759
C         31.88531         1.37660        -0.18025
C         31.91148         4.21713        -0.00572
C         30.70208         6.34668         0.22530
C         30.67682         7.77496         0.16931
C         31.90714         5.64397        -0.02129
C         31.85119         8.54251        -0.37794
C         30.75905        10.63093         0.44025
C         30.85868        12.07748         0.84068
C         32.05491         9.86029         0.37227
C         32.04741        12.80537         0.26474
C         30.81605        14.95607         0.49858
C         30.81906        16.37348         0.50175
C         32.03377        14.21367         0.24916
C         32.05605        17.08181         0.31884
C         30.87396        19.29854         0.82179
C         32.09745        18.50352         0.42229
C         33.09740         2.06805        -0.40030
C         33.12489         3.50453        -0.30969
C         34.29081         1.36720        -0.70660
C         34.33899         4.20449        -0.51602
C         33.12989         6.37903        -0.31233
C         33.12271         7.74881        -0.44215
C         34.37511         5.64286        -0.48400
C         34.32038         8.49346        -0.97507
C         33.21839        10.65273        -0.18880
C         33.21365        12.08013        -0.11410
C         34.36321         9.96530        -0.60881
C         34.40069        12.79665        -0.47969
C         33.22689        14.93297        -0.09258
C         33.23708        16.35764        -0.02568
C         34.40985        14.22277        -0.45472
C         34.44463        17.06032        -0.32565
C         33.29323        19.17634         0.22735
C         34.48585        18.49499        -0.14892
C         35.50893         2.04592        -0.89300
C         35.53832         3.48004        -0.78731
C         36.71660         1.34672        -1.18181
C         36.76601         4.17514        -0.95046
C         35.58587         6.33350        -0.62034
C         35.62120         7.78236        -0.70862
C         36.81395         5.60234        -0.80309
C         36.80489         8.47653        -0.74257
C         35.57037        10.66165        -0.86980
C         35.58777        12.08388        -0.81822
C         36.82689         9.92180        -0.96726
C         36.77744        12.81104        -1.16080
C         35.59573        14.93683        -0.83138
C         35.57903        16.35631        -0.78468
C         36.77668        14.19887        -1.20304
C         36.76960        17.13519        -1.18069
C         35.69504        19.19358        -0.29509
C         36.87323        18.54290        -0.73242
C         37.92276         2.02515        -1.35307
C         37.95978         3.45861        -1.23077
C         39.14824         1.33081        -1.65783
C         39.18009         4.16338        -1.41293
C         38.03381         6.28471        -0.90670
C         38.10413         7.73188        -0.49119
C         39.21834         5.58743        -1.26622
C         39.30843         8.44873        -1.03834
C         38.00811        10.60689        -1.14400
C         37.98839        12.03416        -1.65473
C         39.32738         9.93901        -0.82935
C         39.28559        12.79074        -1.42646
C         37.99188        14.89046        -1.81490
C         38.02515        16.40553        -1.60193
C         39.29199        14.19282        -1.46811
C         39.30911        17.09744        -1.37522
C         38.08941        19.20295        -0.86193
C         39.30623        18.50307        -1.14458
C         40.31859         2.01103        -1.83947
C         40.37371         3.44480        -1.72650
C         41.56873         4.15979        -1.91200
C         40.43769         6.29088        -1.51398
C         40.43553         7.75980        -1.46954
C         41.59160         5.55422        -1.82276
C         41.58200         8.49796        -1.90672
C         40.50713        10.63427        -1.43853
C         40.51279        12.07637        -1.40183
C         41.59694         9.89090        -1.89646
C         41.72629        12.80079        -1.36492
C         40.51351        14.91302        -1.40685
C         40.52875        16.38037        -1.37343
C         41.72113        14.18375        -1.33678
C         41.73535        17.10343        -1.29009
C         40.54104        19.19392        -1.07378
C         41.73708        18.49760        -1.17425
O         18.32219        11.66063        -0.13848
O         20.29122        16.87210         2.96290
O         37.15949        17.04091        -2.61152
O          3.67127        14.68779         0.04900
O         25.52320        15.76619        -0.76247
O         15.24485         5.93932         2.37141
O          8.85120         3.70901         2.04504
O         25.91358         7.14001         2.70434
O         18.41854         2.43789        -0.33639
O         25.24467         3.74370         2.70066
O          4.24806        16.58553        -4.12648
H          5.07586        17.10605        -4.04648
O         31.04351        19.77002         2.17724
H         31.08645        18.98822         2.76551
O         28.57011         1.88286         2.67213
H         27.83574         2.36553         3.11034
O          8.05000         6.36208         2.30139
H          8.10557         5.41714         2.59097
O         38.27629         7.71538         0.97464
H         38.52604         8.63968         1.22895
O         31.50254         8.92035        -1.75898
H         31.13348         8.12515        -2.19895
O         27.19139        13.90389        -1.22741
H         26.76741        14.67731        -1.67605
O         13.29893         6.19573        -0.78558
H         13.99079         6.73980        -1.21651
O         13.26481        16.31926         2.74620
H         13.22509        17.23686         3.08838
O         20.86225        10.51241         3.02829
H         20.87168         9.55679         3.25040
O         25.86517        10.96860         2.81792
H         25.89019        10.10249         3.27943
O         23.14618        12.06349        -0.76774
H         24.03379        11.81209        -1.13152
O          6.85816        18.93160         1.28434
H          6.11058        18.32088         1.46346
O          3.10702         1.94913         0.48628
H          2.24145         2.40635         0.42036
O         11.99855        12.85399         2.89498
H         11.20440        13.39892         3.08296
O         17.26656        12.59465         3.26381
H         16.48917        13.02891         3.67476
O         23.44192         7.81784        -0.80910
H         23.29277         8.74812        -1.08442
O         37.85867        14.68633        -3.26231
H         37.31548        15.44415        -3.59131
O         34.14951         8.48441        -2.43845
H         33.26185         8.88342        -2.60853
O         39.49320        10.14157         0.65795
H         40.42042         9.89967         0.87387
O         27.01011        13.29186         2.35886
H         26.75015        12.50516         2.89819
O          5.75805        15.11853         1.47578
H          4.77547        15.18847         1.52548
O         23.73540        14.90555         2.94629
H         23.65505        13.97542         3.24721
O         12.36774         5.73764         2.70796
H         11.59640         5.30399         3.12878
O         31.12399        12.05024         2.31097
H         30.27480        11.83117         2.75294
O         18.39765         7.92977        -0.95170
H         18.47728         8.88050        -1.18320
O         32.40446         9.54933         1.75041
H         32.28339        10.38196         2.26702
O         13.69676        15.05649        -0.66491
H         13.81294        14.14865        -1.01581
O         25.89925        11.64797        -0.79114
H         26.34126        12.38929        -1.28753
O         37.83581        11.92667        -3.10678
H         37.80991        12.85540        -3.45437
H          1.14845         1.44486        -3.14046
H          0.99004         3.90158        -3.01917
H          2.84445         0.20174        -1.82741
H          0.85725         5.81906        -2.81253
H          0.84942         8.24455        -2.82357
H          0.86855        10.12090        -2.88526
H          0.90961        12.53718        -3.00931
H          0.98794        14.44019        -3.23277
H          1.30711        16.80369        -3.75161
H          2.53971        18.93299        -3.51216
H          5.11336         0.24936        -0.88500
H          4.28142        20.24495        -2.34761
H          7.50039         0.27823        -0.43457
H          6.43417        20.29821        -1.21374
H          9.84828         0.25978         0.20830
H          8.76814        20.33419        -0.30771
H         12.24803         0.22436         0.62977
H         11.15161        20.29903         0.04550
H         14.70309         0.22666         0.96866
H         13.56054        20.30089         0.50572
H         16.98186         0.27318         1.78310
H         16.00846        20.31166         0.74245
H         19.83342         0.30066         1.83303
H         18.44983        20.32346         0.86625
H         22.12937         0.24523         1.15416
H         20.92756        20.33731         1.06462
H         24.58414         0.25078         0.86583
H         23.38503        20.35919         1.10295
H         27.06754         0.26187         0.66077
H         25.89914        20.34013         0.95187
H         29.54775         0.24935         0.49233
H         28.38872        20.31395         0.91161
H         31.87432         0.27856        -0.25241
H         30.80878        20.21816         0.18376
H         34.26441         0.26988        -0.78134
H         33.32616        20.26887         0.35117
H         36.68979         0.25045        -1.27237
H         35.72993        20.26870        -0.06491
H         39.12287         0.23475        -1.74703
H         38.14758        20.27593        -0.62529
H         41.24542         1.46754        -2.07563
H         42.49482         3.61552        -2.14709
H         42.54645         6.06854        -1.99677
H         42.45990         7.96811        -2.29712
H         42.47687        10.41263        -2.29984
H         42.68375        12.26305        -1.32777
H         42.68368        14.70808        -1.28306
H         42.70115        16.58353        -1.32511
H         40.54041        20.28286        -0.92375
H         42.69384        19.03594        -1.12725
