         404
 CSIRO Nanostructure Databank - Neutral Graphene Oxide Data Set
C          1.68764         1.91993        -1.64663
C          1.68197         3.30489        -1.82046
C          2.82206         1.25822        -1.17975
C          2.82341         4.08122        -1.50800
C          1.81591         6.21346        -2.35502
C          1.93289         7.55017        -2.66637
C          2.88366         5.50957        -1.74009
C          3.12264         8.28185        -2.38940
C          2.32272        10.31048        -3.61777
C          2.46319        11.65143        -4.00844
C          3.30242         9.61994        -2.89857
C          3.59767        12.41449        -3.69451
C          2.61104        14.57196        -4.52165
C          2.77885        15.83258        -4.97751
C          3.71226        13.80952        -3.95912
C          4.15374        16.44457        -5.04983
C          4.12501        17.94759        -5.06497
C          3.99243         1.98265        -0.85296
C          3.97722         3.41523        -1.00062
C          5.15291         1.30916        -0.38225
C          5.11658         4.17632        -0.61842
C          4.04355         6.24832        -1.36254
C          4.16984         7.64173        -1.67363
C          5.12454         5.56875        -0.72363
C          5.36493         8.37879        -1.28815
C          4.61554        10.25203        -2.72090
C          4.76484        11.71656        -3.12556
C          5.56398         9.69985        -1.73728
C          5.82571        12.50955        -2.48482
C          4.91743        14.49738        -3.62894
C          5.07259        15.86997        -3.99672
C          5.91540        13.85212        -2.82117
C          6.10968        16.65357        -3.45544
C          5.08719        18.68723        -4.48343
C          6.16811        18.07755        -3.72250
C          6.34303         1.99533        -0.07180
C          6.36102         3.46153        -0.25992
C          7.50710         1.35792         0.37938
C          7.49121         4.23289         0.37569
C          6.17223         6.37733        -0.05317
C          6.35772         7.78227        -0.45335
C          7.31330         5.69359         0.65163
C          7.51591         8.48784        -0.07343
C          6.67001        10.47534        -1.28310
C          6.78332        11.87292        -1.60202
C          7.64811         9.87217        -0.42872
C          7.75571        12.66216        -0.93832
C          7.16950        14.58592        -2.41649
C          7.08751        16.07744        -2.59503
C          7.56586        14.17902        -0.99302
C          8.12777        16.84960        -2.07023
C          7.22102        18.82899        -3.24598
C          8.25929        18.23490        -2.45584
C          8.64499         2.08473         0.86269
C          8.57497         3.48674         1.00524
C          9.82546         1.42225         1.30786
C          9.62296         4.22668         1.70493
C          8.52437         6.47121         0.97716
C          8.59332         7.83796         0.66780
C          9.57551         5.76575         1.71270
C          9.74559         8.60646         1.03049
C          8.73079        10.65282         0.07718
C          8.72600        12.06308        -0.11363
C          9.81962         9.98949         0.77253
C          9.70077        12.88481         0.65927
C          8.75758        14.99619        -0.49298
C          9.08384        16.27171        -1.16359
C          9.81082        14.36660         0.39011
C         10.25230        16.95768        -0.82992
C          9.39676        18.93584        -2.07408
C         10.43824        18.30411        -1.33545
C         10.96429         2.14750         1.71539
C         10.92557         3.56680         1.87101
C         12.19156         1.46904         2.00225
C         12.11504         4.31256         2.08569
C         10.84601         6.49238         2.03812
C         10.87925         7.97785         1.73886
C         12.11930         5.75244         2.10711
C         12.18598         8.65732         1.72408
C         10.98719        10.71540         1.16946
C         10.88241        12.17775         1.28912
C         12.18445        10.06628         1.55775
C         12.10943        12.96280         1.68710
C         11.11494        15.06111         0.51895
C         11.29178        16.33258        -0.02611
C         12.16842        14.44880         1.36704
C         12.55396        17.04430         0.12869
C         11.62638        18.98869        -1.08019
C         12.69623        18.36457        -0.39073
C         13.34213         2.16956         2.27768
C         13.35126         3.60495         2.24038
C         14.58612         1.41803         2.68006
C         14.57989         4.32173         2.29090
C         13.33151         6.47208         2.14927
C         13.36310         7.92393         2.02643
C         14.57053         5.74744         2.21987
C         14.59894         8.62538         2.11342
C         13.39245        10.82995         1.86143
C         13.37585        12.21847         1.92493
C         14.62157        10.07887         2.09562
C         14.59343        12.98061         2.31781
C         13.48096        15.17868         1.50242
C         13.65656        16.45211         0.78404
C         14.70590        14.45268         2.00758
C         14.89920        17.11762         0.90073
C         13.90732        19.06819        -0.17311
C         14.98447        18.46726         0.45301
C         15.85791         2.17286         2.38879
C         15.83092         3.60527         2.28671
C         17.04521         1.48010         2.30016
C         17.04906         4.30566         2.12847
C         15.80465         6.45680         2.19177
C         15.82063         7.88698         2.19501
C         17.04018         5.74786         2.12198
C         17.06974         8.55773         2.29064
C         15.81888        10.74880         2.31822
C         15.89183        12.21219         2.48464
C         17.04587         9.99466         2.58189
C         17.20563        12.90706         2.29549
C         16.03989        15.05415         1.74188
C         16.09402        16.41082         1.35168
C         17.24072        14.30906         1.96596
C         17.36369        17.06669         1.24371
C         16.20289        19.29146         0.75831
C         17.44894        18.45866         0.89124
C         18.28877         2.15639         2.09444
C         18.28356         3.58810         2.01602
C         19.49805         1.45753         1.96445
C         19.50283         4.27066         1.77003
C         18.25163         6.46047         2.00174
C         18.29315         7.87023         2.15746
C         19.46205         5.72995         1.60979
C         19.57107         8.58456         2.23202
C         18.36175        10.73466         2.68155
C         18.39774        12.19581         2.42739
C         19.58942         9.96147         2.44457
C         19.68134        12.84232         2.35270
C         18.50766        14.95323         1.82738
C         18.56370        16.34073         1.47866
C         19.72798        14.23620         2.06149
C         19.83044        16.99448         1.36004
C         18.66580        19.07609         0.73923
C         19.88878        18.37259         0.96717
C         20.72561         2.13665         1.77030
C         20.72672         3.57617         1.67423
C         21.93959         1.42341         1.65255
C         21.97893         4.27841         1.53635
C         20.78015         6.48604         1.56074
C         20.81457         7.87645         2.03331
C         22.02060         5.69975         1.56247
C         22.07454         8.47868         2.22099
C         20.84057        10.65755         2.79683
C         20.89675        12.13470         2.62494
C         22.12042         9.83662         2.82935
C         22.12672        12.81876         2.62471
C         20.99023        14.90520         2.00454
C         21.03712        16.29835         1.64108
C         22.19024        14.20701         2.30291
C         22.28188        16.97238         1.55290
C         21.12040        19.01955         0.83218
C         22.33201        18.34453         1.12367
C         23.17163         2.09277         1.48772
C         23.19460         3.52898         1.47780
C         24.37614         1.37980         1.26029
C         24.43980         4.19579         1.29758
C         23.23991         6.41592         1.47161
C         23.26155         7.81634         1.78221
C         24.41706         5.62978         1.12682
C         24.56437         8.53394         1.94155
C         23.41136        10.60278         2.97811
C         23.39865        12.11148         2.92024
C         24.68793         9.91227         2.63834
C         24.68462        12.82945         2.71311
C         23.45874        14.91581         2.33956
C         23.49537        16.31267         1.93330
C         24.65410        14.25144         2.64189
C         24.71338        16.99450         1.84129
C         23.57080        18.99766         0.98988
C         24.78873        18.33578         1.30151
C         25.62520         2.01210         1.09685
C         25.66398         3.46459         1.17769
C         26.72664         1.22107         0.61063
C         26.86433         4.21536         0.91642
C         25.50386         6.19175         0.45757
C         25.66365         8.30056         1.02730
C         26.75620         5.54027         0.39020
C         26.92494         8.86292         1.21414
C         25.91122        10.70793         2.43719
C         25.89890        12.13615         2.60494
C         27.07065        10.04000         2.01812
C         27.16715        12.85914         2.52584
C         25.91283        15.00541         3.02995
C         25.92887        16.43236         2.46722
C         27.19357        14.22965         2.71032
C         27.22945        17.12699         2.21427
C         26.01801        18.96411         1.05831
C         27.31051        18.22375         1.17294
C         28.06975         1.63176         0.69112
C         28.17446         3.69978         1.03182
C         29.16311         1.37139        -0.14962
C         29.33587         4.29563         0.47923
C         27.93796         6.21946         0.00094
C         28.06626         8.36780         0.48128
C         29.22556         5.69964         0.15246
C         29.37355         8.68094         0.76415
C         28.41901        10.62004         2.22864
C         28.41666        12.08780         2.50101
C         29.64891         9.85368         1.65195
C         29.57441        12.73521         2.84878
C         28.48028        14.95854         2.86201
C         28.52855        16.43036         2.52364
C         29.76484        14.18309         2.82852
C         29.76765        17.01646         1.96262
C         28.49918        19.08496         1.50419
C         29.70811        18.48484         1.77719
C         30.39673         2.10941        -0.20869
C         30.51313         3.53606         0.14701
C         31.38969         1.43230        -0.99512
C         31.64800         4.35287        -0.24636
C         30.40116         6.51714        -0.05657
C         30.46975         7.92876         0.16901
C         31.59318         5.79059        -0.34018
C         31.72167         8.60518        -0.00173
C         30.94270        10.52313         1.34988
C         31.29730        11.70957         1.98500
C         31.88771         9.95924         0.44300
C         32.28711        12.59652         1.48099
C         31.06666        14.80515         2.23848
C         30.89647        16.21278         1.73905
C         32.24640        14.03291         1.68699
C         32.01244        16.77191         1.05751
C         30.89458        19.31018         2.01595
C         32.08109        18.92110         1.40792
C         32.75916         1.73886        -1.02389
C         32.91816         3.79394        -0.50931
C         33.75614         1.42224        -1.95197
C         33.90399         4.41945        -1.31581
C         32.75531         6.50557        -0.75454
C         32.83444         7.93250        -0.56301
C         33.81382         5.82018        -1.39026
C         34.05782         8.63006        -0.79688
C         33.13038        10.64291         0.23672
C         33.29601        11.96671         0.70360
C         34.21211         9.97486        -0.45043
C         34.64645        12.62185         0.67110
C         33.33683        14.76189         1.15420
C         33.28802        16.20209         1.02925
C         34.50055        14.12144         0.62670
C         34.46755        17.00255         0.82851
C         33.43562        19.22676         1.62774
C         34.53024        18.42939         1.15019
C         34.94182         2.22907        -2.13297
C         34.97356         3.66292        -1.96182
C         36.07957         1.59442        -2.68654
C         36.02122         4.39143        -2.58683
C         34.76366         6.67357        -2.18236
C         35.24387         7.83805        -1.29531
C         35.92728         5.87157        -2.77131
C         36.30399         8.69564        -1.95782
C         35.44160        10.69548        -0.78880
C         35.62556        12.05752        -0.34479
C         36.41439        10.08113        -1.59224
C         36.77290        12.79620        -0.61914
C         35.61384        14.87936         0.27063
C         35.66454        16.30496         0.52258
C         36.81543        14.17557        -0.13242
C         36.91496        16.99127         0.45175
C         35.79388        19.05499         1.15190
C         36.98399        18.38649         0.78116
C         37.21709         2.30931        -3.08046
C         37.14804         3.73013        -3.11398
C         38.46429         1.62737        -3.38757
C         38.26421         4.48167        -3.72206
C         37.17103         6.64134        -3.08902
C         37.29738         8.06038        -2.68664
C         38.39116         5.92203        -3.48890
C         38.43247         8.78007        -3.21525
C         37.64867        10.81033        -1.99471
C         37.89836        12.20656        -1.44645
C         38.43641        10.19807        -3.11407
C         38.92871        13.13732        -2.07553
C         38.00639        14.86502         0.04388
C         38.10528        16.28657         0.13813
C         39.50969        14.12987        -1.26254
C         39.33513        16.98657        -0.10262
C         38.24517        19.02041         0.78275
C         39.40175        18.36205         0.31112
C         39.59181         2.28532        -3.75344
C         39.56461         3.72419        -4.06907
C         40.78794         4.53356        -4.12994
C         39.51210         6.62232        -3.89038
C         39.45529         8.09033        -3.92800
C         40.73338         5.89444        -4.16751
C         40.35241         8.83950        -4.70777
C         39.22925        10.88493        -4.04660
C         39.38002        13.16756        -3.41154
C         40.16888        10.21467        -4.84772
C         40.22347        14.18922        -3.88914
C         40.24747        15.23929        -1.71281
C         40.42943        16.44219        -0.86363
C         40.62300        15.24119        -3.06756
C         41.59527        17.19377        -1.00231
C         40.63685        19.06753         0.19100
C         41.72107        18.47384        -0.41938
O         17.64612        10.33574         3.89806
O          7.48527         3.94410        -1.08707
O         13.90552        15.29066         2.90008
O         21.33396        10.02906         4.03799
O         36.13878         6.33124        -4.15051
O          6.13417         6.10525         1.41183
O         39.18912        14.11364         0.10204
O         33.20994         2.55364         0.04364
O         10.59579         7.46463         3.10270
O         26.48190        17.44239         3.41135
O         25.38984         7.49189        -0.08092
O         30.69903        12.00720         3.21391
O          5.27495        10.63626        -3.98388
O         24.95177         8.66924         3.35054
O         29.26775         9.74471         3.05126
O          9.10476         4.98716         2.86329
O         11.74381        13.96585         2.67909
O         19.99035         6.24597         0.32850
O         38.99903        12.23194        -4.36297
O         15.11372        12.67089         3.64687
O         30.82026        14.69080         3.67821
O         38.58114         4.07523        -5.09211
O         31.85273        17.96812         0.37387
O         23.44132        11.37848         4.20328
O         38.51892        11.04744        -0.80034
O          9.69923        12.55485         2.07850
O          8.69982        15.14208         0.96794
O         28.53058        15.97870         3.91528
O         28.34432         2.52693         1.75812
O         27.81507         7.49053        -0.58934
O          4.70963        16.03618        -6.35610
H          4.64455        15.05837        -6.40275
O         27.57285        17.52426        -0.10234
H         27.75647        18.20639        -0.78229
O          8.25530        14.11748        -3.27596
H          8.01011        14.31272        -4.20485
O         25.86230        15.10903         4.47369
H         26.55497        15.76610         4.72556
O         35.88861         7.22862        -0.13829
H         36.15404         7.94638         0.47524
O         35.23950        12.30823         1.98674
H         36.12204        12.73624         2.01778
O         33.98695         7.24322        -3.25758
H         34.54634         7.18361        -4.07096
O         16.38052        20.33919        -0.20078
H         16.56303        19.93055        -1.07128
O          6.44567        14.47960        -0.13772
H          6.80698        14.60523         0.77077
O         14.61681         0.11168         2.09744
H         14.69220         0.21059         1.12649
H          0.78568         1.34244        -1.89330
H          0.77264         3.78522        -2.20553
H          2.81488         0.16520        -1.06271
H          0.88920         5.68762        -2.62061
H          1.09558         8.04613        -3.17442
H          1.36586         9.82030        -3.84276
H          1.61669        12.12359        -4.52539
H          1.61295        14.11212        -4.55358
H          1.93076        16.38903        -5.40362
H          3.31973        18.43263        -5.63717
H          5.11906         0.21533        -0.26776
H          5.06947        19.78519        -4.55841
H          7.52869         0.25945         0.43425
H          7.28100        19.90228        -3.48042
H          9.88437         0.32642         1.24283
H          9.52612        19.98340        -2.38360
H         12.21665         0.36964         1.98927
H         11.75233        20.01786        -1.44648
H         14.53356         1.26066         3.79570
H         13.99535        20.11111        -0.51039
H         17.03627         0.38342         2.38435
H         16.02407        19.80134         1.74767
H         19.49671         0.35896         2.02133
H         18.70042        20.14057         0.46481
H         21.92184         0.32384         1.68135
H         21.15090        20.07291         0.51765
H         24.32610         0.28311         1.18551
H         23.59886        20.03568         0.62750
H         26.48120         0.28961         0.07804
H         26.02158        19.97244         0.61588
H         29.07839         0.51222        -0.83272
H         28.42216        20.18062         1.44995
H         31.04140         0.59609        -1.62071
H         30.81497        20.20768         2.64525
H         33.62865         0.55362        -2.61571
H         33.68586        20.13032         2.20382
H         36.08382         0.49722        -2.76579
H         35.85486        20.11695         1.43369
H         38.49944         0.54142        -3.21346
H         38.32050        20.07021         1.10357
H         40.54587         1.74514        -3.84798
H         41.75859         4.01650        -4.16516
H         41.66478         6.46717        -4.28579
H         41.13478         8.33283        -5.28888
H         40.77367        10.79001        -5.56036
H         40.51816        14.17012        -4.94608
H         41.20249        16.07685        -3.48345
H         42.43239        16.78817        -1.58792
H         40.69935        20.10083         0.56113
H         42.66893        19.02085        -0.51841
