         666
 CSIRO Nanostructure Databank - Neutral Graphene Oxide Data Set
C          5.81465        31.77163        -0.12413
C          5.80219        33.13885        -0.05978
C          8.30361        27.45686        -0.21570
C          8.28331        28.88842        -0.24077
C          7.06207        29.62097        -0.20941
C          8.28063        31.75527        -0.20835
C          7.04303        31.01821        -0.18646
C          8.24949        33.15493        -0.10857
C          7.02457        33.90329        -0.03339
C          8.22386        36.08535         0.13200
C          7.02875        35.31220        -0.01870
C          8.28622        37.46857         0.24861
C         10.76260        23.06713        -0.44388
C         10.72418        24.56108        -0.67935
C          9.44597        25.21784        -0.11695
C         10.74061        27.43492        -0.24969
C          9.48412        26.73714        -0.20373
C         10.74583        28.86259        -0.30621
C          9.51799        29.59342        -0.27930
C         10.76612        31.70797        -0.26363
C          9.53219        31.03067        -0.27488
C         10.80818        33.17823        -0.25114
C          9.49768        33.91862        -0.16748
C         10.76021        36.01749         0.64256
C          9.46720        35.31145         0.36688
C         10.77207        37.48201         0.46596
C          9.53679        38.18814         0.37578
C         10.79208        40.32490         0.37294
C          9.57103        39.60309         0.35979
C         10.82992        41.75684         0.46572
C         13.23851        18.80273         0.05850
C         13.13763        20.22196         0.05723
C         11.96042        20.93132        -0.15494
C         13.21948        23.09410        -0.24931
C         11.93250        22.37709        -0.22836
C         13.24687        24.53058        -0.40790
C         11.95747        25.23578        -0.05735
C         13.18787        27.40314        -0.42380
C         11.97342        26.72343        -0.29386
C         13.18951        28.81579        -0.43426
C         11.99212        29.55522        -0.35465
C         13.21833        31.71837        -0.20135
C         12.00712        31.00272        -0.28571
C         13.22564        33.11810         0.12833
C         12.05351        33.83679         0.16822
C         13.27790        36.01890         0.19303
C         12.08189        35.25289         0.71151
C         13.22356        37.44104         0.12141
C         12.00606        38.16780         0.30760
C         13.26340        40.32313         0.23635
C         12.02039        39.60215         0.27764
C         13.27024        41.73629         0.40726
C         12.03402        42.45858         0.52561
C         13.26239        44.57673         0.93531
C         12.09111        43.90145         0.70387
C         13.19371        46.09131         1.22459
C         15.84478        14.59658         0.20461
C         15.73507        16.00257         0.40186
C         14.53520        16.69578         0.17356
C         15.68787        18.83750         0.50515
C         14.45673        18.11389         0.25065
C         15.65867        20.31417         0.56864
C         14.36998        21.00628         0.30868
C         15.69970        23.01923        -0.59374
C         14.40374        22.40840        -0.13128
C         15.70975        24.51793        -0.54572
C         14.45652        25.20459        -0.54245
C         15.75237        27.35426        -0.50610
C         14.45104        26.67996        -0.85383
C         15.74753        28.79466        -0.07887
C         14.48136        29.51466        -0.53051
C         15.78484        31.64400         0.07865
C         14.48936        31.00072        -0.39663
C         15.68777        33.12758        -0.29761
C         14.53057        33.82791         0.45385
C         15.74780        36.01260         0.09015
C         14.46275        35.30304         0.10196
C         15.75865        37.45531        -0.26847
C         14.44399        38.19653        -0.20542
C         15.74018        40.32255         0.11980
C         14.49194        39.64068         0.05819
C         15.73113        41.73137         0.35695
C         14.51567        42.41840         0.49400
C         15.64619        44.24887         1.57883
C         14.51140        43.81319         0.94709
C         15.68765        46.45786         1.50975
C         14.43851        46.94081         0.96035
C         15.68699        48.90625         0.17010
C         14.46887        48.10575         0.23985
C         15.70990        50.17470        -0.32684
C         18.46873        10.43811         0.18130
C         18.40767        11.83651         0.48017
C         17.18555        12.53543         0.25635
C         18.05225        14.60988         1.36812
C         17.02075        13.89763         0.52214
C         18.13241        16.08802         1.03972
C         16.93784        16.74829         0.74195
C         18.09962        18.96522         1.17436
C         16.88183        18.18498         0.72039
C         18.13205        20.38275         0.65607
C         16.93638        21.05067         0.37679
C         18.18199        23.09015        -0.17298
C         16.95221        22.39218        -0.04533
C         18.19363        24.51022        -0.48886
C         16.94245        25.19768        -0.59759
C         18.20641        27.34605        -0.67381
C         16.94668        26.65392        -0.58778
C         18.14327        28.78793        -0.98264
C         16.96971        29.55970        -0.54994
C         18.19700        31.68353        -0.82763
C         16.98978        30.92938        -0.51825
C         18.14790        33.14608        -0.70275
C         17.03351        33.80928        -0.26159
C         18.25935        36.04560        -0.35724
C         17.05360        35.26275        -0.02309
C         18.22689        37.46292        -0.16453
C         17.02551        38.19866        -0.08234
C         18.26548        40.37932        -0.11710
C         16.98441        39.60016         0.04614
C         18.26580        41.73374         0.53415
C         17.01085        42.55056         0.40271
C         18.19617        44.53812         1.40235
C         16.98597        43.57818         1.54472
C         18.16461        46.05432         1.23450
C         16.91841        46.86769         1.07040
C         18.21445        48.87712         0.10198
C         16.96793        48.35836         0.78718
C         18.19828        50.14767        -0.37588
C         16.95772        51.01529        -0.17460
C         18.23490        53.02476        -0.95425
C         17.01987        52.32332        -0.91934
C         18.30147        54.45303        -1.19430
C         20.98969         6.25404        -0.26419
C         20.92994         7.61943         0.10986
C         19.72462         8.33399         0.02553
C         20.95324        10.50545         0.33418
C         19.66156         9.73119         0.24506
C         20.84327        11.86558         1.01179
C         19.55281        12.50592         0.99733
C         20.69287        14.71778         1.48022
C         19.41193        13.90302         1.44507
C         20.62355        16.12306         1.04666
C         19.37677        16.81148         1.01011
C         20.56936        18.95039         0.69841
C         19.37256        18.22366         0.87288
C         20.59458        20.33989         0.65615
C         19.36509        21.06682         0.50755
C         20.70339        23.03438        -0.33504
C         19.39270        22.41423         0.08681
C         20.67120        24.54360        -0.35255
C         19.43175        25.22031        -0.51222
C         20.68820        27.36533        -0.82040
C         19.43506        26.66440        -0.68843
C         20.71754        28.80605        -1.01805
C         19.43721        29.54426        -1.20793
C         20.65877        31.72091        -1.34371
C         19.38760        31.01551        -1.07901
C         20.65052        33.21994        -1.28813
C         19.35965        33.93322        -1.02808
C         20.64498        36.10651        -1.09418
C         19.41389        35.37265        -0.71736
C         20.66498        37.59118        -0.79357
C         19.55090        38.10334         0.10308
C         20.70548        40.22959         0.43011
C         19.52409        39.60040         0.15815
C         20.69145        41.57060         1.12979
C         19.41547        42.34553         0.93044
C         20.67026        44.44334         0.91558
C         19.46669        43.79388         1.10642
C         20.66993        45.87635         0.53191
C         19.38769        46.65319         0.57016
C         20.72455        48.56267        -0.43571
C         19.51824        48.17418         0.47065
C         20.73873        50.08137        -0.68962
C         19.44659        50.84122        -0.77122
C         20.73192        53.00820        -0.92256
C         19.45501        52.31419        -0.76464
C         20.76022        54.48601        -0.91928
C         19.48943        55.17844        -1.14246
C         20.68363        57.33125        -0.91436
C         19.49700        56.60685        -1.07574
C         20.65571        58.71560        -0.64817
C         23.47309         3.49846        -0.74010
C         22.24955         4.19503        -0.70657
C         23.36455         6.06158         0.53566
C         22.16917         5.50180        -0.19957
C         23.39079         7.56758         0.58526
C         22.14710         8.30676         0.54817
C         23.30805        10.35767         1.28619
C         22.10532         9.66644         0.81415
C         23.38152        11.88559         1.37935
C         22.01276        12.54414         1.30665
C         22.81822        14.59739         0.18705
C         22.05756        14.04350         1.41696
C         23.00192        16.07255         0.46350
C         21.83518        16.77974         0.69127
C         23.09393        18.95597         0.41315
C         21.79219        18.22438         0.23152
C         23.14691        20.31250         0.67534
C         21.86330        21.08400         0.97857
C         23.09112        23.17666         0.40578
C         21.92001        22.47482         0.37383
C         23.12968        24.57339        -0.01967
C         21.89841        25.24685        -0.34386
C         23.16897        27.35074        -0.66756
C         21.91726        26.66572        -0.62547
C         23.21001        28.74746        -1.23354
C         21.91350        29.49134        -1.03047
C         23.22152        31.67813        -1.04407
C         21.95301        30.95285        -1.27714
C         23.21136        33.11571        -0.80740
C         21.90472        33.94990        -0.92667
C         23.20474        36.10497        -1.15716
C         21.91948        35.38863        -1.12618
C         23.25715        37.58239        -0.83997
C         21.95944        38.33411        -0.63240
C         23.19255        40.17265         0.47253
C         21.97729        39.56395         0.19213
C         23.18451        41.57098         0.97184
C         21.93064        42.35271         0.82958
C         23.21467        44.43989         0.46217
C         21.92320        43.71064         0.77777
C         23.14281        45.91863         0.75908
C         21.96930        46.61054         0.53486
C         23.17572        48.72677         0.17672
C         21.99424        48.02452         0.20888
C         23.26290        50.06679        -0.52968
C         21.96174        50.84119        -0.21534
C         23.25790        53.00252        -0.39040
C         22.02451        52.26141        -0.73578
C         23.12065        54.47177        -0.08894
C         21.93554        55.15487        -0.74417
C         23.22888        57.34393        -0.65282
C         22.00080        56.60311        -1.17096
C         23.13023        58.78495        -0.28370
C         21.80799        59.46668        -0.31895
C         23.01786        61.52715         0.24878
C         21.79955        60.83318        -0.05337
C         24.66569         4.11011        -0.37302
C         25.87037         6.13925         0.30556
C         24.68492         5.44855         0.11210
C         25.87709         7.53865         0.62781
C         24.59879         8.22340         0.70782
C         25.83563        10.43106         0.84115
C         24.61399         9.63913         1.09782
C         25.78222        11.77414         0.45001
C         24.41155        12.45459         0.35484
C         25.24238        14.77143        -0.48162
C         24.12046        13.87326        -0.12768
C         25.48172        16.00457         0.02378
C         24.32974        16.75871         0.65441
C         25.63754        18.90466         0.18698
C         24.31784        18.17727         0.01867
C         25.62438        20.37423         0.38623
C         24.38216        21.03329         0.67281
C         25.61442        23.27656         0.98675
C         24.29207        22.50650         1.07466
C         25.51097        24.72971         0.65358
C         24.32978        25.30932         0.06590
C         25.60622        27.46150        -0.23552
C         24.36377        26.71374        -0.28595
C         25.63906        28.86353        -0.56536
C         24.44822        29.54319        -0.88177
C         25.68276        31.68991        -0.76829
C         24.44017        30.96935        -0.94435
C         25.68052        33.13663        -0.80496
C         24.48654        33.83294        -0.86881
C         25.73468        36.00025        -0.68618
C         24.48039        35.29921        -1.02750
C         25.69635        37.40375        -0.21978
C         24.45521        38.17171        -0.22263
C         25.71061        40.21867         0.38655
C         24.45561        39.49254         0.24051
C         25.76599        41.51552         1.17372
C         24.45597        42.30744         1.21573
C         25.64050        44.49456         1.13342
C         24.46087        43.78130         1.02512
C         25.68319        45.93062         1.02389
C         24.38948        46.63419         1.02923
C         25.69475        48.79005         0.46232
C         24.39459        48.15482         0.74438
C         25.67512        50.21312         0.15274
C         24.49527        50.86950        -0.14918
C         25.66551        53.07526         0.10263
C         24.44029        52.32260        -0.15513
C         25.64926        54.49251         0.07675
C         24.42887        55.21530        -0.14935
C         25.62502        57.35619         0.11067
C         24.42501        56.59545        -0.20098
C         25.53520        58.72781         0.37645
C         24.19740        59.37110         0.61921
C         24.18496        60.87486         0.51632
C         27.05154         8.25841         0.82094
C         28.28412        10.40443         0.86678
C         27.07567         9.69813         0.86886
C         28.28890        11.79647         0.59530
C         27.04690        12.41136         0.20565
C         28.26003        14.52838        -0.19762
C         27.18182        13.68871        -0.39457
C         28.09169        15.99355        -0.46587
C         26.85429        16.67324         0.17197
C         28.02831        18.94623        -0.45612
C         26.79386        18.19403         0.00299
C         28.14811        20.33754         0.18515
C         26.83767        21.07409         0.37454
C         28.24059        23.18633         0.54539
C         26.92954        22.49801         0.78317
C         28.44210        24.52517         0.96956
C         26.56045        25.58836         0.92356
C         28.06792        27.51403         0.25151
C         26.77174        26.87416         0.31835
C         28.11098        28.85566        -0.18263
C         26.88316        29.57463        -0.46026
C         28.18508        31.73508        -0.41067
C         26.88724        30.98477        -0.60814
C         28.14249        33.19043        -0.83603
C         26.94905        33.86695        -0.83401
C         28.18714        36.09006        -0.88607
C         26.92037        35.32148        -0.75627
C         28.18659        37.58017        -0.81867
C         26.98054        38.22224        -0.21833
C         28.14733        40.48867        -0.31406
C         26.89725        39.67204        -0.04848
C         28.14375        41.80573         0.42884
C         26.97462        42.36392         0.87635
C         28.19850        44.56206         1.28231
C         26.91953        43.76598         1.34091
C         28.15933        46.01473         1.05063
C         26.89183        46.66979         0.94785
C         28.16558        48.76835         0.24753
C         26.87045        48.09065         0.63750
C         28.12600        50.26465         0.44168
C         26.91887        50.95275         0.30275
C         28.12300        53.11134         0.42232
C         26.89052        52.38263         0.28253
C         28.09542        54.52103         0.39203
C         26.88180        55.23031         0.22191
C         26.84704        56.64321         0.24528
C         29.48975        12.55768         0.54867
C         30.68173        14.71575         0.14915
C         29.49073        13.92995         0.22590
C         30.65471        16.06156        -0.22756
C         29.37105        16.77137        -0.47765
C         30.54839        18.94567        -0.39307
C         29.35891        18.23722        -0.33105
C         30.57716        20.39288        -0.42321
C         29.25922        21.14794        -0.53950
C         30.59622        23.23967        -0.09620
C         29.35929        22.54503         0.00842
C         30.63144        24.65169         0.06785
C         29.46989        25.33471         0.50960
C         30.63081        27.49431         0.10674
C         29.39694        26.84520         0.71544
C         30.57534        28.86471        -0.26889
C         29.37129        29.54234        -0.38448
C         30.66269        31.69071        -0.67082
C         29.36986        30.94680        -0.97983
C         30.70689        33.16449        -0.81276
C         29.42447        33.92687        -0.98040
C         30.66405        36.07206        -0.54564
C         29.47317        35.38771        -0.77977
C         30.69478        37.51174        -0.37557
C         29.50868        38.34785        -0.80903
C         30.61696        40.35987         0.06660
C         29.43225        39.70200        -0.13937
C         30.64751        41.87443        -0.00683
C         29.38890        42.52914         0.50015
C         30.66675        44.58262         0.95706
C         29.42509        43.85161         0.88240
C         30.65163        45.98358         1.10430
C         29.40138        46.70713         0.98701
C         30.60671        48.86640         0.88578
C         29.41090        48.11435         0.79751
C         30.58213        50.25239         0.74325
C         29.35761        50.98488         0.57457
C         29.33762        52.38808         0.57433
C         31.84028        16.82226        -0.26877
C         33.02645        18.94336        -0.48231
C         31.82480        18.22792        -0.40061
C         33.04928        20.36164        -0.48500
C         31.78347        21.07839        -0.41860
C         33.04868        23.20911        -0.26694
C         31.82436        22.52508        -0.31687
C         33.07719        24.63719        -0.14650
C         31.86538        25.35845        -0.04865
C         33.09881        27.48251        -0.28072
C         31.83645        26.78894        -0.04708
C         33.10530        28.83868        -0.46834
C         31.81904        29.54040        -0.79365
C         33.04473        31.71314        -0.03266
C         31.81530        31.01605        -0.47276
C         33.08956        33.19636        -0.07938
C         31.91755        33.91011        -0.41295
C         33.12662        36.01829        -0.15654
C         31.91091        35.32727        -0.38024
C         33.13113        37.46674         0.01164
C         31.86344        38.18877        -0.03219
C         33.06660        40.33032         0.36476
C         31.86942        39.63058         0.12271
C         33.09623        41.73437         0.56536
C         31.89871        42.49547         0.56200
C         33.11855        44.49474         1.50768
C         31.88787        43.83976         0.94075
C         33.08741        45.99278         1.32122
C         31.92034        46.68830         1.18765
C         31.92082        48.20633         1.24326
C         34.25674        21.06193        -0.52995
C         35.51968        23.14884        -0.27303
C         34.31283        22.48502        -0.37856
C         35.58909        24.57861         0.18219
C         34.32521        25.34070        -0.12348
C         35.60557        27.42847        -0.35442
C         34.35061        26.72952        -0.24258
C         35.64049        28.83186        -0.40762
C         34.37769        29.60425        -0.70248
C         35.58942        31.73601        -0.04629
C         34.34881        30.97248        -0.05182
C         35.54541        33.11928         0.53735
C         34.30323        33.87721         0.11926
C         35.60304        35.98448         0.10244
C         34.33934        35.28984         0.01949
C         35.61596        37.46228        -0.19435
C         34.31790        38.14319         0.16510
C         35.57421        40.32588        -0.00692
C         34.35704        39.58342         0.59362
C         35.57119        41.75433         0.46013
C         34.37775        42.43837         0.73593
C         34.37490        43.80639         1.06235
C         36.83646        25.32014        -0.22573
C         38.14213        27.40902        -0.70193
C         36.85003        26.67239        -0.37575
C         38.10667        28.88412        -0.34852
C         36.86220        29.54032        -0.27797
C         38.08746        31.73605         0.00349
C         36.83496        30.95170         0.25552
C         38.02820        33.15535         0.01931
C         36.83240        33.85286         0.22634
C         38.07646        36.02555         0.24659
C         36.80645        35.28875         0.17075
C         38.03460        37.43269         0.48049
C         36.85025        38.18735         0.29940
C         36.82380        39.56907         0.37141
C         39.29834        29.61919        -0.21822
C         40.54368        31.80076        -0.06180
C         39.30407        31.03439        -0.10242
C         40.53865        33.14870        -0.12127
C         39.27192        33.92146        -0.38755
C         39.26947        35.33074         0.13579
O         27.52492        25.14186         1.83104
O         21.32610        31.28179        -2.58932
O         26.42857        22.86188         2.13330
O         30.22250        33.52753        -2.16453
O         23.97810         9.75915         2.44944
O         26.19534        14.13696        -1.26948
O         19.77798        45.99484        -0.65835
O         16.53065        35.68730         1.29470
O         19.89747        33.74177        -2.41043
O         23.62732        58.41764        -1.60546
O         28.00553        36.95214        -2.12558
O         21.30194        10.90107        -0.99189
O         22.69846        38.44976        -1.88114
O         14.63190        30.35499        -1.71956
O         27.63317        44.10338         2.57320
O         15.58520        45.37346         2.39560
O         10.19691        33.82401        -1.45603
O         20.18080        50.35618        -1.99568
O         23.65398        41.80992         2.38007
O         28.60164        16.42409        -1.75766
O         33.56818        31.09959         1.22052
O         20.03830        14.30164         2.72316
O         26.51671        37.53587         0.99915
O          9.90920        35.51124         1.75791
O         23.99026        35.74169        -2.36235
O         21.55188        52.47097        -2.08565
O         24.26500        47.63423         2.09802
O         18.38850        45.44471         2.54797
O         20.35984        37.18056        -2.12554
O         23.92602        12.70800        -0.98697
O         15.06100        37.77447        -1.50123
O         18.63073        29.07002        -2.34195
O         14.87775        20.84380         1.71029
O         22.40218        33.51034         0.40105
O         23.28835        28.55983        -2.70078
H         22.98311        29.39128        -3.12596
O         28.96697        21.34898        -1.94132
H         28.66397        20.48488        -2.31775
O         35.69055        37.56609        -1.67817
H         34.89987        37.11156        -2.04271
O         28.64331        20.08845         1.53282
H         28.49381        20.89352         2.07250
O         22.80861        14.49833         2.56947
H         22.43746        14.04939         3.35940
O         22.75676        54.49729         1.36072
H         23.59082        54.46768         1.87740
O         15.92016        31.46284         1.51052
H         15.48760        32.22633         1.97791
O         17.01568        51.44641         1.23005
H         16.92052        50.62931         1.79143
O         15.73340        28.76332         1.37905
H         15.84565        29.69796         1.69773
O         22.12915        56.55361        -2.62315
H         22.57477        57.39177        -2.88931
O         21.79197        50.89587         1.22896
H         22.52524        51.42404         1.61272
O         34.59641        39.58382         2.03941
H         33.87295        39.07722         2.46515
O         31.70647        29.47632        -2.27091
H         32.57660        29.79607        -2.61993
O         18.32039        40.70446        -1.56664
H         18.25479        39.86062        -2.06547
O         23.95241        12.23297         2.66385
H         24.19491        11.37725         3.10226
O         19.97894        37.64935         1.43592
H         19.33940        37.99373         2.09539
O         23.80261        59.02091         1.99566
H         24.41377        59.48216         2.60766
O         29.47885        27.09832         2.14988
H         28.75257        26.57992         2.56723
O         32.93540        48.76760         0.40842
H         33.77664        48.29713         0.57637
O         17.08979        43.30965        -0.83491
H         17.37746        42.67986        -1.53514
O         39.20314        34.05717        -1.85916
H         38.41266        34.60170        -2.06329
O         17.04754        48.93040         2.15226
H         17.96267        48.74151         2.47884
O         17.48846        14.54573         2.71546
H         18.22616        14.75231         3.33459
O         21.55867        18.09744        -1.21392
H         22.38241        17.70941        -1.60348
O         23.98196        22.54444         2.50959
H         24.83620        22.38515         2.97829
O         14.73648        33.75500         1.88808
H         13.98366        34.25317         2.30400
O         24.50963        16.90233         2.09185
H         24.07154        16.12810         2.52287
O         15.28348        33.20351        -1.68815
H         15.81189        32.56514        -2.21376
O         24.22583        17.90272        -1.42462
H         24.42358        18.73633        -1.90270
O         26.04654        41.05237         2.52936
H         25.18744        41.05273         3.01650
O         35.44254        33.00885         2.02548
H         34.62413        32.47224         2.18126
O         28.43823        31.79533         1.03047
H         27.63543        32.14606         1.47071
O         35.45770        40.34364        -1.45572
H         35.60008        39.41654        -1.77700
O         14.39901        26.72904        -2.33433
H         14.45379        27.67269        -2.60252
O         20.66738        47.95171        -1.73239
H         20.14203        48.54862        -2.31714
O         29.20486        30.82135        -2.40222
H         30.00779        30.35496        -2.74017
O         23.37839        44.35344        -0.99853
H         22.59222        44.77039        -1.41422
O         12.37904        35.10569         2.14848
H         11.50375        35.03475         2.60279
O         35.65151        24.51179         1.66663
H         35.60504        25.43418         1.99854
O          8.31389        24.70669        -0.81899
H          8.53959        24.74106        -1.77393
O         20.85907        22.62578        -1.74808
H         21.57183        23.17551        -2.13837
O         23.33704        49.83628        -1.95025
H         22.54164        49.33092        -2.22872
O         27.16298        16.50335         1.59502
H         26.36384        16.79906         2.10208
O         30.68358        42.15534        -1.44700
H         29.82824        41.82173        -1.81786
O         18.00562        19.04815         2.63685
H         17.18080        19.53591         2.85024
O         21.95099        14.45659        -0.95108
H         22.11714        13.56287        -1.33700
O         36.79764        30.73259         1.72343
H         36.49537        31.59270         2.12563
O         17.16726        42.87777         2.79404
H         17.34651        43.55490         3.48215
O         10.70420        24.79684        -2.10892
H         11.50220        24.38369        -2.50041
O         34.43086        29.89764        -2.15666
H         34.75649        29.08987        -2.60919
O         19.82557        48.64390         1.81560
H         20.35456        49.47563         1.75865
O         28.12680        40.85540        -1.74285
H         28.55785        40.10854        -2.23725
O         27.78230        19.04430        -1.90329
H         27.94591        18.13059        -2.25733
O         29.77643        38.69854        -2.21876
H         29.43523        37.93776        -2.75341
O         11.79366        25.05793         1.38535
H         12.60564        25.38441         1.82728
O         21.71953        21.21331         2.42388
H         22.50589        21.72078         2.75644
O         23.17468         5.63248         1.93343
H         23.87286         6.06681         2.46862
O         15.73791        22.68218        -2.04896
H         15.26837        23.39759        -2.53029
O         20.74491        41.23928         2.55831
H         21.67648        41.32511         2.86152
O         39.26509        26.76481        -0.09937
H         39.16794        26.82497         0.87288
O         12.07258        46.64780         0.54318
H         12.16713        46.46539        -0.41385
O         33.06249        44.28940         2.98328
H         33.04039        43.32056         3.13843
O         28.26796        48.56909        -1.21553
H         29.09478        49.00649        -1.51246
H          4.86469        31.21670        -0.12792
H          4.84415        33.67745        -0.01529
H          7.34780        26.91210        -0.19952
H          6.11093        29.06787        -0.18376
H          6.06583        35.84173        -0.08217
H          7.35902        38.05831         0.18212
H          9.81316        22.51503        -0.52661
H          9.33672        24.92797         0.96048
H          8.62184        40.15973         0.34528
H          9.87824        42.30403         0.54080
H         12.32654        18.21237        -0.12052
H         11.01497        20.38628        -0.30010
H         11.14254        44.46029         0.69853
H         12.98275        46.19518         2.32660
H         15.00500        14.05542        -0.25809
H         13.62571        16.12592        -0.07038
H         13.55878        48.48690        -0.24733
H         14.78797        50.63689        -0.71348
H         17.53224         9.91769        -0.07426
H         16.35706        11.98312        -0.21366
H         16.08073        52.85453        -1.13638
H         17.35217        54.99566        -1.31963
H         20.08449         5.78605        -0.68310
H         18.79765         7.78936        -0.21703
H         18.53280        57.13736        -1.02708
H         19.67903        59.22591        -0.63619
H         23.49349         2.47599        -1.14303
H         21.35179         3.72976        -1.14032
H         22.99312        62.62704         0.27091
H         20.86027        61.40064        -0.11998
H         25.62045         3.58537        -0.52770
H         26.83162         5.63313         0.12477
H         26.44682        59.27847         0.65830
H         25.10100        61.43827         0.75022
H         28.01584         7.72848         0.79907
H         29.23627         9.87014         0.99805
H         29.03517        55.08255         0.50006
H         27.77554        57.20009         0.44024
H         30.44193        12.05875         0.78028
H         31.64827        14.24939         0.39139
H         31.52438        50.81313         0.82199
H         30.28146        52.94287         0.68189
H         32.80702        16.31007        -0.14952
H         33.97873        18.39272        -0.51114
H         34.04197        46.53391         1.42933
H         32.14769        48.48738         2.32256
H         35.20087        20.49996        -0.59475
H         36.45905        22.57917        -0.34424
H         36.52651        42.30149         0.50836
H         35.33435        44.33914         1.14936
H         37.78732        24.76543        -0.25371
H         38.29825        27.33441        -1.81724
H         38.97348        37.95986         0.70888
H         37.73426        40.11954         0.65673
H         40.25721        29.08317        -0.28217
H         41.49018        31.25018         0.04977
H         41.48423        33.71046        -0.08441
H         40.22453        35.87460         0.20131
