         252
 CSIRO Nanostructure Databank - Neutral Graphene Oxide Data Set
C         30.33505        31.86328         0.06085
C         30.39324        33.06167         0.34500
C         30.45342        36.11237         1.27602
C         30.43347        37.35546         1.13051
C         30.51612        40.47136         0.68906
C         30.37784        41.68206         0.45928
C         32.70794        29.02176        -0.47585
C         31.62315        29.59882        -0.33757
C         32.67654        31.50376         0.84588
C         31.31731        30.82627         0.37489
C         32.73885        32.98530         0.88328
C         31.43807        33.74304         1.22318
C         32.70225        35.90911         0.71721
C         31.53462        35.22372         1.06663
C         32.73303        37.34057         0.57216
C         31.55109        38.14469         0.74797
C         32.78291        40.19016         0.12451
C         31.58800        39.53628         0.53907
C         32.80955        41.64787        -0.11233
C         31.61629        42.55237         0.46001
C         32.64845        44.24298        -0.90424
C         31.63360        43.79978        -0.37142
C         35.09807        27.36290         0.22048
C         35.22199        28.70016         0.00500
C         34.08031        29.59255        -0.42340
C         35.21092        31.57570         0.62563
C         33.97938        30.70919         0.73143
C         35.19644        32.94066         0.68059
C         33.92034        33.66176         0.69768
C         35.19445        35.89150         0.53754
C         33.91914        35.12347         0.26648
C         35.20807        37.25984         0.31813
C         33.94590        38.00921         0.21451
C         35.18975        39.95482        -0.70926
C         33.93357        39.38520        -0.08319
C         35.17059        41.48427        -0.87923
C         33.88402        42.21700        -0.73837
C         35.15494        44.40025        -0.80612
C         33.94073        43.65881        -1.32216
C         35.28024        45.79575        -0.73424
C         37.70299        27.43728        -0.91199
C         34.95554        26.12819         0.46952
C         37.64059        28.84395        -0.36402
C         36.49832        29.41456         0.11024
C         37.77927        31.55175         0.81089
C         36.48341        30.80680         0.67865
C         37.78466        33.03671         0.78067
C         36.44735        33.68077         1.15369
C         37.74554        35.93133         0.69938
C         36.42653        35.19477         0.93225
C         37.67060        37.32420         0.23109
C         36.46428        37.98382         0.21379
C         37.66813        40.23087        -0.12044
C         36.37500        39.49611         0.15768
C         37.66702        41.58702        -0.21447
C         36.43182        42.29060        -0.62642
C         37.62911        44.50582        -0.32534
C         36.38654        43.77088        -0.51979
C         37.61817        45.95877        -0.45147
C         36.33296        46.48139        -0.59372
C         40.12094        24.64785        -0.79903
C         39.01985        25.21252        -0.64543
C         40.15940        27.31515        -0.50313
C         38.78407        26.62483        -0.17295
C         40.17534        28.80269        -0.64111
C         38.90450        29.66352        -0.57829
C         40.31377        31.54244         0.50732
C         39.02688        30.81154         0.41386
C         40.30737        33.00194         0.98684
C         38.98595        33.74224         0.68829
C         40.21519        35.90928         0.33296
C         39.01173        35.17264         0.55664
C         40.21429        37.29257         0.10641
C         38.94099        38.00078        -0.12395
C         40.20461        40.29029        -0.16357
C         38.94921        39.50424        -0.24468
C         40.17791        41.63544         0.00075
C         38.86772        42.36445         0.28291
C         40.08069        44.60873         0.36356
C         38.85076        43.83201        -0.07223
C         40.15593        46.00889        -0.22520
C         38.86675        46.71636        -0.57749
C         40.06004        48.81416        -0.05356
C         39.05075        48.14593        -0.30940
C         42.74000        24.62475        -0.78484
C         41.45066        25.09257        -0.69079
C         42.75046        27.36795        -0.46575
C         41.46227        26.58755        -0.13514
C         42.74822        28.74171        -0.53107
C         41.49119        29.53273        -0.58264
C         42.81763        31.61459         0.15476
C         41.52178        30.97800        -0.18289
C         42.75757        33.05158         0.38455
C         41.56224        33.71544         0.52895
C         42.78842        35.92432         0.17316
C         41.50087        35.16456         0.23165
C         42.76528        37.41191         0.23880
C         41.45894        38.11983         0.11074
C         42.72998        40.31363        -0.04613
C         41.48349        39.54497        -0.49479
C         42.72659        41.66242         0.11835
C         41.44950        42.40940        -0.07208
C         42.67895        44.67278         0.27370
C         41.40848        43.89655         0.06372
C         42.68129        46.02964         0.11717
C         41.38071        46.77028         0.22504
C         42.68533        48.80860         0.36956
C         41.32746        48.28793         0.47538
C         43.84756        25.22114        -0.57747
C         45.25551        27.29437        -0.55439
C         44.03297        26.63333        -0.55071
C         45.33444        28.78958        -0.51369
C         44.01384        29.53572        -0.55524
C         45.27074        31.59403         0.31708
C         43.98816        30.93920        -0.06262
C         45.33440        33.07593         0.14317
C         44.02777        33.80714         0.17408
C         45.33930        35.96256         0.29973
C         44.05293        35.23595         0.66265
C         45.32810        37.31212         0.08527
C         44.05992        38.08217        -0.10521
C         45.26014        40.26752         0.40557
C         44.02675        39.57976        -0.08713
C         45.27707        41.75304         0.43103
C         43.92204        42.38653         0.74456
C         45.25117        44.65653         0.45017
C         43.93545        43.92172         0.57786
C         45.22162        46.09693         0.02881
C         43.94943        46.81523        -0.28275
C         43.75477        48.18564         0.33796
C         47.67650        27.39597        -0.55748
C         46.58220        26.79297        -0.59285
C         47.84537        28.78414        -0.18273
C         46.59511        29.43954        -0.05791
C         47.83206        31.62002         0.46841
C         46.57566        30.84281         0.37917
C         47.83418        33.02401         0.50957
C         46.60748        33.80158         0.38156
C         47.83824        35.93112         0.28912
C         46.59675        35.20032         0.34253
C         47.86250        37.32412         0.19246
C         46.60105        38.08633        -0.18889
C         47.79535        40.26829         0.45630
C         46.52489        39.47988         0.43774
C         47.74899        41.72735         0.21457
C         46.48232        42.45026         0.38891
C         47.75582        44.57074         0.11245
C         46.52703        43.89963         0.31829
C         47.67221        45.98685         0.02415
C         46.50931        46.50069        -0.17734
C         50.37132        29.03549        -0.19711
C         49.05887        29.46316         0.03009
C         50.35258        31.64462         0.50487
C         49.09699        30.84393         0.73411
C         50.32663        33.02015         0.67355
C         49.08262        33.72361         0.64379
C         50.41029        35.92849         0.35238
C         49.09852        35.16754         0.33998
C         50.34378        37.41912         0.26051
C         49.09703        38.04541         0.20585
C         50.25674        40.25411        -0.23385
C         49.08854        39.52681         0.31039
C         50.07677        41.59783        -0.55242
C         48.93670        42.37436        -0.08702
C         50.34762        44.39342        -0.08296
C         49.03647        43.83712         0.38680
C         51.50519        29.57352        -0.21365
C         52.67861        31.89846        -0.19000
C         51.76213        30.91098         0.45141
C         52.66214        33.11712         0.05247
C         51.67234        33.73485         1.06680
C         52.76420        36.11610         0.61206
C         51.58467        35.28612         1.13353
C         52.69453        37.33243         0.35291
C         51.56430        38.18288         0.14142
C         52.59687        40.48141        -0.29152
C         51.53848        39.56037        -0.17890
C         52.87299        41.71943        -0.19171
C         52.00807        42.73059        -0.63655
C         51.51773        43.95553        -0.11093
O         44.81811        29.39443        -1.77425
O         41.45844        43.29282        -1.26887
O         44.58087        44.48962         1.78300
O         31.69156        30.86663         1.75195
O         37.09807        27.05812        -1.88528
O         37.15363        30.91492         1.98116
O         36.00199        41.87623        -2.01629
O         37.13335        35.83864         2.05224
O         39.90318        30.58333         1.55491
O         40.15211        27.91421        -1.81810
O         41.16755        47.36843         1.57695
O         50.98294        42.19145        -1.48168
O         38.89840        38.65072        -1.45333
O         45.74689        39.60647         1.65216
O         45.73365        31.09545         1.60099
O         44.11938        38.84413        -1.36808
O         39.77325        46.18160        -1.60542
O         48.63258        39.96712         1.63980
O         42.14440        37.99867         1.42662
O         51.98737        33.27120         2.30543
O         42.22041        35.42706        -1.05890
O         41.45811        30.61696        -1.58914
O         44.67867        33.54496        -1.09319
O         49.98448        35.31717        -0.87581
O         46.72424        38.33392        -1.61721
H         46.57157        37.49357        -2.09861
O         51.40531        35.62693         2.47829
H         51.74198        34.82335         2.98039
O         43.85804        46.96908        -1.70475
H         44.64692        47.45627        -2.02266
O         34.13802        29.91521         1.91958
H         34.16592        30.50381         2.70283
O         34.41534        30.23245        -1.64515
H         34.48351        29.55909        -2.35428
O         31.11044        33.45221         2.56660
H         31.04107        32.47127         2.65610
O         38.53200        26.68805         1.20615
H         39.26978        26.25885         1.69238
O         52.09769        30.70435         1.79040
H         52.25043        31.63827         2.17815
O         41.52484        39.41290        -1.92682
H         42.43377        39.12288        -2.17999
O         40.38736        32.98717         2.43159
H         39.94307        32.16239         2.74096
O         43.98914        35.16738         2.10700
H         43.91931        36.07537         2.47157
O         33.83426        35.03974        -1.19633
H         32.93105        34.74609        -1.44128
O         36.36922        33.48020         2.59652
H         36.89918        34.20349         3.00923
O         41.42188        26.45827         1.30212
H         42.22390        25.97602         1.59858
O         36.01050        39.90899         1.50999
H         36.74423        39.68506         2.12071
O         31.96464        42.85744         1.78225
H         31.26318        43.41008         2.18333
O         35.29734        39.36834        -2.01309
H         35.87677        39.95089        -2.55513
O         34.03141        43.58068        -2.74121
H         34.83379        43.05029        -2.96093
O         43.70826        42.13647         2.16146
H         44.26639        42.78364         2.65412
O         38.74243        30.28621        -1.87170
H         39.04348        29.64920        -2.55777
O         38.69652        42.32060         1.74856
H         39.14275        43.11283         2.13626
O         39.98583        44.75439         1.81435
H         40.44460        45.57971         2.09768
O         49.14759        43.73918         1.82058
H         48.97395        44.62254         2.20948
O         49.12849        30.49184         2.15916
H         50.07458        30.37048         2.41528
