         630
 CSIRO Nanostructure Databank - Neutral Graphene Oxide Data Set
C         23.21406        27.71228        -3.10889
C         23.19589        29.08901        -2.82302
C         23.12134        31.88621        -1.92219
C         23.08689        33.19921        -1.49081
C         23.04663        35.92219        -0.41531
C         23.02328        37.26299        -0.03068
C         22.99457        40.16646         0.36948
C         22.98942        41.53578         0.62654
C         22.94049        44.40824         1.18592
C         22.93038        45.77694         1.34649
C         25.57142        24.85821        -3.03117
C         24.47100        25.57610        -3.37128
C         25.70552        27.73636        -3.06939
C         24.40113        26.99298        -3.12083
C         25.61982        29.12964        -2.50903
C         24.37474        29.80264        -2.48578
C         25.56157        31.87920        -1.77270
C         24.34319        31.19231        -2.06664
C         25.53138        33.24525        -1.37809
C         24.27736        33.91449        -1.21268
C         25.49644        36.10216        -0.85245
C         24.23706        35.27957        -0.76724
C         25.47430        37.36345        -0.02720
C         24.21529        38.00790         0.17055
C         25.36261        40.07506         1.01499
C         24.15442        39.39775         0.53092
C         25.40434        41.54483         1.04184
C         24.17241        42.24781         0.93376
C         25.39302        44.37472         1.24091
C         24.16040        43.68284         1.11910
C         25.38505        45.79852         1.36176
C         24.14784        46.50001         1.41808
C         25.33562        48.61720         1.54936
C         24.15355        47.91999         1.53045
C         27.92477        23.32726        -1.97335
C         27.93972        24.71536        -2.08821
C         26.63835        25.48483        -2.16778
C         28.01136        27.59834        -2.17251
C         26.83461        26.94472        -2.48033
C         28.04633        29.04486        -2.07755
C         26.82525        29.78212        -2.15460
C         28.03131        31.84509        -1.53553
C         26.81876        31.18066        -1.82786
C         28.00730        33.23963        -1.17277
C         26.76686        33.93137        -1.07665
C         27.95180        35.93692        -0.31424
C         26.75800        35.29753        -0.69954
C         27.93980        37.32533         0.11467
C         26.69257        37.97720         0.30818
C         27.93433        40.10631         0.88973
C         26.69763        39.31645         0.92797
C         27.89358        41.50930         1.10296
C         26.64078        42.22518         1.15727
C         27.86442        44.37892         1.23576
C         26.64411        43.66271         1.21652
C         27.85563        45.82068         1.29560
C         26.61250        46.52753         1.39163
C         27.83416        48.67608         1.45228
C         26.59477        47.94758         1.46588
C         27.86077        50.09515         1.56384
C         30.34090        23.24843        -1.64994
C         29.10099        22.60603        -1.71962
C         30.39537        24.67137        -1.83965
C         29.17786        25.41227        -1.96439
C         30.44423        27.52175        -1.73011
C         29.22260        26.84067        -1.93016
C         30.47149        28.95463        -1.62410
C         29.25512        29.70197        -1.73607
C         30.50447        31.76748        -1.22914
C         29.27314        31.11587        -1.51252
C         30.53322        33.27744        -1.21593
C         29.21483        33.91168        -0.84108
C         30.38215        35.81824         0.31238
C         29.17623        35.21753        -0.35624
C         30.40609        37.32468         0.30613
C         29.16682        38.01482         0.37726
C         30.39776        40.11052         0.87823
C         29.15906        39.42363         0.67920
C         30.37630        41.54104         1.10934
C         29.12555        42.23476         1.14735
C         30.34171        44.36725         1.17136
C         29.11500        43.66158         1.20835
C         30.31332        45.82361         0.98784
C         29.05821        46.55469         1.22040
C         30.31398        48.70700         1.35706
C         29.06800        47.97340         1.32239
C         30.29726        50.12886         1.46968
C         29.04312        50.79531         1.56064
C         32.72319        20.70416        -0.15103
C         31.52107        21.34878        -0.53143
C         32.84452        23.08955        -1.62099
C         31.54527        22.52363        -1.26364
C         32.88838        24.63801        -1.92758
C         31.62937        25.37614        -1.80141
C         32.91884        27.46913        -1.48787
C         31.66782        26.77897        -1.67173
C         32.90483        28.85868        -1.28954
C         31.69531        29.62185        -1.37148
C         32.97228        31.73648        -0.92887
C         31.71295        31.04826        -1.17688
C         32.98262        33.14179        -0.59509
C         31.73152        33.87712        -0.52218
C         32.90251        35.88966         0.28291
C         31.69298        35.17302        -0.05159
C         32.89300        37.26236         0.50598
C         31.62639        37.99681         0.51014
C         32.86981        40.04304         1.19138
C         31.61031        39.38828         0.80767
C         32.85009        41.54334         1.39133
C         31.58246        42.27023         1.22486
C         32.83886        44.41830         1.38069
C         31.58728        43.69200         1.22489
C         32.85483        45.83726         1.41365
C         31.62479        46.58247         1.08462
C         32.77172        48.73587         1.50382
C         31.56318        48.03049         1.34002
C         32.74897        50.15709         1.59244
C         31.53381        50.85939         1.51025
C         32.70516        53.01127         1.26134
C         31.55453        52.29595         1.32455
C         35.18655        19.69091         1.18949
C         35.21411        20.54484        -0.02094
C         33.97051        21.25015        -0.42472
C         35.31477        23.15047        -1.32200
C         34.08344        22.48834        -1.12798
C         35.33908        24.53536        -1.63605
C         34.16140        25.30761        -1.73648
C         35.39678        27.42070        -1.54839
C         34.17630        26.73874        -1.57007
C         35.45708        28.78263        -1.02299
C         34.14018        29.54671        -0.90061
C         35.43735        31.67610        -0.70859
C         34.17409        31.01770        -0.86843
C         35.42963        33.08347        -0.37850
C         34.17413        33.75727        -0.22099
C         35.42918        35.88323         0.31850
C         34.16198        35.08952         0.48639
C         35.39740        37.30174         0.48601
C         34.15526        37.99145         0.64293
C         35.36523        40.13299         0.93820
C         34.15934        39.38302         0.89272
C         35.36564        41.57174         1.17328
C         34.11820        42.28631         1.30551
C         35.32613        44.37172         1.77427
C         34.06923        43.67184         1.45624
C         35.30466        45.88682         1.88266
C         34.03507        46.60324         1.63233
C         35.25619        48.76671         1.63390
C         34.02643        48.01683         1.58991
C         35.28481        50.15780         1.55191
C         34.01620        50.88942         1.74093
C         35.26182        53.05520         1.13339
C         34.00356        52.39989         1.58209
C         35.30866        54.43061         0.99089
C         37.62760        19.22453         0.92849
C         36.29762        19.10110         1.64621
C         37.75098        20.59506         0.26187
C         36.54944        21.08770        -0.45897
C         37.84602        23.21546        -1.01437
C         36.62531        22.36139        -1.31830
C         37.87345        24.54126        -1.39470
C         36.63311        25.21792        -1.83714
C         37.96163        27.53365        -1.92435
C         36.64470        26.74771        -1.92909
C         37.93348        28.89178        -1.24887
C         36.72157        29.55194        -1.05721
C         37.92896        31.68922        -0.84410
C         36.65860        30.96136        -0.83024
C         37.90677        33.15838        -0.47542
C         36.62593        33.78672        -0.15027
C         37.89517        35.91105         0.19742
C         36.63782        35.19377         0.17131
C         37.86968        37.33738         0.34328
C         36.62569        38.03343         0.50142
C         37.83874        40.16227         0.73221
C         36.60262        39.44898         0.71088
C         37.83972        41.61114         0.94618
C         36.57965        42.29431         1.17002
C         37.78107        44.46714         1.42464
C         36.60813        43.71594         1.44778
C         37.78645        45.91141         1.59645
C         36.57559        46.59652         1.72054
C         37.82913        48.82017         1.58515
C         36.53438        48.05270         1.81742
C         37.75541        50.20874         1.13100
C         36.48991        50.89547         1.22283
C         37.56640        52.87319         0.09986
C         36.43257        52.26383         0.89906
C         37.59918        54.38759         0.16325
C         36.50004        55.09112         0.56371
C         39.88970        16.98220         2.92571
C         38.75793        17.58142         2.50282
C         40.11378        19.35875         1.35394
C         38.76836        18.97463         1.92598
C         40.18524        20.60586         0.64544
C         38.94978        21.25552         0.18058
C         40.25077        23.21605        -0.55579
C         39.04027        22.56850        -0.47249
C         40.34615        24.53596        -1.22037
C         39.09928        25.33584        -1.32733
C         40.43452        27.45172        -1.56764
C         39.14976        26.69628        -1.49226
C         40.44211        28.88258        -1.17288
C         39.19904        29.57036        -1.04492
C         40.42149        31.66608        -0.55189
C         39.20024        30.95354        -0.74853
C         40.41861        33.06048        -0.23473
C         39.13330        33.72583         0.19322
C         40.36496        35.92607         0.13461
C         39.13068        35.23153         0.11850
C         40.36071        37.35534         0.24320
C         39.09765        38.05408         0.37466
C         40.30886        40.19477         0.73454
C         39.04389        39.46312         0.56099
C         40.30821        41.69026         0.51879
C         39.01098        42.33738         0.90916
C         40.33015        44.47624         1.26543
C         39.02221        43.83894         0.84931
C         40.31137        45.90128         1.73132
C         39.02891        46.64800         1.47719
C         40.26406        48.79327         1.17659
C         39.06017        48.04142         1.36267
C         40.22714        50.17935         0.91115
C         38.95258        50.85809         0.77665
C         40.10426        52.87573         0.01915
C         38.92258        52.23070         0.35343
C         40.05674        54.25066        -0.54218
C         38.77622        55.05317        -0.44620
C         40.05574        57.11357        -0.85544
C         38.89247        56.51980        -0.49545
C         42.35945        17.04348         3.21393
C         41.19383        17.56945         2.67120
C         42.59047        19.12022         1.31402
C         41.26223        18.69729         1.77743
C         42.67538        20.50738         0.63244
C         41.41603        21.22774         0.46102
C         42.80719        23.27665        -0.12072
C         41.46386        22.63882         0.05765
C         42.93059        24.48427        -0.98896
C         41.67699        25.20170        -1.41072
C         42.99241        27.42239        -1.20761
C         41.73989        26.70053        -1.56400
C         42.94705        28.86922        -1.06140
C         41.67367        29.56225        -0.98283
C         42.88654        31.67536        -0.44544
C         41.66615        30.96478        -0.66917
C         42.87316        33.08279        -0.19397
C         41.62307        33.77825        -0.10997
C         42.84221        35.91352         0.18815
C         41.61197        35.21275         0.08373
C         42.84649        37.35099         0.26674
C         41.60191        38.03443         0.26174
C         42.84690        40.28614         0.32702
C         41.60247        39.47954         0.53510
C         42.81252        41.68302         0.84120
C         41.49469        42.29807         1.29772
C         42.80362        44.49911         1.35029
C         41.52222        43.81092         1.21788
C         42.78036        45.95647         1.34523
C         41.56879        46.63830         1.36331
C         42.82258        48.88617         1.46526
C         41.54929        48.10595         1.44466
C         42.75976        50.32391         1.01929
C         41.44290        50.92769         0.70547
C         42.59423        52.90184        -0.28550
C         41.38856        52.23514         0.18880
C         42.53394        54.26328        -0.76895
C         41.31330        54.98342        -0.74977
C         42.47585        57.01574        -1.42101
C         41.27786        56.36039        -1.04248
C         43.63081        17.60389         2.93364
C         45.07315        19.22076         1.68662
C         43.78887        18.61505         1.99710
C         45.15244        20.51892         1.08799
C         43.97415        21.22121         0.66228
C         45.30951        23.22373         0.14246
C         44.05341        22.53251         0.19864
C         45.39023        24.59106        -0.27330
C         44.21342        25.23579        -0.91295
C         45.46003        27.39243        -1.01654
C         44.16746        26.70908        -1.04302
C         45.44440        28.92699        -0.95410
C         44.13829        29.59086        -0.82623
C         45.35921        31.67270        -0.21409
C         44.13271        30.97701        -0.49010
C         45.33520        33.07407         0.04077
C         44.09670        33.78807         0.02194
C         45.31042        35.91526         0.43436
C         44.08456        35.20463         0.22128
C         45.30291        37.36554         0.49088
C         44.08748        38.05759         0.38840
C         45.34954        40.27598         0.71461
C         44.15651        39.54744         0.11547
C         45.34497        41.64400         1.01436
C         44.04891        42.29356         1.45095
C         45.26794        44.47837         1.50196
C         44.01795        43.79600         1.35470
C         45.12158        45.87432         1.80255
C         44.02476        46.65926         1.52088
C         45.19711        48.64929         0.45360
C         44.19979        48.19850         1.57141
C         45.20051        50.13291         0.11120
C         43.99947        50.95163         0.38653
C         44.95458        52.79366        -1.00274
C         43.82210        52.22624        -0.33317
C         44.89335        54.13368        -1.47989
C         43.69841        54.91168        -1.26229
C         43.64328        56.29670        -1.57189
C         47.50830        19.16264         1.84374
C         46.27131        18.56749         2.04096
C         47.61698        20.47641         1.33990
C         46.42128        21.17069         0.98063
C         47.75224        23.20480         0.49745
C         46.49263        22.53134         0.53539
C         47.81453        24.57677         0.12028
C         46.61423        25.27335        -0.25858
C         47.85599        27.40540        -0.45522
C         46.67291        26.68830        -0.57935
C         47.86197        28.84410        -0.36302
C         46.65920        29.58063        -0.45518
C         47.81757        31.65515         0.18037
C         46.61010        30.96861        -0.16243
C         47.76944        33.04386         0.43359
C         46.55244        33.77053         0.34471
C         47.77724        35.92016         0.68219
C         46.52541        35.19903         0.53146
C         47.77727        37.38779         0.70872
C         46.54623        38.09947         0.60951
C         47.79002        40.24490         0.85842
C         46.56934        39.52959         0.71648
C         47.80174        41.67501         0.95547
C         46.56207        42.40279         1.13537
C         47.85225        44.57989         1.29703
C         46.53865        43.82111         1.35789
C         47.91823        46.01845         0.86296
C         46.93910        46.91655         1.27229
C         47.65505        48.64268        -0.20542
C         46.62910        48.12109         0.59028
C         47.49110        49.94851        -0.83823
C         46.23284        50.66859        -0.64988
C         47.20870        52.56498        -1.94387
C         46.14427        52.02153        -1.18564
C         47.11507        53.89387        -2.42664
C         46.00161        54.66745        -2.17883
C         50.12004        20.44931         1.42900
C         48.90389        21.12745         1.19186
C         50.21918        23.16318         0.70592
C         48.95941        22.49779         0.80253
C         50.25856        24.55457         0.35991
C         49.06675        25.24094         0.06968
C         50.34538        27.38998        -0.02948
C         49.14653        26.63198        -0.50931
C         50.31858        28.78984         0.05667
C         49.08099        29.53560        -0.03254
C         50.30692        31.60643         0.52251
C         49.06520        30.92141         0.22920
C         50.30190        33.04317         0.72757
C         48.98032        33.73464         0.99709
C         50.24000        35.94552         0.63973
C         48.96208        35.21623         0.73471
C         50.24002        37.36491         1.07917
C         48.97467        38.09983         0.90019
C         50.26243        40.21990         0.89924
C         49.02432        39.52538         0.91669
C         50.26078        41.61807         0.70033
C         49.04009        42.33730         0.84119
C         50.26543        44.45781         0.29839
C         49.11027        43.80160         0.96379
C         50.19077        45.81364        -0.10511
C         48.98147        46.56311         0.09583
C         50.00676        48.50898        -1.00498
C         48.88884        47.91644        -0.34549
C         49.95910        49.96971        -1.36665
C         48.55875        50.52328        -1.50348
C         49.40539        52.19376        -3.06632
C         48.41424        51.78989        -2.18350
C         51.34431        21.08517         1.28808
C         52.70842        23.12953         0.79778
C         51.43091        22.44959         0.93156
C         52.73693        24.53950         0.54034
C         51.52630        25.24507         0.33052
C         52.78716        27.37357         0.26336
C         51.54491        26.66865         0.18664
C         52.77562        28.78436         0.22789
C         51.55220        29.49103         0.23710
C         52.79066        31.56870         0.79698
C         51.51938        30.90614         0.46204
C         52.77343        33.06727         0.96422
C         51.48306        33.74467         0.80236
C         52.79851        35.94421         0.91814
C         51.53035        35.21197         0.68212
C         52.81054        37.32578         0.95475
C         51.55305        38.06762         1.23060
C         52.77609        40.19320         0.57506
C         51.58595        39.58709         1.28595
C         52.69838        41.56659         0.18309
C         51.48207        42.29379         0.33305
C         52.55314        44.34197        -0.57793
C         51.42262        43.69737         0.00389
C         52.52510        45.71278        -0.82846
C         51.32421        46.45930        -0.67099
C         52.32217        48.44206        -1.84023
C         51.21682        47.81747        -1.13882
C         52.14815        49.60929        -2.58769
C         50.88490        50.32969        -2.50661
C         50.58860        51.42740        -3.27704
C         55.15381        23.11685         0.83969
C         53.93205        22.45145         0.93408
C         55.22594        24.50651         0.64000
C         53.99803        25.23715         0.50251
C         55.27619        27.35885         0.38324
C         54.02070        26.64647         0.36096
C         55.30618        28.75639         0.30271
C         54.05814        29.51688        -0.03517
C         55.26814        31.60643         0.52845
C         54.08024        30.92710         0.47470
C         55.30998        33.11209         0.43191
C         54.02632        33.82214         0.78871
C         55.29889        35.92516         0.79285
C         54.03192        35.19639         0.82926
C         55.25106        37.36791         0.66746
C         54.03866        38.05853         0.74621
C         55.18110        40.15276         0.03366
C         53.97904        39.48450         0.47366
C         55.08781        41.52126        -0.42570
C         53.86163        42.19216        -0.37141
C         55.01431        44.28565        -1.19781
C         53.71518        43.51644        -1.07596
C         54.98932        45.64721        -1.46623
C         53.76392        46.41914        -1.20690
C         54.75313        48.32449        -2.61169
C         53.65831        47.82979        -1.75701
C         54.47496        49.47785        -3.39831
C         53.24389        50.09684        -3.37703
C         57.74112        24.52237         0.62164
C         56.49692        25.21014         0.58335
C         57.74907        27.33674         0.43893
C         56.51038        26.62502         0.48322
C         57.77229        28.76503         0.38144
C         56.53319        29.48575         0.36366
C         57.76851        31.62930         0.42555
C         56.53089        30.90382         0.41324
C         57.79120        33.05455         0.58500
C         56.53190        33.74208         1.09604
C         57.75452        36.00472         0.90029
C         56.49784        35.24997         0.89484
C         57.70618        37.44344         0.59825
C         56.48850        38.09046         0.46920
C         57.64233        40.14500        -0.28638
C         56.41963        39.48608         0.09178
C         57.54391        41.43684        -0.98835
C         56.27383        42.20238        -0.91305
C         57.53217        44.38406        -1.27838
C         56.25137        43.55641        -1.22337
C         57.37109        45.67867        -2.04125
C         56.14844        46.35023        -1.98761
C         57.15158        48.22447        -3.24365
C         55.99826        47.65415        -2.60672
C         58.94234        25.19977         0.55049
C         60.20298        27.33737         0.37714
C         58.97686        26.61581         0.45725
C         60.21426        28.71128         0.29248
C         59.00414        29.46775         0.30452
C         60.19426        31.66200         0.13173
C         58.99861        30.91376         0.27305
C         60.18289        33.04283         0.16537
C         58.98689        33.75906         0.43054
C         60.08832        36.01810        -0.10438
C         59.04125        35.24283         0.60236
C         60.06523        37.35887        -0.17390
C         59.01887        38.19064         0.54728
C         60.08480        40.33203        -0.26753
C         58.88626        39.56731        -0.06692
C         60.06933        41.58961        -0.79601
C         58.83050        42.16398        -1.32433
C         59.78567        44.20817        -2.35706
C         58.75859        43.60760        -1.67940
C         59.69845        45.55278        -2.81319
C         58.50207        46.26602        -2.69808
C         58.35087        47.56962        -3.28153
O         42.82218        41.43999        -0.59109
O         38.02868        32.77643        -1.86804
O         35.91088        19.96163        -1.19290
O         41.05850        24.49829        -2.52416
O         50.94008        35.68032        -0.62954
O         39.16157        54.38455        -1.71957
O         25.96867        39.42452         2.19026
O         42.73264        19.25573        -0.12996
O         31.04480        46.23494        -0.22931
O         35.28185        45.03176         3.08470
O         43.85157        24.41466        -2.10975
O         37.30428        48.60272         2.94536
O         34.78109        28.93046         0.27906
O         32.90321        23.62418        -2.96751
O         58.74018        35.65807         1.98312
O         43.66129        51.14231         1.82152
O         52.79818        32.17168         2.14302
O         32.82712        40.61743         2.54863
O         36.62389        25.91097        -3.13015
O         42.02714        23.57257         1.10244
O         50.84981        37.52945         2.41836
O         46.21129        46.51639         2.38280
O         42.11794        48.67170         2.73831
O         54.05115        47.58117        -0.35046
O         34.06347        51.79414         2.91161
O         58.13193        41.35340        -2.34693
O         41.05735        39.71750         1.89536
O         45.66248        28.21950        -2.21260
O         41.17495        27.18426        -2.81626
O         48.81985        44.25894         2.34759
O         59.48182        38.36058         1.92218
H         59.43673        37.46500         2.33722
O         54.09377        29.67753        -1.51918
H         54.04964        28.77666        -1.90699
O         38.23596        27.88019        -3.31108
H         38.07881        27.06587        -3.84302
O         36.81638        21.92848        -2.69042
H         36.26522        21.12234        -2.81416
O         48.83840        33.61378         2.46956
H         47.97121        34.00190         2.71491
O         38.96477        33.38424         1.61479
H         39.68282        33.82504         2.11661
O         44.42767        39.59550        -1.32494
H         44.10324        40.47297        -1.63746
O         25.52296        36.58829        -2.26453
H         25.50303        35.79302        -2.83959
O         38.94581        44.17546        -0.61748
H         38.09240        43.82023        -0.94982
O         51.77062        39.95110         2.68969
H         51.27323        39.28206         3.21566
O         37.70396        18.20976        -0.09285
H         37.04547        18.45841        -0.78555
O         56.48048        33.50355         2.52213
H         57.22988        33.99001         2.92937
O         30.72916        33.65469        -2.63467
H         30.03109        33.20396        -3.15636
O         26.07517        27.92806        -4.50489
H         25.36852        28.47685        -4.90831
O         41.25423        42.03934         2.69388
H         42.11868        42.07119         3.16719
O         37.23300        52.53894        -1.29915
H         37.86687        53.06049        -1.85527
O         43.96419        41.98407         2.89044
H         44.71576        42.43119         3.33621
O         50.51570        50.67958        -0.19441
H         49.98304        50.41784         0.58700
O         44.76355        48.60223         2.81788
H         44.03112        48.64414         3.47186
O         30.20102        35.46546         1.73880
H         30.98696        35.79534         2.22504
O         34.13319        34.72827         1.93155
H         34.30827        35.54947         2.43973
O         44.67329        47.99459        -0.75124
H         45.26644        48.21536        -1.50102
O         49.39495        26.43255        -1.95650
H         48.56972        26.07521        -2.35016
O         38.50890        19.89093         3.03924
H         39.21789        19.76175         3.70388
O         40.42556        41.90825        -0.90650
H         40.18804        42.85062        -1.08815
O         57.75606        44.77675         0.13042
H         57.05134        45.41614         0.37207
O         26.07947        25.46611        -0.79756
H         26.76254        25.83469        -0.19760
O         53.34549        43.16925        -2.46823
H         54.05150        42.58438        -2.81855
O         55.51068        33.36344        -0.99995
H         54.85560        32.83244        -1.50110
O         40.36998        45.81959         3.21081
H         40.44071        46.73817         3.55211
H         22.25924        27.18778        -3.26293
H         22.22380        29.59859        -2.81180
H         22.17062        31.38159        -2.13776
H         22.11231        33.69390        -1.38758
H         22.09617        35.37076        -0.42564
H         22.05294        37.72122         0.20228
H         22.06330        39.69475         0.02769
H         22.04217        42.07707         0.50777
H         21.98190        43.87669         1.12546
H         21.97724        46.32164         1.40442
H         25.61952        23.78246        -3.25310
H         23.60925        25.08059        -3.84665
H         25.29955        49.71184         1.62112
H         23.19415        48.45408         1.58659
H         26.97232        22.78263        -2.03325
H         26.92304        50.65595         1.66683
H         29.04041        21.51718        -1.58535
H         29.00940        51.88700         1.67059
H         32.65383        19.75279         0.39360
H         30.56348        20.89461        -0.24145
H         32.66990        54.06547         0.95143
H         30.60961        52.80926         1.10006
H         34.23685        19.58765         1.73472
H         34.43375        55.04558         1.23940
H         36.24720        18.48983         2.55911
H         36.49653        56.18992         0.53900
H         39.85217        16.00513         3.43106
H         37.78704        17.09437         2.67556
H         40.10992        58.20877        -0.94264
H         38.01428        57.13665        -0.25965
H         42.29506        16.19234         3.90670
H         42.45697        58.09439        -1.63155
H         44.50452        17.20219         3.46555
H         44.54751        56.81888        -1.91088
H         48.40946        18.60023         2.12097
H         46.23255        17.55496         2.46517
H         47.94958        54.33271        -2.98860
H         45.97432        55.69661        -2.55917
H         50.11418        19.38987         1.71763
H         49.28510        53.11180        -3.65681
H         52.25758        20.50425         1.47347
H         51.28005        51.76289        -4.06281
H         56.07328        22.52700         0.95191
H         53.94610        21.36853         1.11628
H         55.26004        49.89724        -4.04247
H         53.10134        50.99850        -3.98783
H         57.75900        23.42645         0.69231
H         57.07502        49.22283        -3.69540
H         59.88940        24.64122         0.56785
H         61.15042        26.77915         0.38449
H         61.18158        29.22837         0.23464
H         61.15348        31.14800        -0.01423
H         61.13043        33.58696         0.05191
H         60.86407        35.46158        -0.65135
H         60.85397        37.88323        -0.73436
H         61.03059        39.91806         0.11055
H         60.97753        42.20919        -0.78289
H         60.69357        43.63168        -2.58896
H         60.55443        46.00499        -3.33312
H         59.22041        48.03320        -3.76945
