         234
 CSIRO Nanostructure Databank - Neutral Graphene Oxide Data Set
C          1.42474         2.56093        -1.88392
C          1.34723         3.82347        -1.22820
C          2.58664         1.84097        -1.88988
C          2.43944         4.37432        -0.57790
C          1.14917         6.44976         0.06837
C          1.08267         7.76390         0.39547
C          2.39803         5.71360         0.01804
C          2.26168         8.50269         0.87131
C          1.10229        10.74531         0.78060
C          1.09385        12.14274         0.67934
C          2.28690         9.98761         0.77177
C          2.25985        12.87659         0.38512
C          1.15737        15.11784         0.56952
C          1.22974        16.50224         0.63387
C          2.28939        14.30421         0.30253
C          2.46465        17.21137         0.51860
C          2.53324        18.64772         0.57580
C          3.75321         2.31516        -1.18417
C          3.67904         3.62031        -0.51874
C          4.93152         1.61071        -1.24263
C          4.82021         4.18682         0.03113
C          3.58036         6.35664         0.34765
C          3.58963         7.75135         0.82138
C          4.87477         5.66616         0.15732
C          4.86721         8.52011         0.82480
C          3.53590        10.64663         0.63249
C          3.48936        12.06604         0.19146
C          4.78093         9.97729         0.76751
C          4.80471        12.78530        -0.01367
C          3.54986        15.03336         0.03290
C          3.64884        16.48135         0.31572
C          4.83806        14.27592        -0.09045
C          4.90812        17.14665         0.20005
C          3.71569        19.30658         0.37305
C          4.94692        18.58829         0.16907
C          6.04046         1.91810        -0.28000
C          6.05534         3.38516         0.15691
C          7.40520         1.37870        -0.63375
C          7.35711         4.11498         0.30636
C          6.17925         6.39795         0.53647
C          6.07667         7.84446         0.90868
C          7.37608         5.55083         0.69345
C          7.22197         8.65970         1.49436
C          5.99808        10.75388         0.72672
C          6.03363        12.09632         0.39081
C          7.27947        10.08653         1.00710
C          7.28895        12.80201         0.21603
C          6.07917        14.95733         0.45737
C          6.12327        16.42264         0.13257
C          7.32897        14.20727         0.10470
C          7.36106        17.06843        -0.07655
C          6.16426        19.23633        -0.04628
C          7.37782        18.50914        -0.21739
C          8.61548         2.03622        -0.53618
C          8.58769         3.53029        -0.34363
C          9.82233         1.24669        -0.47758
C          9.86029         4.39524        -0.20581
C          8.62154         5.93771         1.25024
C          8.60918         8.09161         1.44790
C          9.83739         5.51340         0.74568
C          9.72604         8.51699         0.81280
C          8.54519        10.66601         0.44057
C          8.46825        12.06558        -0.01633
C          9.68372         9.76114        -0.05735
C          9.66586        12.72029        -0.33936
C          8.55267        14.87514        -0.09683
C          8.58281        16.32727        -0.17730
C          9.73869        14.12065        -0.30038
C          9.80744        16.98526        -0.46347
C          8.59521        19.15277        -0.48578
C          9.80463        18.42500        -0.62299
C         11.13417         1.71841        -0.68108
C         11.15142         3.80363        -0.49274
C         12.36155         1.25038        -0.21030
C         12.36917         4.27617         0.06934
C         11.10685         6.23185         1.17323
C         11.02765         7.80325         1.03326
C         12.31107         5.64465         0.45463
C         12.26433         8.58631         0.72761
C         11.00327        10.53762        -0.20125
C         10.76431        11.87506        -0.94604
C         12.21166         9.94836         0.08394
C         11.96059        12.74546        -1.19256
C         11.08320        14.81095        -0.19385
C         11.03125        16.26215        -0.59860
C         12.19044        14.03584        -0.87113
C         12.24788        16.91611        -0.86539
C         11.02532        19.07961        -0.85183
C         12.24064        18.36459        -0.93894
C         13.57675         2.03625        -0.09463
C         13.58654         3.50210         0.01338
C         14.76254         1.34735         0.10392
C         14.81061         4.16513         0.29158
C         13.51506         6.42466         0.28937
C         13.56050         7.85998         0.61179
C         14.83135         5.64063         0.23353
C         14.74794         8.53909         0.71387
C         13.52682        10.60149        -0.01741
C         13.80271        11.71470        -0.77735
C         14.68267        10.02723         0.73211
C         14.92626        12.60812        -0.59170
C         13.49536        14.71366        -1.32745
C         13.49478        16.20088        -0.98996
C         14.83634        14.02115        -0.94234
C         14.69780        16.91141        -0.97856
C         13.46005        19.05405        -1.03530
C         14.68319        18.36077        -0.98600
C         16.04487         1.98187         0.55305
C         16.03903         3.48043         0.40491
C         17.29344         1.34796        -0.01265
C         17.28048         4.17368         0.36595
C         16.01578         6.38600         0.72747
C         16.03797         7.86162         0.69205
C         17.33033         5.62348         0.67404
C         17.25850         8.52037         0.80339
C         15.99657        10.76774         0.70759
C         16.06277        12.06359         0.00546
C         17.27718        10.00202         0.93250
C         17.34940        12.67373        -0.30647
C         16.00545        14.77721        -0.93290
C         15.98649        16.23610        -0.96212
C         17.31800        14.08906        -0.89571
C         17.15942        16.97804        -0.88269
C         15.89144        19.08273        -0.95639
C         17.12793        18.42409        -0.85309
C         18.46573         2.05270        -0.10963
C         18.47151         3.48277         0.13247
C         19.71649         1.43903        -0.56820
C         19.71058         4.22322        -0.13065
C         18.53183         6.42734         0.46988
C         18.52436         7.81235         0.65531
C         19.74568         5.73822         0.01758
C         19.79295         8.52974         0.56522
C         18.58103        10.71620         0.75680
C         18.59660        12.11041         0.24481
C         19.83385         9.94108         0.59682
C         19.78324        12.78460         0.17553
C         18.61335        14.86433        -0.85830
C         18.55057        16.38396        -1.01018
C         19.84602        14.19557        -0.29384
C         19.53004        17.11315        -0.08736
C         18.31041        19.18351        -0.66045
C         19.51479        18.59077        -0.23275
C         20.89815         2.08974        -0.53907
C         21.00293         3.46431         0.08438
C         22.19726         4.28770        -0.31837
C         21.03718         6.41120         0.15675
C         21.03466         7.80773         0.42290
C         22.20812         5.64601        -0.18484
C         22.25458         8.54821         0.46843
C         21.05139        10.66003         0.55739
C         21.03800        12.11956         0.51484
C         22.26557         9.92385         0.53060
C         22.16520        12.89608         0.70135
C         20.99127        14.99492         0.21911
C         20.80763        16.45983         0.38775
C         22.09784        14.32775         0.67086
C         21.95267        17.34081         0.64659
C         20.63251        19.33637         0.14752
C         21.83419        18.70380         0.56308
O         17.99944        10.52445         2.10365
O          2.85691         7.95198         2.09093
O         12.98703        12.05787        -1.86005
O         17.42780        12.93912        -1.76799
O          5.71262         6.26116        -0.89264
O         11.75555         8.48205         2.12474
O          8.99523         4.40015        -1.41864
O         11.20838         2.91134        -1.50850
O          8.68402         6.93007         2.23456
O          4.11262        12.18581        -1.14684
O         14.24941         6.16158        -0.98146
O          6.76209         3.39697         1.46488
O         19.61496        16.66921         1.28977
O          4.23662        14.78571        -1.28834
O          8.26042        10.74842         1.89374
O         19.62599        14.31514        -1.75914
O         19.63211         5.05654        -1.31859
O         15.13493        10.74195         1.91305
O         16.61210         5.86923         1.94656
O         10.29351        11.51608        -2.24396
O         13.48813        14.67863        -2.78444
H         13.37520        13.73619        -3.04611
O         11.35222         5.95009         2.57117
H         11.65991         6.79311         2.98516
O         16.11419         1.71415         2.01836
H         16.87187         2.23166         2.36758
O         18.97429        16.71337        -2.35989
H         19.42999        15.91793        -2.72366
O          9.29986         9.31808        -1.37774
H          9.56258        10.06077        -2.01109
O          6.88082         8.74235         2.91128
H          7.49785         9.39744         3.30812
O         11.40238        14.82327         1.24454
H         10.69169        15.31774         1.70456
O         21.08919         3.27145         1.53569
H         21.88614         2.73247         1.72238
O          5.91563        14.84809         1.91667
H          6.74040        15.17000         2.33802
O          5.66585         1.14900         0.91599
H          6.12970         1.58063         1.67164
H          0.53337         2.17840        -2.40014
H          0.39444         4.36602        -1.28206
H          2.64362         0.86979        -2.40163
H          0.22692         5.94602        -0.25048
H          0.12900         8.29895         0.28107
H          0.14211        10.23516         0.94024
H          0.13321        12.66248         0.79915
H          0.17924        14.64323         0.73194
H          0.30961        17.07734         0.81324
H          1.60461        19.21375         0.73959
H          4.98166         0.67596        -1.82081
H          3.74249        20.40618         0.37160
H          7.43735         0.28776        -0.78330
H          6.19477        20.33569        -0.08581
H          9.70023         0.19080        -0.19406
H          8.61743        20.24735        -0.59492
H         12.39496         0.22921         0.19705
H         11.04715        20.17769        -0.91733
H         14.74034         0.24695         0.07644
H         13.46245        20.15267        -1.09096
H         17.28045         0.26960        -0.23408
H         15.86092        20.18249        -0.95907
H         19.66315         0.40925        -0.95386
H         18.24324        20.28125        -0.70676
H         21.81623         1.59359        -0.89090
H         23.12085         3.76454        -0.61094
H         23.15131         6.18132        -0.37026
H         23.21120         8.01078         0.42216
H         23.22799        10.45342         0.53122
H         23.12401        12.43237         0.97014
H         22.96901        14.88711         1.04021
H         22.93124        16.89358         0.86992
H         20.59928        20.43289         0.07557
H         22.70853        19.33302         0.78292
