         210
 CSIRO Nanostructure Databank - Neutral Graphene Oxide Data Set
C         30.58946        31.99708         1.66868
C         30.76959        33.24533         1.77102
C         30.81332        36.35066         1.80602
C         30.96729        37.57802         1.67056
C         30.93143        40.73614         1.24927
C         30.88083        41.93549         0.91892
C         32.85074        29.11832         1.17078
C         31.76504        29.71640         1.34345
C         32.91815        31.81521         1.06881
C         31.66184        31.13401         1.36956
C         32.99690        33.25239         1.10798
C         31.88222        34.04541         1.52629
C         33.16515        36.16434         1.11519
C         32.05952        35.47620         1.92733
C         33.16582        37.59706         0.95952
C         32.05192        38.39703         1.24523
C         33.04537        40.45879         0.17549
C         32.16724        39.89430         1.31601
C         32.92722        41.76038        -0.33099
C         31.80496        42.64331         0.08469
C         32.98643        44.35948        -0.97267
C         31.95365        43.95723        -0.33709
C         35.51250        27.50935         0.96587
C         35.34854        28.90942         0.81760
C         34.14365        29.63521         0.91884
C         35.37042        31.73603         0.55196
C         34.12934        31.06805         0.83529
C         35.37892        33.16271         0.37582
C         34.20409        33.93010         0.69201
C         35.26927        36.01337        -0.18326
C         34.19436        35.36447         0.59539
C         35.41578        37.45184        -0.18106
C         34.41441        38.33084         0.52394
C         35.22771        40.13584        -1.03699
C         34.01708        39.46289        -0.43746
C         34.98166        41.37463        -1.62556
C         33.97331        42.29679        -1.20720
C         35.34367        44.41621        -2.06936
C         34.10127        43.71450        -1.48627
C         35.48434        45.83929        -1.60606
C         37.87094        27.41489         0.67955
C         36.58604        26.87015         0.92816
C         37.83325        28.83571         0.49069
C         36.59901        29.57123         0.57435
C         37.82455        31.66652         0.12956
C         36.58690        30.99625         0.41030
C         37.81670        33.07495        -0.11030
C         36.59075        33.78608        -0.04328
C         37.79891        35.91228        -0.72030
C         36.55427        35.17432        -0.51824
C         37.75837        37.31042        -0.91527
C         36.53098        38.06325        -0.74648
C         37.75627        40.17576        -1.15167
C         36.51000        39.48563        -1.04616
C         37.85718        41.61268        -1.14069
C         36.83412        42.44857        -1.70665
C         37.54722        44.41322        -0.49098
C         36.62507        43.77095        -1.45651
C         37.60462        45.89897        -0.39419
C         36.40909        46.39278        -0.98711
C         40.32797        24.61659         0.65036
C         39.28639        25.31680         0.75375
C         40.31784        27.36157         0.25169
C         39.08681        26.69797         0.58948
C         40.29347        28.78621         0.07965
C         39.06735        29.51424         0.21492
C         40.27492        31.62011        -0.24012
C         39.05201        30.93305         0.03722
C         40.24512        33.02170        -0.51623
C         39.04475        33.74975        -0.46110
C         40.23308        35.86881        -0.97731
C         39.04636        35.18651        -0.70361
C         40.21674        37.30343        -1.22521
C         38.97149        38.04576        -1.05926
C         40.22740        40.16021        -0.74935
C         38.99064        39.45411        -1.01665
C         40.18305        41.53555        -0.35429
C         38.96012        42.24730        -0.54703
C         39.96236        44.35090         0.50491
C         38.78338        43.63126        -0.08017
C         39.96332        45.83790         0.49528
C         38.75007        46.53231         0.11342
C         39.93063        48.58442         0.63851
C         38.92763        47.93620         0.26420
C         42.84756        24.62362         0.01401
C         41.55806        25.17321         0.25634
C         42.71020        27.32996        -0.36889
C         41.53319        26.61638         0.05532
C         42.74373        28.74566        -0.36435
C         41.51726        29.48485        -0.17941
C         42.76663        31.61558        -0.39468
C         41.51418        30.90139        -0.29357
C         42.78505        33.01328        -0.57097
C         41.51248        33.67831        -0.90086
C         42.78899        35.92249        -0.85368
C         41.52791        35.18159        -1.11704
C         42.78041        37.31757        -0.76611
C         41.55758        38.07740        -1.08248
C         42.65677        40.16771        -0.31155
C         41.46538        39.48199        -0.67829
C         42.60660        41.55145         0.05196
C         41.35314        42.19264         0.12661
C         42.51268        44.27801         1.13547
C         41.23487        43.56512         0.69770
C         42.40522        45.80586         1.03814
C         41.17282        46.52232         0.86513
C         42.40075        48.54592         1.39013
C         41.16687        47.99476         0.99009
C         43.82163        25.16539        -0.53924
C         45.26021        27.35690        -0.81936
C         43.92772        26.59545        -0.80249
C         45.23764        28.78823        -0.43220
C         43.99970        29.46657        -0.40793
C         45.22573        31.62371        -0.20802
C         44.00865        30.90356        -0.31041
C         45.22892        33.06386        -0.30139
C         43.99709        33.75869        -0.54603
C         45.22790        35.91705        -0.47652
C         44.00517        35.19344        -0.63283
C         45.23836        37.35114        -0.48855
C         43.98109        38.07143        -0.54444
C         45.13892        40.28001        -0.50443
C         43.91133        39.47419        -0.39299
C         45.12967        41.70167        -0.07796
C         43.84482        42.32474         0.22633
C         45.00931        44.52078         0.48608
C         43.76881        43.67083         0.53502
C         44.85006        45.77038         1.39825
C         43.62175        46.46735         1.38128
C         43.42684        47.85431         1.61232
C         47.47132        27.37071        -0.00811
C         46.55431        26.72504        -0.54351
C         47.67169        28.77344         0.16275
C         46.44517        29.47844        -0.08520
C         47.67456        31.59389         0.25357
C         46.45903        30.90567        -0.00070
C         47.64493        33.06969         0.26885
C         46.43454        33.79003        -0.18166
C         47.70406        35.94517        -0.27077
C         46.46773        35.21421        -0.30598
C         47.71502        37.35509        -0.32731
C         46.46360        38.04879        -0.40554
C         47.73529        40.27525        -0.37098
C         46.45913        39.51198        -0.58410
C         47.66517        41.75211        -0.07543
C         46.32973        42.39577         0.16527
C         47.44156        44.29904         1.30338
C         46.29061        43.73102         0.67411
C         47.23119        45.56218         1.94995
C         46.09247        46.11599         1.87882
C         50.13787        28.89810         0.69428
C         48.85419        29.45719         0.45485
C         50.17453        31.60471         0.55533
C         48.90018        30.90231         0.44795
C         50.20892        33.01770         0.36306
C         48.95073        33.80417         0.27635
C         50.24954        35.91268        -0.09860
C         48.98952        35.14917        -0.43199
C         50.26490        37.37405        -0.52390
C         48.96827        38.12380        -0.27551
C         50.19063        40.25989         0.22449
C         48.98600        39.50340        -0.13692
C         50.15063        41.59884         0.64445
C         48.95304        42.50120         0.30827
C         49.88241        43.97168         1.88957
C         48.68177        43.62371         1.32765
C         51.24180        29.46251         0.83800
C         52.57210        31.68326         0.72962
C         51.42301        30.87200         0.74423
C         52.52402        32.93204         0.55916
C         51.41334        33.76517         0.34870
C         52.61994        35.99749         0.15696
C         51.40594        35.19674         0.15669
C         52.54589        37.24548         0.21444
C         51.48002        38.14363         0.00099
C         52.49473        40.26014         0.84783
C         51.42823        39.47950         0.32471
C         52.47703        41.42913         1.28383
C         51.31064        42.24544         1.29252
C         51.06124        43.47738         1.91225
O         41.00046        37.74653        -2.38557
O         35.50453        35.41564        -1.49719
O         45.78644        39.97115        -1.79366
O         47.86946        41.27272        -1.44817
O         35.92527        41.81812        -2.58099
O         37.60428        43.74681         0.81164
O         41.54750        34.25396        -2.25548
O         48.18381        33.72166         1.50607
O         40.26599        43.69186         1.80233
O         44.54848        27.03514        -2.02085
O         45.06566        45.09493        -0.86310
H         45.96492        45.46260        -1.00122
O         35.08885        38.87902         1.67743
H         34.41839        39.34627         2.23742
O         49.37259        43.22752        -0.87471
H         49.15560        42.65582        -1.64933
O         35.35278        44.32985        -3.48185
H         35.42087        43.37835        -3.72364
O         50.38346        37.32782        -1.99430
H         51.29111        37.01386        -2.20108
O         49.07689        34.83239        -1.85637
H         49.30319        35.67566        -2.31992
O         42.67526        44.00402         2.55973
H         41.76410        43.97786         2.93976
O         32.83554        40.18878         2.57231
H         32.82752        41.16054         2.70839
O         33.28964        38.80959        -1.52202
H         33.07268        39.48176        -2.20184
O         32.46898        35.48442         3.30179
H         31.80026        34.99830         3.82831
