         429
 CSIRO Nanostructure Databank - Neutral Graphene Oxide Data Set
C          2.12056         2.15445        -2.81065
C          2.11842         3.57165        -3.03467
C          3.26881         1.48876        -2.49933
C          3.26810         4.31210        -2.91618
C          2.05829         6.51885        -3.35234
C          2.00806         7.85634        -3.16902
C          3.36081         5.76936        -3.34470
C          3.16947         8.63102        -2.77456
C          2.00564        10.80089        -3.12979
C          1.99268        12.16463        -3.08098
C          3.14339        10.03601        -2.69946
C          3.11860        12.91566        -2.58853
C          2.00867        15.13038        -3.02062
C          2.03201        16.49263        -3.07817
C          3.13740        14.32451        -2.62956
C          3.29085        17.28594        -2.81943
C          3.08570        18.67615        -2.26017
C          4.51722         2.20224        -2.33592
C          4.50825         3.65076        -2.57472
C          5.64144         1.55892        -1.87619
C          5.68489         4.37386        -2.45254
C          4.44493         6.52566        -2.60844
C          4.35839         7.90993        -2.39385
C          5.66882         5.81606        -2.32950
C          5.44784         8.63390        -1.78121
C          4.27341        10.75870        -2.16553
C          4.23754        12.15416        -2.08327
C          5.41562        10.01542        -1.66143
C          5.30722        12.85203        -1.33686
C          4.43247        15.05957        -2.37003
C          4.16444        16.47845        -1.84401
C          5.35782        14.34430        -1.40571
C          5.43131        17.21305        -1.47028
C          4.10365        19.29918        -1.63634
C          5.37166        18.62018        -1.34563
C          6.88893         2.33906        -1.54637
C          6.97311         3.58248        -2.43484
C          8.19642         1.57437        -1.62660
C          8.19661         4.41827        -2.03637
C          6.75891         6.49630        -1.78808
C          6.54655         7.83530        -1.12769
C          7.95640         5.74261        -1.38660
C          7.81877         8.61599        -0.86611
C          6.54824        10.72449        -1.06936
C          6.52454        12.11704        -0.94336
C          7.73133         9.99142        -0.70199
C          7.68574        12.86604        -0.51091
C          6.61754        15.04931        -1.06819
C          6.59771        16.50702        -1.08775
C          7.69773        14.31797        -0.61633
C          7.70295        17.23829        -0.60457
C          6.49894        19.33532        -0.91136
C          7.68556        18.66163        -0.53315
C          9.40817         2.22387        -1.63232
C          9.47816         3.70767        -1.76275
C         10.62979         1.53908        -1.31582
C         10.72330         4.42239        -1.22994
C          9.10834         6.44186        -0.71025
C          9.04440         7.91556        -0.55373
C         10.42535         5.78692        -0.62770
C         10.19820         8.60530        -0.17750
C          8.83255        10.69740         0.06382
C          8.83848        12.20011        -0.08577
C         10.20733        10.11608        -0.24814
C          9.97682        12.89836         0.46175
C          8.93427        15.02187        -0.22710
C          8.92042        16.52243        -0.19990
C          9.94785        14.28698         0.54822
C          9.84725        17.26316         0.70810
C          8.86838        19.37056        -0.13141
C          9.97770        18.71484         0.43020
C         11.72213         2.13626        -0.66758
C         11.67369         3.56972        -0.40031
C         12.80941         1.19804        -0.38174
C         12.68219         4.33103         0.22702
C         11.48911         6.49576        -0.08345
C         11.40683         7.92099         0.15353
C         12.69262         5.78387         0.26040
C         12.52210         8.62484         0.68208
C         11.29032        10.77037         0.58373
C         11.17618        12.15779         0.86723
C         12.45427        10.05010         0.92750
C         12.28828        12.83911         1.40152
C         10.91354        15.01176         1.38392
C         10.92920        16.52165         1.43939
C         12.14085        14.24228         1.82905
C         12.17918        17.25886         1.74075
C         11.17046        19.34077         0.81051
C         12.27222        18.62020         1.37525
C         13.84586         1.33922         0.52395
C         13.82820         3.71608         0.80407
C         14.97696         0.51735         0.87260
C         15.00316         4.42345         1.02600
C         13.78041         6.51083         0.80101
C         13.71758         7.92482         1.01837
C         14.98858         5.83381         1.16040
C         14.83805         8.59311         1.60377
C         13.57342        10.71285         1.52013
C         13.50599        12.13795         1.69647
C         14.76963         9.99935         1.86798
C         14.62479        12.83075         2.18040
C         13.35108        15.03053         2.25542
C         13.35454        16.54699         2.29464
C         14.64920        14.30451         2.08911
C         14.66773        17.33116         2.53110
C         13.53181        19.30389         1.45444
C         14.71223        18.67172         1.82630
C         16.13700         1.24815         1.28529
C         16.19885         3.67999         1.28925
C         17.27896         0.93385         2.01235
C         17.28985         4.22155         1.91809
C         16.10004         6.45523         1.74735
C         16.02704         7.87330         1.96485
C         17.25048         5.66017         2.17076
C         17.12653         8.55089         2.53729
C         15.89240        10.66284         2.45969
C         15.79897        12.12116         2.68394
C         17.08236         9.95169         2.75422
C         17.09694        12.92799         2.92607
C         15.92675        15.05388         2.16645
C         15.94305        16.53360         2.27558
C         17.17960        14.32796         2.47536
C         17.13218        17.17059         2.10094
C         15.95881        19.31276         1.69876
C         17.17719        18.62210         1.91349
C         18.40205         1.84528         2.19775
C         18.27118         3.31370         2.66183
C         19.64467         1.25674         2.21371
C         19.61831         4.05049         2.84523
C         18.34958         6.30556         2.71871
C         18.31954         7.76494         2.93476
C         19.61760         5.56224         2.96911
C         19.64114         8.51104         3.03027
C         18.34859        10.65721         3.12242
C         18.38310        12.17865         3.07575
C         19.62861         9.97159         2.81898
C         19.64372        12.86048         2.71911
C         18.38271        14.97909         2.36293
C         18.40977        16.39580         1.82591
C         19.63986        14.28402         2.54952
C         19.64906        17.14722         2.25734
C         18.40972        19.26526         1.82108
C         19.64444        18.58845         2.09277
C         20.88533         1.98913         2.23761
C         20.88143         3.40340         2.43738
C         22.09174         1.32564         2.01323
C         22.06566         4.15048         2.28262
C         20.88668         6.28425         2.71213
C         20.97961         7.78435         2.99968
C         22.03888         5.60534         2.38482
C         21.93855         8.42799         1.99631
C         20.78451        10.68044         2.54756
C         20.82975        12.13014         2.57421
C         21.99634         9.95292         2.09084
C         22.10176        12.83571         2.54160
C         20.85278        14.99932         2.55282
C         20.80943        16.45199         2.55185
C         22.10536        14.28992         2.66141
C         22.03294        17.18813         2.91743
C         20.83307        19.30748         2.11562
C         22.06247        18.71295         2.61987
C         23.30909         2.04503         1.91171
C         23.29317         3.47540         2.00538
C         24.52578         1.36173         1.69877
C         24.51202         4.21031         1.80353
C         23.29091         6.34850         2.17003
C         23.28419         7.73457         2.10126
C         24.50327         5.61239         1.92445
C         24.56531         8.48483         2.35253
C         23.30011        10.70740         2.07938
C         23.29997        12.13120         2.45789
C         24.57557         9.96977         2.10161
C         24.59874        12.76873         2.72053
C         23.31176        14.98904         2.80533
C         23.32194        16.44313         2.98031
C         24.59885        14.28449         2.95199
C         24.66147        17.22535         2.66362
C         23.34335        19.31122         2.23016
C         24.52978        18.61704         2.17204
C         25.73866         2.05653         1.50647
C         25.73718         3.50098         1.49705
C         26.94190         1.35492         1.28387
C         26.94062         4.17678         1.21502
C         25.68166         6.36864         1.47006
C         25.78695         7.80716         1.78432
C         26.90817         5.63708         1.00133
C         26.98452         8.46519         1.75004
C         25.78291        10.64497         2.07191
C         25.84261        12.08742         2.26278
C         27.03025         9.91412         1.87110
C         27.03780        12.76566         2.11085
C         25.89252        15.03139         2.71574
C         25.83330        16.44988         2.28137
C         27.12513        14.23373         2.35123
C         26.88467        17.04478         1.54081
C         25.67238        19.20466         1.53692
C         26.80241        18.47205         1.20263
C         28.16531         2.03158         1.09605
C         28.17073         3.47364         1.07956
C         29.36990         1.31833         0.88488
C         29.41019         4.17014         0.95446
C         28.20173         6.43630         0.80088
C         28.27228         7.65515         1.74663
C         29.45959         5.61045         0.97565
C         29.51125         8.45611         1.43839
C         28.20459        10.60051         1.59696
C         28.22301        12.05656         1.62902
C         29.45952         9.88095         1.34292
C         29.34486        12.72841         1.17661
C         28.27547        14.98336         1.72818
C         28.05439        16.34214         1.21819
C         29.43866        14.19452         1.19332
C         28.98580        16.90135         0.17038
C         27.92662        19.11502         0.60730
C         29.05632        18.40952         0.19099
C         30.59325         1.99105         0.71394
C         30.61711         3.43001         0.81632
C         31.80263         1.29398         0.45081
C         31.86592         4.10417         0.74795
C         30.65669         6.29293         1.06733
C         30.70386         7.75121         1.13521
C         31.91838         5.53775         1.07572
C         31.91013         8.44354         0.86667
C         30.60019        10.59022         0.98306
C         30.42270        11.97397         0.43443
C         31.95981         9.94778         1.03534
C         31.69790        12.74550         0.21975
C         30.44431        14.86489         0.33493
C         30.33399        16.22140         0.06329
C         31.63832        14.13803         0.00831
C         31.44162        16.92856        -0.49616
C         30.18588        19.05466        -0.34083
C         31.35718        18.34716        -0.70558
C         33.00233         1.97804         0.19828
C         33.02589         3.41927         0.35070
C         34.18940         1.28015        -0.17301
C         34.20571         4.15788        -0.00434
C         33.22818         6.29571         0.82795
C         33.13760         7.76370         0.58122
C         34.31037         5.52558         0.18832
C         34.22452         8.44714         0.04384
C         32.95365        10.62998         0.12774
C         32.89632        12.02728        -0.06325
C         34.06660         9.84390        -0.50727
C         34.03801        12.76154        -0.55205
C         32.75439        14.84302        -0.53706
C         32.66475        16.24667        -0.76294
C         33.96918        14.13508        -0.80950
C         33.80207        16.96427        -1.25846
C         32.49937        19.03121        -1.19871
C         33.69019        18.36845        -1.46525
C         35.33525         1.95510        -0.62846
C         35.25701         3.42821        -0.75151
C         36.50841         1.30107        -1.04452
C         36.48542         4.17436        -1.20357
C         35.54931         6.24717        -0.13796
C         35.52557         7.80015        -0.14915
C         36.62381         5.60059        -0.87638
C         36.61859         8.47626        -0.88131
C         35.39242        10.59147        -0.49400
C         35.34300        12.08682        -0.63108
C         36.57790         9.88414        -1.01290
C         36.47604        12.77609        -1.27135
C         35.13801        14.85302        -1.28332
C         35.03072        16.27241        -1.54267
C         36.34513        14.17219        -1.51612
C         36.08924        16.95030        -2.19175
C         34.89558        19.18129        -1.87415
C         35.97397        18.35816        -2.53617
C         37.68032         2.00082        -1.45849
C         37.71122         3.41810        -1.47832
C         38.88151         1.29982        -1.80489
C         38.89203         4.13603        -1.78471
C         37.75929         6.30183        -1.27940
C         37.76009         7.75028        -1.29003
C         38.90386         5.57449        -1.78212
C         38.87658         8.45181        -1.85018
C         37.67574        10.60907        -1.53244
C         37.62623        12.04810        -1.65459
C         38.83147         9.87760        -1.97664
C         38.72393        12.73852        -2.30891
C         37.59380        14.95902        -1.83300
C         37.30310        16.26615        -2.52554
C         38.66382        14.14155        -2.51635
C         38.27225        16.87245        -3.30399
C         36.88085        18.95204        -3.35256
C         37.98420        18.17716        -4.00938
C         40.02549         1.98118        -2.14591
C         40.06466         3.40963        -2.15119
C         41.22180         4.13579        -2.52816
C         40.05759         6.26978        -2.20561
C         40.03189         7.72617        -2.28006
C         41.21016         5.51775        -2.56948
C         41.11773         8.45045        -2.80416
C         39.92881        10.56947        -2.56727
C         39.84751        12.00604        -2.78325
C         41.06475         9.83152        -2.95051
C         40.86403        12.69885        -3.47862
C         39.68047        14.80711        -3.22671
C         39.55394        16.23897        -3.52416
C         40.77605        14.05985        -3.71329
C         40.60646        16.99999        -3.99497
C         39.22980        18.99726        -4.22803
C         40.44835        18.40572        -4.25983
O         36.01195         7.05469         1.00496
O         21.90901        18.16424         3.97716
O          4.71807        13.72315        -0.24932
O         19.68993         4.69713         4.17219
O         15.35193        14.69554         0.81502
O          8.08269         5.67648         0.09663
O         24.67500        13.35614         4.06694
O          9.70201        16.98799         2.13661
O         13.80275         2.45738         1.36178
O         35.37031         3.89092        -2.15010
O         11.00660        14.42241         2.72548
O         35.66606        11.41090         0.66969
O         29.49807        14.80514         2.54689
O         18.41716        11.44704         4.34477
O         16.17700         2.47443         0.62357
O         18.88316         8.16875         4.24058
O         25.90828         6.06088         0.01177
O         24.20486        16.93526         4.01500
O         32.84337         5.87352         2.16803
O         16.18004        12.65287         4.01433
O          9.58448        15.82278        -1.31364
O         13.11450        15.71713         3.50846
O         26.89922        14.69163         3.72408
O         22.51354        10.48458         0.81632
O          9.19590         4.32435        -3.09814
O          3.95407        17.48109        -4.09351
H          4.42524        16.64300        -4.31893
O         21.38208         8.12996         0.68895
H         21.82560         8.73536         0.05128
O          3.79842         5.71154        -4.75363
H          3.88477         6.63555        -5.07037
O         28.31694        16.56975        -1.11462
H         28.83690        16.99904        -1.82782
O          8.57916        10.42328         1.47177
H          7.67367        10.73077         1.68704
O         37.49790        17.82260        -5.36337
H         38.22730        17.34005        -5.80807
O         24.73769         8.36794         3.82161
H         25.57794         8.81439         4.06260
O         28.39525         7.11575         3.09622
H         28.79524         7.80240         3.67001
O         21.55315         7.92838         4.31035
H         20.84329         7.73401         4.96253
O         34.51483        20.29225        -2.69053
H         34.21232        19.94696        -3.55524
O         28.22562         6.92861        -0.55604
H         27.30103         6.86101        -0.89733
O         33.74495         9.70787        -1.93631
H         32.84483         9.32517        -2.00926
O         17.67588         3.15793         3.97531
H         18.13237         3.80257         4.57041
O          5.15987        15.14371        -3.63582
H          5.12145        14.26607        -4.07081
O         10.50398        10.45599        -1.63766
H         11.38965        10.09659        -1.85471
O         29.88827        11.78759        -0.94115
H         29.10274        11.20242        -0.87205
O         32.46387        10.18408         2.41260
H         33.31662         9.70540         2.50119
O         18.49755        16.27345         0.36600
H         17.66753        15.84811         0.05859
O         11.56523         4.72462        -2.40014
H         10.95311         4.91215        -3.14987
O          7.13508         3.10167        -3.78744
H          8.03134         3.37919        -4.09341
O          6.76353         2.79156        -0.16416
H          6.62980         2.00599         0.40582
O          6.03796         7.50555         0.21822
H          6.65624         6.82318         0.58454
O          3.38364        16.34042        -0.63281
H          3.78168        15.63097        -0.08110
O         38.15452        15.33015        -0.52008
H         38.29879        14.49975        -0.01778
O         14.69118        17.68019         3.94172
H         14.23656        16.95338         4.42820
H          1.17473         1.60500        -2.91979
H          1.17211         4.04030        -3.33798
H          3.26148         0.39946        -2.34766
H          1.14272         5.98693        -3.64797
H          1.04148         8.36900        -3.27472
H          1.12622        10.28099        -3.53246
H          1.10692        12.69950        -3.44806
H          1.06148        14.62020        -3.25135
H          1.12353        17.03173        -3.38859
H          2.14423        19.20715        -2.46791
H          5.58665         0.49430        -1.59676
H          4.00092        20.34399        -1.30500
H          8.18181         0.48595        -1.45102
H          6.45744        20.43276        -0.84869
H         10.63447         0.44384        -1.42999
H          8.89160        20.46471        -0.24500
H         12.77801         0.26611        -0.96676
H         11.30127        20.41562         0.61548
H         14.95056        -0.58013         0.82355
H         13.57866        20.33848         1.08081
H         17.42416        -0.10588         2.34590
H         15.99262        20.35738         1.35295
H         19.71665         0.17260         2.03254
H         18.43870        20.35008         1.63938
H         22.10055         0.23227         1.89683
H         20.84683        20.35253         1.77202
H         24.52511         0.26218         1.66665
H         23.30501        20.31370         1.77605
H         26.92673         0.25510         1.27039
H         25.62373        20.27054         1.26834
H         29.34353         0.21944         0.84728
H         27.90709        20.21073         0.50255
H         31.78097         0.19632         0.38125
H         30.18415        20.15239        -0.42171
H         34.18088         0.17967        -0.16353
H         32.45015        20.11916        -1.35321
H         36.54414         0.20179        -1.00310
H         35.33419        19.62005        -0.93242
H         38.87408         0.20021        -1.79931
H         36.77690        20.02146        -3.59235
H         40.93427         1.42744        -2.42366
H         42.13324         3.58744        -2.80708
H         42.12584         6.03770        -2.88116
H         42.02589         7.92844        -3.13269
H         41.93656        10.33932        -3.38284
H         41.73577        12.15753        -3.86827
H         41.57085        14.55582        -4.28675
H         41.60631        16.56083        -4.11310
H         39.11744        20.06620        -4.46204
H         41.34703        18.99635        -4.49041
