         264
 CSIRO Nanostructure Databank - Neutral Graphene Oxide Data Set
C        -11.25988         0.63337        -0.61845
C        -10.11319         1.51457        -0.17618
C         -8.84218         0.70634         0.05866
C         -7.49733         1.37050        -0.19710
C         -6.33075         0.73398         0.52949
C         -5.14845         1.39598         0.64267
C         -3.95974         0.80909         1.34694
C         -2.65834         1.56664         1.50984
C         -1.37040         0.82051         1.89735
C         -0.05987         1.63664         2.22482
C          1.22307         0.80023         1.92005
C          2.54083         1.56496         1.86988
C          3.84871         0.75012         1.70118
C          5.15332         1.47610         1.47974
C          6.42417         0.72613         1.13719
C          7.66107         1.45827         0.67493
C          8.75831         0.68842         0.01124
C          9.77815         1.41042        -0.76650
C         10.87987         0.78577        -1.51582
C         -9.85729         2.75630        -1.00514
C         -8.73665         3.47761        -0.81096
C         -7.58283         2.93942         0.04396
C         -6.22066         3.42956        -0.49150
C         -4.97801         2.70004        -0.05365
C         -3.65841         3.43100        -0.02214
C         -2.45545         2.84051         0.71000
C         -1.17652         3.62278         0.86306
C         -0.04756         3.12319         1.74568
C          1.25613         3.89053         1.68690
C          2.56105         3.07574         1.74650
C          3.81099         3.68102         1.12103
C          5.11498         2.93083         1.06740
C          6.43177         3.69546         0.98782
C          7.76552         2.98295         0.66141
C          8.34366         3.50002        -0.66345
C          9.57961         2.73217        -1.05238
C         -8.62329         4.88223        -1.38231
C         -7.37325         5.63295        -0.96537
C         -6.11142         4.84920        -0.98506
C         -4.79783         5.52167        -0.84031
C         -3.67773         4.87748        -0.37567
C         -2.42596         5.66720        -0.15429
C         -1.18927         5.08505         0.45882
C          0.11949         5.89565         0.42461
C          1.30148         5.33216         1.17022
C          2.65290         6.00809         1.24520
C          3.88831         5.18370         1.13298
C          5.08168         5.82489         0.49648
C          6.40953         5.15972         0.67827
C          7.53506         5.83418        -0.04401
C          8.67636         5.00553        -0.60658
C         -7.38073         6.96498        -0.73553
C         -6.12950         7.75385        -0.83777
C         -4.81428         6.99945        -1.01687
C         -3.57627         7.73368        -0.78029
C         -2.34628         6.90618        -1.03520
C         -1.05436         7.69845        -0.94443
C          0.23057         6.87622        -0.78340
C          1.43403         7.87244        -1.02260
C          2.75566         7.49683         1.06196
C          3.84027         8.07546         0.44060
C          5.05372         7.27121         0.16308
C          6.38169         8.01602         0.29484
C          7.49185         7.16399        -0.27133
C         -6.03747         9.12168        -0.29458
C         -4.84977         9.75453        -0.15497
C         -3.57651         9.10097        -0.44894
C         -2.36594         9.79238        -0.29201
C         -1.08292         9.17142        -0.61834
C          0.17335         9.85404        -0.25087
C          1.38786         9.28236        -0.48679
C          2.63491        10.03400        -0.39142
C          3.83115         9.44339        -0.05001
C          5.11392        10.07555        -0.34454
C          6.28700         9.41338        -0.26629
C        -11.18566        -0.68878        -0.84006
C         -9.88235        -1.44865        -0.90630
C         -8.80198        -0.77131        -0.09737
C         -7.43846        -1.44490        -0.07981
C         -6.48303        -0.73369         0.93374
C         -5.14654        -1.44716         0.88924
C         -3.90904        -0.69481         1.25594
C         -2.66613        -1.44043         1.62269
C         -1.35371        -0.68742         1.71088
C         -0.10819        -1.40393         1.29517
C          1.17944        -0.65094         1.48573
C          2.41880        -1.21399         0.83329
C          3.76604        -0.72551         1.31543
C          5.00920        -1.45895         0.85754
C          6.35046        -0.78146         0.98141
C          7.60436        -1.49986         0.56281
C          8.79049        -0.65993         0.24895
C         10.14261        -1.53147        -1.31293
C         10.99653        -0.51001        -1.89882
C         -9.91766        -2.93026        -0.62290
C         -8.80780        -3.61275        -0.23462
C         -7.55946        -2.94545         0.15684
C         -6.46220        -3.63608         0.57897
C         -5.25327        -2.93580         1.09288
C         -3.96939        -3.68741         1.27795
C         -2.66550        -2.91728         1.42890
C         -1.42723        -3.47788         0.80026
C         -0.15039        -2.68345         0.80839
C          0.99174        -3.29113        -0.02527
C          2.35157        -2.55119         0.17267
C          3.61922        -3.29925        -0.19247
C          4.97150        -2.69445         0.00160
C          6.12078        -3.37769        -0.33858
C          7.55339        -2.94213         0.00850
C          8.47612        -3.36767        -1.15385
C          9.42044        -2.52180        -1.89116
C         -8.85698        -5.13106        -0.14305
C         -7.48155        -5.73099        -0.33170
C         -6.46227        -5.16094         0.64985
C         -5.06222        -5.75182         0.48619
C         -3.93006        -5.11730         0.86998
C         -2.59926        -5.82363         1.06943
C         -1.42674        -4.96135         0.58217
C         -0.11809        -5.67856         0.41384
C          1.09216        -4.85319         0.11606
C          2.42431        -5.51586         0.33511
C          3.57533        -4.80384        -0.28806
C          4.83886        -5.56810        -0.53925
C          6.08330        -4.78440        -0.82178
C          7.35458        -5.53452        -1.05841
C          8.39104        -4.66521        -1.57531
C         -7.24167        -6.79595        -1.11972
C         -5.85667        -7.39069        -1.21997
C         -5.13204        -7.21893         0.14522
C         -3.77827        -7.86940         0.03036
C         -2.53420        -7.17412         0.39703
C         -1.27839        -7.99430         0.65762
C         -0.03872        -7.10834         0.89526
C          1.26357        -7.82984         0.78311
C          2.51207        -6.99450         0.58496
C          3.79584        -7.74634         0.35031
C          5.01799        -6.96797        -0.04189
C          6.27725        -7.68110        -0.46804
C          7.35140        -6.89990        -1.13495
C         -5.80551        -8.84053        -1.66103
C         -4.76061        -9.64971        -1.42379
C         -3.56851        -9.26318        -0.58423
C         -2.33754        -8.68368        -1.41638
C         -1.07359        -8.77070        -0.63695
C          0.10436        -9.38544        -0.84157
C          1.17583        -9.29788         0.27416
C          2.47544        -9.84176        -0.24729
C          3.76522        -9.24649        -0.00110
C          4.99611        -9.81762        -0.60057
C          6.15015        -9.13249        -0.73721
O         -1.53409        -8.85298         1.74119
O         -3.64589         1.53668         2.57362
O         -2.61354        -2.36044         2.76454
O          4.25601         3.08017        -0.12852
O          4.72984         1.07610         2.80656
O         -4.01417         2.56483        -1.14867
O         -6.82480        -1.31687        -1.39177
H         -7.52154        -1.54416        -2.05512
O          3.99721        -8.72340         1.37715
O          3.45278         5.66201         2.44076
O          0.33900         6.25226         1.81411
O          4.41269        -1.67104         2.19483
O          7.48837         1.05916         2.07988
O         -5.08883        -6.61467        -2.18325
H         -5.63123        -6.50783        -2.99211
O          0.67748        -7.50595         2.08106
O         -5.53957         7.56219        -2.16872
O         -0.99896         8.64303        -2.04244
O          1.37268        -0.29664         2.88400
O         -9.41069        -1.33142        -2.30452
H        -10.14275        -1.61789        -2.89113
O          8.17452        -5.06696         1.06249
H          7.44657        -5.50605         1.57536
O          9.96995        -1.37393         0.07420
O          5.21982        -5.26528        -1.92038
O          0.30018         5.95001        -1.88149
H          1.06557         6.23279        -2.44431
O          2.23992         7.53615        -1.87295
O         -0.05949         1.78276         3.64383
H         -0.03661         0.88294         4.04050
O          6.09580        -7.18193         0.92299
O         -2.14982         5.87132         1.25834
O          7.96309        -3.66733         1.27340
O         -6.86107        -5.60744         1.93142
O          4.90324         6.26541        -0.89436
O         -7.77915         3.18942         1.37040
O         -1.33834         2.68366        -0.24325
O         -4.85570        -3.41639         2.40572
O          7.18927        -1.45698         1.96077
O         -9.09665        -0.17917         1.19819
O          0.59944        -3.03039        -1.37629
H          1.31711        -3.35655        -1.96371
O          0.40505         3.92403         2.85704
O          6.61798         4.68792         2.04728
O         -3.24062       -10.28860         0.29998
H         -2.59935        -9.93237         0.99967
O         -2.81835        -7.23380        -1.10946
O         -5.84476        -7.90585         1.17557
H         -6.34588        -7.20915         1.70568
O         -4.24172        -1.04511        -0.16240
O          2.71670         2.44187         3.02553
O          0.39055        -5.55842        -0.96000
O         -8.60185         4.80782        -2.81466
H         -7.79327         4.30118        -3.05911
O         -6.90263        -0.88277         2.28678
H         -7.81967        -0.52488         2.37595
O          2.70241        -6.00467         1.66735
O         -6.19472         3.71224        -1.91134
O         -1.76414        -4.07217        -0.50479
O         -1.46686        -0.07331         3.03520
O          0.75730       -10.14719         1.34722
H         -0.08731        -9.73658         1.73387
O          1.85818         8.27150         1.71628
H          1.19307         7.70125         2.17826
O          7.31231         3.26983        -1.65455
H          7.62478         3.60195        -2.52195
O          6.62326         8.17226         1.72261
H          6.85880         7.29775         2.10036
O          2.32688        -1.28764        -0.61034
O        -10.49143         2.04470         1.12564
H         -9.68848         2.49606         1.49316
O         -7.28191         1.26223        -1.61225
H         -6.74312         0.44892        -1.78840
O          3.28395        -3.97976        -1.45083
O          8.71908         3.31772         1.68075
H          8.45446         2.83635         2.49777
O          9.87086         5.21625         0.14562
H          9.75849         4.75589         1.01067
O         -9.80839        -5.66250        -1.06209
H         -9.54990        -5.39351        -1.96670
O         -2.41113        -6.09894         2.46975
H         -2.17883        -7.05170         2.60548
O         -2.44975         6.41852        -2.39197
H         -2.19638         7.15943        -2.98602
H         11.74853        -0.79076        -2.65167
H         11.56568         1.51092        -1.98292
H         10.30557         3.25242        -1.69673
H          8.88476         5.35558        -1.65398
H          8.30647         7.64585        -0.83440
H          7.22434         9.91843        -0.54519
H          5.09241        11.10716        -0.72805
H          2.61161        11.09551        -0.68085
H          0.10929        10.89035         0.11205
H         -2.37167        10.83094         0.06936
H         -4.81416        10.78265         0.23339
H         -6.96865         9.61865         0.01514
H         -8.33296         7.51621        -0.68683
H         -9.52818         5.47716        -1.09553
H        -10.69287         3.18469        -1.58142
H        -12.24814         1.11944        -0.64429
H        -12.10157        -1.24583        -1.09752
H        -10.82372        -3.49883        -0.88822
H         -9.19691        -5.41291         0.88835
H         -8.05371        -7.22870        -1.72829
H         -6.65590        -9.22627        -2.24639
H         -4.77752       -10.68983        -1.78249
H         -2.30056        -8.81816        -2.51598
H          0.28355       -10.02402        -1.72133
H          2.43580       -10.76688        -0.84284
H          4.95352       -10.87332        -0.90831
H          7.02135        -9.63555        -1.18355
H          8.24622        -7.43777        -1.47912
H          9.09857        -5.05083        -2.32398
H          9.57724        -2.76555        -2.95208
