         630
 CSIRO Nanostructure Databank - Neutral Graphene Oxide Data Set
C         23.06202        27.54705         1.15846
C         23.00462        28.87770         0.84195
C         23.02109        31.88065         0.85698
C         23.08028        33.25839         0.90389
C         23.17249        36.15636         1.21560
C         23.22343        37.51897         1.39742
C         23.35264        40.39549         1.93042
C         23.41587        41.74965         2.16657
C         23.59040        44.62594         2.76754
C         23.67534        45.98451         2.99155
C         25.47378        24.70552         1.25824
C         24.33264        25.39423         1.47119
C         25.58722        27.56112         1.14644
C         24.31996        26.88340         1.67963
C         25.47951        28.98550         0.72891
C         24.17689        29.68249         0.72568
C         25.40845        31.80731         0.34952
C         24.19265        31.10720         0.61839
C         25.49059        33.21974         0.46069
C         24.29958        33.96427         0.75540
C         25.57393        36.09281         0.83813
C         24.34815        35.40422         0.93259
C         25.65305        37.49503         1.10388
C         24.45441        38.22552         1.36501
C         25.76255        40.31997         1.51832
C         24.51775        39.64270         1.60750
C         25.81440        41.74334         1.68036
C         24.63725        42.46550         2.04765
C         25.94034        44.56370         2.07649
C         24.71020        43.88113         2.30003
C         26.03209        45.97111         2.30498
C         24.88549        46.68747         2.75868
C         26.14447        48.77058         2.68383
C         24.98027        48.09491         2.95975
C         28.07510        23.30994         1.49050
C         27.93919        24.60116         0.90987
C         26.74335        25.33959         0.94905
C         27.85464        27.38900         0.11890
C         26.75114        26.75574         0.66258
C         27.81398        28.81287        -0.31808
C         26.54543        29.58123        -0.13305
C         27.92042        31.76196        -0.26069
C         26.57481        31.07695        -0.18278
C         27.98656        33.18659         0.13631
C         26.75553        33.88849         0.32136
C         28.12926        36.01379         0.69551
C         26.78100        35.34987         0.43586
C         28.16033        37.39299         1.24958
C         26.91238        38.17668         1.18008
C         28.23689        40.27141         1.20130
C         26.97424        39.57372         1.32786
C         28.24221        41.69473         1.13467
C         27.03619        42.43301         1.44558
C         28.27775        44.56180         1.29524
C         27.07963        43.85040         1.58637
C         28.37427        45.92547         1.57025
C         27.26111        46.66036         2.07843
C         28.48679        48.81380         1.85593
C         27.31761        48.09040         2.22733
C         28.44657        50.20670         1.54827
C         30.50031        23.26571         1.06083
C         29.29243        22.66327         1.52865
C         30.45178        24.56728         0.49820
C         29.13122        25.17104         0.26238
C         30.35215        27.34383        -0.36004
C         29.07566        26.63100        -0.20457
C         30.29145        28.76296        -0.88520
C         29.08268        29.55617        -0.46688
C         30.42351        31.61077        -0.26604
C         29.15975        30.93338        -0.30898
C         30.51804        32.95946         0.41294
C         29.23990        33.77711         0.33745
C         30.69780        35.89041         0.79411
C         29.32180        35.14441         0.82954
C         30.70595        37.35481         0.75973
C         29.51597        38.10747         1.21916
C         30.63544        40.26005         0.67019
C         29.46708        39.57496         1.03309
C         30.62454        41.67293         0.51486
C         29.43132        42.37836         0.78844
C         30.69817        44.54649         0.52195
C         29.35856        43.85803         0.51547
C         30.79774        45.90427         0.76748
C         29.68478        46.59205         1.46005
C         30.97678        48.80871         1.18534
C         29.75233        48.08391         1.66524
C         30.86881        50.31351         0.97042
C         29.53009        50.91060         1.09766
C         33.03299        20.54708         1.61692
C         31.84897        21.24346         1.62041
C         32.93756        23.20156         0.62784
C         31.76460        22.57298         1.11378
C         32.88912        24.57726         0.17256
C         31.62501        25.25887         0.12052
C         32.79251        27.34130        -0.63072
C         31.56392        26.64899        -0.30794
C         32.76621        28.74373        -0.88817
C         31.59083        29.50217        -0.76827
C         32.85792        31.65589        -0.66913
C         31.61871        30.92731        -0.59648
C         32.92607        33.04597        -0.42454
C         31.76499        33.75339         0.03547
C         33.01597        35.87757        -0.10844
C         31.83093        35.13564         0.23175
C         33.00306        37.29928        -0.07607
C         31.84935        38.03218         0.32218
C         33.02521        40.26649        -0.10759
C         31.95143        39.52412         0.64687
C         33.01727        41.64867        -0.25628
C         31.82444        42.38805         0.10067
C         33.02288        44.51907        -0.30247
C         31.84385        43.79448         0.09545
C         33.02924        45.92479        -0.25124
C         31.96604        46.64903         0.35745
C         33.13504        48.81081        -0.07873
C         32.02972        48.06784         0.46972
C         33.10357        50.25583        -0.15768
C         31.93235        50.97928         0.18548
C         32.91630        53.04252        -0.64803
C         31.83538        52.34769        -0.12555
C         35.51901        19.01268         1.38951
C         35.46281        20.39574         1.06467
C         34.22807        21.13510         1.12102
C         35.38342        23.09690         0.20103
C         34.18245        22.47851         0.64615
C         35.31881        24.43588        -0.49090
C         34.06588        25.23867        -0.22582
C         35.24970        27.29144        -0.92360
C         34.04592        26.62695        -0.60053
C         35.25248        28.66582        -1.43864
C         33.98216        29.44649        -1.33815
C         35.36064        31.62909        -1.14696
C         34.04096        30.96061        -1.20256
C         35.39939        33.02991        -0.91760
C         34.17795        33.76142        -0.59538
C         35.53393        35.87496        -0.28856
C         34.21052        35.14927        -0.42192
C         35.47154        37.32677        -0.69716
C         34.13664        38.03657        -0.75390
C         35.45874        40.23345        -0.82463
C         34.25273        39.49641        -0.34460
C         35.40294        41.68431        -1.08325
C         34.18376        42.38357        -0.75568
C         35.33965        44.53512        -1.22188
C         34.16501        43.79335        -0.79591
C         35.37108        45.91159        -1.17551
C         34.08349        46.67409        -1.01244
C         35.37534        48.82157        -1.11550
C         34.23009        48.12339        -0.63982
C         35.35822        50.23953        -1.16031
C         34.21665        50.95762        -0.73731
C         35.32348        53.14942        -1.21578
C         34.14526        52.39676        -0.89354
C         35.37468        54.53990        -1.29139
C         37.90897        18.92624         0.90124
C         36.69548        18.30300         1.29703
C         37.89228        20.31559         0.60164
C         36.66002        21.04534         0.65875
C         37.85983        23.09761        -0.06042
C         36.61669        22.42372         0.26640
C         37.86944        24.47940        -0.34064
C         36.58834        25.22560        -0.26321
C         37.80438        27.35796        -0.98360
C         36.54652        26.67879        -0.61239
C         37.83143        28.70440        -1.25489
C         36.55989        29.42961        -1.50638
C         37.80636        31.56595        -1.40543
C         36.55139        30.89911        -1.34733
C         37.82339        32.98748        -1.37081
C         36.64109        33.71167        -1.07799
C         37.83522        35.85116        -1.27018
C         36.69939        35.15734        -0.93580
C         37.87949        37.29992        -1.22248
C         36.61415        37.99520        -1.03091
C         37.83370        40.17284        -1.68124
C         36.56997        39.43297        -1.40795
C         37.81217        41.65631        -1.66247
C         36.55344        42.33925        -1.53690
C         37.74259        44.53608        -2.06964
C         36.41521        43.78315        -1.97736
C         37.77841        45.97606        -1.80109
C         36.56388        46.67231        -1.51128
C         37.74311        48.78248        -2.09346
C         36.54182        48.07460        -1.51269
C         37.79426        50.25242        -1.80972
C         36.47365        50.99180        -1.86151
C         37.76361        53.16763        -1.87553
C         36.62386        52.39039        -1.23588
C         37.80755        54.64401        -1.70577
C         36.57523        55.26373        -1.45710
C         40.37352        16.08670         1.09054
C         39.18964        16.78708         1.10878
C         40.34601        18.84834         0.46108
C         39.14862        18.18366         0.81649
C         40.33609        20.26235         0.17713
C         39.10932        20.98453         0.24293
C         40.31966        23.07490        -0.28544
C         39.09490        22.38343        -0.04836
C         40.31500        24.47157        -0.57111
C         39.06987        25.15466        -0.62548
C         40.35174        27.28607        -1.29342
C         39.02886        26.54716        -1.10595
C         40.33630        28.75531        -1.31965
C         39.07493        29.43778        -1.41175
C         40.30591        31.54378        -1.91946
C         39.03796        30.83222        -1.52916
C         40.28230        33.01937        -1.64958
C         39.08428        33.68569        -1.55115
C         40.30902        35.87498        -1.75993
C         39.00235        35.14340        -1.89903
C         40.29159        37.27884        -1.71951
C         39.05329        37.98630        -1.48791
C         40.36776        40.17500        -1.81596
C         39.12379        39.47888        -1.30656
C         40.30235        41.62644        -1.78429
C         39.03515        42.31778        -1.79616
C         40.29911        44.52909        -1.73494
C         39.06287        43.78160        -2.01399
C         40.28119        45.94662        -1.72427
C         39.02928        46.66278        -1.79748
C         40.24721        48.79449        -1.65553
C         39.03919        48.07559        -1.80455
C         40.25620        50.21888        -1.71697
C         38.99849        50.91662        -1.83314
C         40.33412        53.09377        -2.10109
C         39.01802        52.38084        -2.07691
C         40.31657        54.60635        -2.08289
C         39.04517        55.34524        -1.83707
C         40.33603        57.43405        -1.54729
C         39.12807        56.74164        -1.66449
C         42.82761        16.02237         0.79957
C         41.59792        16.73946         0.79088
C         42.81711        18.78083         0.16809
C         41.59406        18.12942         0.46118
C         42.79864        20.16876        -0.43026
C         41.54256        20.94512        -0.12224
C         42.79874        23.06693        -0.37070
C         41.55726        22.35034        -0.27020
C         42.80076        24.47636        -0.53160
C         41.56319        25.18459        -0.70675
C         42.79687        27.32183        -0.87092
C         41.58996        26.58087        -0.92980
C         42.79304        28.74506        -1.05261
C         41.55954        29.45450        -1.26201
C         42.77981        31.59208        -1.47890
C         41.58364        30.87877        -1.46707
C         42.78188        33.04622        -1.68862
C         41.54733        33.72639        -1.72858
C         42.75847        35.85043        -2.03202
C         41.53481        35.14954        -1.81800
C         42.58345        37.21095        -2.39092
C         41.48966        38.00597        -2.01607
C         42.85684        40.21880        -2.01711
C         41.54628        39.47078        -2.02726
C         42.79230        41.68222        -1.69362
C         41.48518        42.37200        -1.66476
C         42.74420        44.49076        -1.33642
C         41.50349        43.79694        -1.54665
C         42.81960        45.96456        -1.65998
C         41.49548        46.68219        -1.55841
C         42.68812        48.82167        -1.14851
C         41.48284        48.07800        -1.47290
C         42.66755        50.21893        -1.08348
C         41.47128        50.95531        -1.48346
C         42.57370        53.11314        -0.84475
C         41.51237        52.34852        -1.59751
C         42.80785        54.53967        -1.30081
C         41.61263        55.32511        -1.79458
C         42.76539        57.40505        -1.10147
C         41.57627        56.76874        -1.51218
C         44.01245        16.66510         0.54558
C         45.28750        18.76081         0.13731
C         44.04295        18.06689         0.25225
C         45.26362        20.23238         0.21725
C         44.04240        20.96010        -0.12619
C         45.28812        23.09042        -0.22231
C         44.04198        22.35261        -0.19362
C         45.27673        24.49655        -0.44946
C         44.03392        25.20112        -0.55080
C         45.25590        27.34686        -0.66419
C         44.03585        26.62315        -0.68449
C         45.25050        28.77815        -0.81476
C         44.01293        29.47016        -1.02902
C         45.24474        31.58783        -1.24242
C         44.02489        30.89104        -1.23947
C         45.26976        33.01434        -1.64487
C         44.01210        33.77956        -1.75829
C         45.30868        35.93739        -1.70810
C         44.04767        35.19117        -1.92171
C         45.37369        37.38276        -1.58860
C         44.39077        38.26423        -2.09554
C         45.19256        40.18805        -0.90645
C         44.13171        39.53915        -1.61300
C         45.15213        41.61733        -0.69196
C         43.81922        42.31422        -0.76942
C         45.11872        44.49968        -0.69448
C         43.90791        43.80474        -0.99707
C         45.10384        45.93793        -0.61568
C         43.94021        46.67295        -0.94305
C         44.98321        48.79088        -0.24074
C         43.88544        48.09045        -0.78540
C         45.00475        50.22005        -0.21049
C         43.84878        50.94658        -0.66376
C         45.00949        53.07376        -0.22155
C         43.85598        52.35378        -0.62684
C         45.01058        54.51640        -0.14778
C         43.91721        55.27406        -0.65933
C         43.89165        56.68307        -0.70359
C         47.74271        18.75943        -0.03134
C         46.54426        18.10438         0.01037
C         47.91487        20.22970         0.26244
C         46.58369        20.99410         0.23434
C         47.71795        23.07960        -0.54392
C         46.53530        22.40925        -0.19128
C         47.74462        24.50094        -0.65347
C         46.50721        25.20843        -0.56319
C         47.72924        27.33895        -0.58742
C         46.50499        26.63836        -0.60709
C         47.70724        28.80895        -0.27898
C         46.45874        29.50168        -0.75620
C         47.71088        31.61930        -0.84327
C         46.47421        30.90871        -0.95197
C         47.66595        33.10781        -0.66874
C         46.55311        33.78117        -1.44734
C         47.69461        35.93587        -0.96966
C         46.48959        35.25260        -1.35322
C         47.67748        37.33176        -0.74334
C         46.46020        38.05243        -0.96107
C         47.54455        40.10992        -0.07882
C         46.37515        39.44499        -0.67508
C         47.50820        41.62629         0.06393
C         46.28445        42.33621        -0.34856
C         47.49460        44.48087        -0.00814
C         46.29912        43.78536        -0.34285
C         47.46321        45.90743         0.13479
C         46.26143        46.60134        -0.11206
C         47.38166        48.74450         0.71804
C         46.14022        48.02045         0.24585
C         47.36708        50.26217         0.84329
C         46.15791        50.93862         0.20247
C         47.40214        53.06499         0.50016
C         46.18591        52.34330         0.14807
C         47.30922        54.47646         0.68786
C         46.15925        55.16572         0.39174
C         50.20465        20.22840        -0.78931
C         49.01071        20.88099        -0.56238
C         50.23752        23.07951        -1.16381
C         48.91095        22.29465        -0.90376
C         50.23733        24.53015        -0.89501
C         48.98107        25.21870        -0.75120
C         50.19647        27.37791        -0.58240
C         48.97133        26.64885        -0.63525
C         50.19981        28.80228        -0.63197
C         48.97912        29.52165        -0.63169
C         50.20241        31.65568        -0.80140
C         48.95397        30.93455        -0.74039
C         50.19622        33.09767        -0.85820
C         48.98559        33.80732        -0.86918
C         50.16869        35.96797        -0.76842
C         48.95224        35.22735        -0.86592
C         50.11837        37.37312        -0.60335
C         48.88663        38.05520        -0.47896
C         50.03922        40.21216        -0.01971
C         48.85893        39.45942        -0.20575
C         50.00957        41.65003         0.17202
C         48.78142        42.36107         0.12242
C         49.95395        44.49887         0.38475
C         48.73988        43.77383         0.16754
C         49.92853        45.92075         0.52391
C         48.68069        46.62966         0.45606
C         49.88994        48.75830         0.77250
C         48.66730        48.02868         0.61784
C         49.88992        50.18229         0.78765
C         48.64796        50.90033         0.30634
C         49.85546        53.03555         0.89053
C         48.62694        52.38238         0.61096
C         51.41166        20.92636        -1.04559
C         52.71231        23.04211        -0.84276
C         51.47851        22.31513        -1.03160
C         52.70356        24.47133        -0.81505
C         51.45476        25.19467        -0.77949
C         52.70613        27.40381        -0.79003
C         51.48272        26.63992        -0.33678
C         52.68450        28.77430        -0.86586
C         51.44203        29.52862        -0.74289
C         52.69506        31.69474        -1.11801
C         51.42182        30.93367        -0.81747
C         52.66096        33.13864        -0.69774
C         51.44271        33.83193        -0.78291
C         52.65079        35.95413        -0.54116
C         51.43294        35.26509        -0.71363
C         52.68446        37.42842        -0.60149
C         51.34382        38.17324        -0.61254
C         52.51067        40.24271         0.11054
C         51.30823        39.56257        -0.14224
C         52.48967        41.66164         0.33557
C         51.23217        42.37072         0.30246
C         52.40547        44.53190         0.63015
C         51.19424        43.79450         0.45366
C         52.38643        45.92076         0.84856
C         51.13836        46.62934         0.78162
C         52.31639        48.76725         1.24751
C         51.11761        48.04725         0.91933
C         52.27049        50.18443         1.40458
C         51.06021        50.89851         1.08380
C         51.02331        52.33569         1.08726
C         55.10452        23.05705        -0.40932
C         53.93693        22.36303        -0.64961
C         55.13453        24.47585        -0.45281
C         53.93234        25.17190        -0.71380
C         55.20552        27.33419        -0.57955
C         53.97776        26.63000        -1.09860
C         55.26107        28.78569        -0.73823
C         53.95953        29.53755        -0.99831
C         55.10093        31.64897        -0.32316
C         53.94868        30.97502        -0.69593
C         55.07822        33.09367        -0.14078
C         53.86456        33.81686        -0.37496
C         55.06083        35.93628         0.06093
C         53.86070        35.24786        -0.27938
C         55.16163        37.43481        -0.11193
C         53.83819        38.15172        -0.07617
C         54.95558        40.23421         0.59216
C         53.76954        39.52145         0.16949
C         54.92939        41.63194         0.69022
C         53.70956        42.35056         0.50959
C         54.96258        44.60204         0.84348
C         53.69084        43.82617         0.49576
C         54.81278        45.97391         1.33248
C         53.60143        46.64083         1.19916
C         54.67616        48.76098         1.96281
C         53.53420        48.06543         1.46157
C         54.57923        50.16556         2.17762
C         53.43107        50.85776         1.86988
C         57.56548        24.53034         0.14523
C         56.36247        25.19858        -0.17226
C         57.53971        27.36301         0.19847
C         56.34623        26.63677        -0.17190
C         57.54565        28.79126         0.24206
C         56.39225        29.53118        -0.17153
C         57.48099        31.63514         0.45617
C         56.33144        30.92540        -0.03317
C         57.43381        33.05445         0.62088
C         56.22602        33.78154         0.30635
C         57.36270        35.90852         0.96604
C         56.20890        35.21515         0.42154
C         57.31561        37.32218         1.20498
C         56.19595        38.09376         0.76083
C         57.22244        40.14179         1.64773
C         56.14046        39.47443         0.96293
C         57.21305        41.55402         1.79623
C         56.18394        42.33368         1.07079
C         57.16678        44.45304         2.14791
C         56.20784        43.83512         1.19685
C         57.07897        45.82753         2.42473
C         56.09593        46.69812         1.66973
C         56.85932        48.59132         3.13519
C         55.86926        48.04717         2.29645
C         58.71008        25.22562         0.49518
C         59.87926        27.36126         0.94531
C         58.71366        26.64598         0.54635
C         59.87054        28.73382         1.02015
C         58.70866        29.48473         0.67766
C         59.81298        31.65361         1.19698
C         58.67439        30.92202         0.77026
C         59.76070        33.01918         1.36232
C         58.57042        33.74620         1.10651
C         59.57168        35.84758         2.00737
C         58.50643        35.17500         1.34913
C         59.50213        37.19249         2.29130
C         58.38002        37.96484         1.89529
C         59.34070        40.06568         2.85256
C         58.31769        39.38474         2.14571
C         59.28496        41.42824         3.05337
C         58.22982        42.21289         2.51679
C         59.10099        44.28441         3.62015
C         58.17720        43.65529         2.75040
C         59.02666        45.63780         3.88901
C         58.01808        46.43620         3.29756
C         57.92368        47.83219         3.59537
O         35.31907        39.83604         0.59875
O         30.12365        35.31425         2.03191
O         47.29678        40.73899         1.22770
O         35.92457        28.88883        -2.72564
O         38.45204        44.17994        -3.31038
O         27.07541        31.58966        -1.45233
O         36.56009        26.18127         0.83096
O         54.84361        29.19934        -2.12192
O         31.44179        49.75025         2.20821
O         26.79362        28.95319        -1.41221
O         33.75169        30.30050        -2.49473
O         46.23977        33.24261        -2.75265
O         56.80754        43.18780         0.03147
O         37.01230        39.66082        -2.78114
O         39.64939        26.68182        -2.43675
O         54.55154        44.41928        -0.54661
O         28.91952        37.60975         2.46902
O         52.13693        37.99102        -1.84023
O         26.02304        28.64048         2.07272
O         43.13865        41.24502        -3.04230
O         49.37634        22.64028        -2.24915
O         38.14768        52.73469        -3.22181
O         28.89392        25.52170        -1.14653
O         46.45216        48.18288         1.70648
O         42.67080        54.87244        -2.70299
O         43.59095        37.80558        -3.14199
O         27.57081        36.00609        -0.64461
O         30.08921        47.16111         2.76142
O         45.85983        20.76929         1.48130
O         40.44960        53.86972        -3.34301
O         52.76294        31.72175        -2.59129
H         53.61266        32.14176        -2.84371
O         30.09599        28.57901        -2.34745
H         30.91672        28.17964        -2.70888
O         48.60727        50.73587        -1.14372
H         49.40195        51.16932        -1.51958
O         47.63942        28.88330         1.21731
H         46.82342        28.40799         1.48637
O         51.62027        26.56131         1.14698
H         51.31562        27.41958         1.51309
O         43.21697        42.12476         0.56186
H         43.84644        42.47782         1.22629
O         32.42228        39.53495         2.04363
H         31.74897        39.07363         2.58883
O         43.18043        46.01973        -3.09397
H         42.48761        45.53265        -3.59008
O         39.19069        39.68980         0.15394
H         40.05015        39.34046         0.47191
O         48.40011        20.30525         1.64046
H         47.60159        20.23225         2.21426
O         35.80023        35.86337         1.16212
H         36.42922        36.59015         1.35808
O         35.31995        24.14975        -1.93294
H         34.51153        23.63461        -2.13913
O         36.07150        51.09587        -3.25374
H         36.74943        51.67208        -3.69327
O         37.00613        52.15991         0.15476
H         36.78415        52.96260         0.67141
O         35.88642        43.71492        -3.33958
H         36.66601        43.59730        -3.93204
O         33.55006        46.74379        -2.40199
H         33.62539        45.84405        -2.78978
O         28.92284        43.96350        -0.89913
H         28.08343        43.46208        -0.98296
O         47.29582        33.33348         0.74325
H         47.94799        32.85809         1.30076
O         40.33962        31.46054        -3.40286
H         40.28408        30.50990        -3.64253
O         38.70645        35.13960        -3.34827
H         39.37516        34.56864        -3.78502
O         56.72328        46.97613         0.36050
H         56.74114        46.13451        -0.14605
O         54.09923        26.61626        -2.56572
H         54.32512        27.54343        -2.83234
O         55.64492        37.59988        -1.50107
H         55.60609        38.55655        -1.71613
O         41.98114        53.29583         0.50475
H         41.98069        52.42134         0.95034
O         42.79777        19.96655        -1.90193
H         41.94862        19.53436        -2.13558
O         37.54325        48.70970        -3.55929
H         36.82205        49.35394        -3.77108
O         47.31269        50.56763         2.25654
H         46.72931        49.88828         2.66662
O         24.27258        27.07451         3.12532
H         24.78628        27.89911         3.30352
O         33.75375        38.10429        -2.16868
H         33.76067        37.19480        -2.53514
O         30.67822        32.63011         1.84459
H         30.65034        33.49433         2.32693
H         22.12583        26.97360         1.23214
H         22.02422        29.33618         0.64122
H         22.06172        31.37471         1.02891
H         22.15008        33.80666         1.09992
H         22.19634        35.65904         1.27213
H         22.28496        38.05615         1.58526
H         22.37975        39.89466         2.01509
H         22.49195        42.28023         2.43132
H         22.63581        44.11868         2.96004
H         22.79619        46.53872         3.35074
H         25.43401        23.60657         1.22704
H         23.39041        24.85412         1.64689
H         26.18267        49.85584         2.84913
H         24.09989        48.64045         3.32912
H         27.19790        22.82144         1.93656
H         27.48205        50.73028         1.60979
H         29.32667        21.66401         1.98113
H         29.38099        51.95131         0.77948
H         33.04351        19.52349         2.01314
H         30.95363        20.74844         2.01691
H         32.81728        54.12289        -0.81687
H         30.91465        52.90108         0.10122
H         34.61025        18.48165         1.70122
H         34.44947        55.12479        -1.19053
H         36.67821        17.23370         1.54362
H         36.51319        56.35958        -1.41092
H         40.38401        15.01220         1.32342
H         38.26591        16.25050         1.36036
H         40.31159        58.51879        -1.36822
H         38.19991        57.32170        -1.56549
H         42.81710        14.94872         1.03655
H         42.76796        58.49944        -0.99098
H         44.95353        16.10166         0.59946
H         44.75343        57.25340        -0.33034
H         48.65696        18.15775        -0.12778
H         46.55175        17.01191        -0.11751
H         48.17972        55.03735         1.05310
H         46.14855        56.25440         0.53444
H         50.28540        19.14961        -0.59761
H         49.88511        54.13085         0.97483
H         52.33534        20.33233        -1.06431
H         51.94226        52.90086         1.28842
H         56.02290        22.48772        -0.21825
H         53.96553        21.26575        -0.65481
H         55.45176        50.72199         2.54449
H         53.41682        51.94528         2.01753
H         57.60901        23.43369         0.12675
H         56.76083        49.62478         3.49642
H         59.62949        24.67934         0.74947
H         60.78601        26.79808         1.20848
H         60.78214        29.24928         1.34890
H         60.75614        31.13489         1.41021
H         60.66776        33.53984         1.69408
H         60.46190        35.29216         2.32835
H         60.34162        37.66392         2.81825
H         60.19584        39.51080         3.25961
H         60.10005        41.90487         3.61240
H         59.89362        43.69908         4.10319
H         59.75458        46.10631         4.56663
H         58.66880        48.28110         4.26725
