         429
 CSIRO Nanostructure Databank - Neutral Graphene Oxide Data Set
C          1.70687         3.78003        -2.90675
C          0.50682         4.49912        -3.07913
C          1.40916         6.38983        -1.72329
C          0.36516         5.78917        -2.62379
C          1.40874         7.90251        -1.63172
C          0.24005         8.63674        -1.77968
C          1.34743        10.70230        -1.09610
C          0.21859        10.02515        -1.55182
C          1.33443        12.14750        -0.83692
C          0.21354        12.93960        -1.26520
C          1.22209        14.98288        -0.39617
C          0.18231        14.30572        -1.06563
C          1.21317        16.39322        -0.20388
C          0.03706        17.16469        -0.44505
C          1.17291        19.20605         0.24454
C          0.00830        18.51329        -0.19382
C          1.13457        20.61571         0.52679
C         -0.08272        21.34472         0.56482
C          1.09849        23.42169         1.08064
C         -0.09598        22.69245         0.86627
C          0.97901        24.89992         1.46808
C         -0.11752        25.63822         0.73695
C          1.12868        27.76312         0.68842
C         -0.07032        26.96717         0.49620
C          1.14094        29.19427         0.51890
C         -0.05647        29.93911         0.36123
C          1.16677        32.05656         0.37762
C         -0.04176        31.31952         0.29678
C          1.18706        33.50188         0.32202
C         -0.00844        34.26575         0.22477
C          1.24742        36.35022         0.18627
C          0.01807        35.64511         0.16419
C          1.29026        37.77941         0.10816
C          4.13003         3.82266        -2.51436
C          2.88169         4.44066        -2.43175
C          3.92475         6.49785        -1.52478
C          2.77865         5.80525        -1.96831
C          3.82381         7.86355        -1.07563
C          2.59331         8.57334        -1.20342
C          3.69704        10.59939        -0.31176
C          2.55231         9.96367        -0.86967
C          3.56182        11.96013         0.32452
C          2.40732        12.76040        -0.21719
C          3.62992        14.90430         0.35399
C          2.30551        14.18119         0.27125
C          3.62281        16.31218         0.42110
C          2.39988        17.06172         0.22900
C          3.60007        19.18009         0.72892
C          2.38817        18.47571         0.39621
C          3.56544        20.57367         0.90373
C          2.34294        21.30429         0.83574
C          3.59165        23.42566         1.17428
C          2.32034        22.72397         1.08328
C          3.60577        24.89593         1.27835
C          2.30616        25.66063         1.37889
C          3.57740        27.74413         0.83411
C          2.32526        27.08389         0.97257
C          3.60990        29.19013         0.71171
C          2.37509        29.90814         0.58844
C          3.63920        32.03733         0.56783
C          2.39180        31.33514         0.51280
C          3.66561        33.45951         0.47489
C          2.43298        34.18874         0.36232
C          3.70869        36.31470         0.29093
C          2.46179        35.61517         0.28394
C          3.72880        37.74196         0.19372
C          2.48434        38.45102         0.11087
C          6.47261         3.72834        -1.72885
C          5.39167         4.58787        -2.29310
C          6.27795         6.44187        -0.82297
C          5.19703         5.85360        -1.50466
C          6.15788         7.77268        -0.34887
C          4.97550         8.51983        -0.57029
C          6.09640        10.59352         0.27221
C          4.90505         9.90619        -0.17412
C          6.07805        12.01790         0.45812
C          4.86321        12.73867         0.36419
C          6.06623        14.86063         0.76274
C          4.83860        14.15708         0.49385
C          6.03460        16.26607         0.88803
C          4.84238        17.01957         0.69734
C          6.06611        19.16165         1.03513
C          4.84415        18.44630         0.85022
C          6.08493        20.58819         1.07745
C          4.79498        21.28659         1.39528
C          6.04400        23.45450         0.87572
C          4.79659        22.75818         1.09926
C          6.02307        24.85171         0.64356
C          4.81755        25.59989         0.82438
C          5.96958        27.74545         0.17583
C          4.77290        26.98855         0.68693
C          6.07788        29.03742         1.02536
C          4.83191        29.88451         0.77961
C          6.09669        32.03796         0.72244
C          4.86649        31.31007         0.71036
C          6.13622        33.43895         0.57401
C          4.90787        34.16165         0.48073
C          6.16778        36.29695         0.34933
C          4.92985        35.59229         0.37899
C          6.17815        37.72001         0.22788
C          4.96041        38.42201         0.16525
C          8.72116         3.51525        -0.86005
C          7.53091         4.27102        -1.01829
C          8.59508         6.24742         0.02318
C          7.50869         5.68407        -0.59699
C          8.53875         7.61389         0.60002
C          7.25290         8.39999         0.40653
C          8.50862        10.52491         0.80481
C          7.29612         9.87496         0.47949
C          8.52761        11.95829         0.89177
C          7.31590        12.69382         0.73189
C          8.53286        14.78376         1.09411
C          7.30676        14.11882         0.88661
C          8.54931        16.22525         1.37123
C          7.25124        16.99050         1.27924
C          8.53561        19.11064         1.12491
C          7.31569        18.45200         1.10206
C          8.57795        20.60472         1.35017
C          7.28210        21.31160         1.03552
C          8.50299        23.41325         0.49931
C          7.28226        22.73152         0.85183
C          8.46267        24.76452         0.13202
C          7.24933        25.54235         0.29529
C          8.45842        27.67598        -0.14744
C          7.24075        26.92730         0.16373
C          8.55375        29.13136         0.20236
C          7.38202        29.80983         0.84485
C          8.61239        32.00439         0.33717
C          7.37232        31.29998         0.78656
C          8.63435        33.47643         0.50371
C          7.40218        34.16332         0.51222
C          8.64391        36.29337         0.28988
C          7.40668        35.58598         0.40208
C          8.63786        37.73268         0.17003
C          7.43712        38.40444         0.15230
C         11.13714         3.69253        -0.97687
C          9.93145         4.17736        -0.51819
C         11.08430         6.19854         0.53771
C          9.79163         5.39391         0.38350
C         11.02143         7.57923         1.21917
C          9.77698         8.38288         0.86128
C         10.92516        10.49994         1.49919
C          9.72355         9.75358         1.02671
C         10.98668        11.96840         1.34903
C          9.76746        12.66026         1.10705
C         11.00721        14.80019         1.24229
C          9.76878        14.08480         1.13180
C         11.01064        16.24178         1.14601
C          9.80328        16.96321         1.17601
C         10.99507        19.07386         0.83636
C          9.78237        18.37984         1.08027
C         10.97166        20.50984         0.68531
C          9.81663        21.27132         0.81222
C         10.95261        23.33788         0.12785
C          9.78390        22.68382         0.48885
C         10.95087        24.64593        -0.62597
C          9.65513        25.42908        -0.44876
C         11.00667        27.64308        -0.31768
C          9.71901        26.93629        -0.44482
C         11.04990        29.04415        -0.04450
C          9.87718        29.75505         0.31707
C         11.16478        31.91934         0.57692
C          9.88092        31.22705         0.27431
C         11.16331        33.43403         0.52762
C          9.86336        34.16571         0.39965
C         11.15809        36.26959         0.18632
C          9.85863        35.56427         0.28651
C         11.20788        37.75799         0.07816
C          9.91049        38.55489         0.02992
C         13.64843         3.89298        -1.21714
C         12.31700         4.60086        -1.15597
C         13.52892         6.65501        -0.26909
C         12.32437         5.74603        -0.15444
C         13.50700         7.84505         0.66197
C         12.31619         8.37515         1.08833
C         13.48146        10.57628         1.56720
C         12.25610         9.76398         1.59630
C         13.47272        11.95890         1.64099
C         12.20954        12.67056         1.49764
C         13.47778        14.82449         1.45362
C         12.22469        14.09862         1.38748
C         13.48213        16.25339         1.18377
C         12.24494        16.94578         1.02722
C         13.46675        18.99636         0.46016
C         12.23537        18.35175         0.77478
C         13.42140        20.38912        -0.10061
C         12.26607        21.17549         0.48874
C         13.49324        23.27144        -0.30302
C         12.24210        22.65152         0.22346
C         13.47719        24.76077        -0.42494
C         12.19626        25.48307        -0.37710
C         13.46913        27.62349        -0.48150
C         12.22516        26.89956        -0.38060
C         13.50006        29.03387        -0.45836
C         12.31288        29.72689        -0.10900
C         13.72882        31.86221         0.13428
C         12.42085        31.12900         0.32974
C         13.74408        33.39898         0.24754
C         12.39524        34.06478         0.07210
C         13.58969        36.20249        -0.68029
C         12.32030        35.46519        -0.31203
C         13.59666        37.69382        -0.67539
C         12.43975        38.39681        -0.44819
C         16.10540         3.84843        -0.95797
C         14.82088         4.48538        -0.81835
C         16.03884         6.52045         0.19369
C         14.77246         5.79712        -0.11053
C         16.00208         7.94975         0.59569
C         14.77837         8.51209         0.91427
C         16.02407        10.56246         1.82420
C         14.73425         9.81258         1.60563
C         15.96654        12.03701         1.84036
C         14.73332        12.70133         1.74235
C         15.91180        14.91763         1.92021
C         14.67756        14.14299         1.69240
C         15.95039        16.37814         1.46632
C         14.68630        16.97000         1.01676
C         15.96094        18.98102         0.25466
C         14.68931        18.32272         0.57338
C         15.93525        20.39059        -0.09635
C         14.74740        21.10865        -0.04710
C         15.97638        23.26188        -0.10713
C         14.77079        22.54217        -0.10282
C         15.92057        24.67991         0.36022
C         14.67145        25.54184         0.08038
C         15.92666        27.51337        -1.30897
C         14.71335        26.84069        -0.74222
C         15.88768        29.02148        -1.34926
C         14.72949        29.76989        -0.77057
C         16.05658        31.88430        -0.82241
C         14.83146        31.13701        -0.54650
C         16.07766        33.34051        -0.77040
C         14.88004        34.07601        -0.50460
C         16.13459        36.24470        -0.62693
C         14.85287        35.46068        -0.65654
C         16.02352        37.65055        -1.17212
C         14.81886        38.33497        -1.07265
C         18.58394         3.93807        -0.97680
C         17.30630         4.52687        -0.76042
C         18.55679         6.72934        -0.20872
C         17.27208         5.96982        -0.42289
C         18.52932         8.00921         0.51698
C         17.26881         8.63532         0.85287
C         18.54456        10.55972         1.89010
C         17.27536         9.90264         1.42555
C         18.45473        12.07091         1.91400
C         17.24394        12.72499         1.92918
C         18.49261        14.97795         1.87019
C         17.21496        14.20056         2.09602
C         18.42774        16.33006         1.27398
C         17.23225        16.98693         1.02903
C         18.42847        18.91368        -0.12390
C         17.16654        18.28253         0.36981
C         18.44033        20.35515        -0.54774
C         17.12609        21.11738        -0.69477
C         18.42201        23.27194        -0.67150
C         17.21681        22.60135        -0.37154
C         18.49530        24.70218        -0.95734
C         17.36151        25.43430        -1.46605
C         18.46964        27.57039        -1.05983
C         17.26097        26.83283        -1.29324
C         18.48695        28.99900        -1.13332
C         17.21089        29.73483        -1.35317
C         18.48028        31.84069        -1.55621
C         17.21192        31.18742        -1.10995
C         18.48246        33.34138        -1.42961
C         17.27518        34.04400        -1.13168
C         18.47120        36.15280        -1.53674
C         17.30884        35.46483        -1.15543
C         18.43024        37.59002        -1.71803
C         17.20954        38.28494        -1.60370
C         19.77224         4.63781        -0.77734
C         21.01187         6.67152        -0.03788
C         19.81304         5.98139        -0.34839
C         20.99023         7.97544         0.41337
C         19.76737         8.67267         0.72686
C         20.93954        10.82692         1.19986
C         19.77649        10.01458         1.21096
C         20.95578        12.09891         1.70114
C         19.74918        12.78686         2.27741
C         20.95204        14.99471         1.82707
C         19.76943        14.23884         1.85560
C         20.94886        16.31911         1.42719
C         19.73306        16.89189         0.83243
C         20.94478        19.08383         0.15287
C         19.74150        18.23618         0.15896
C         20.90307        20.42061        -0.09748
C         19.69896        21.14133        -0.41080
C         20.88525        23.31215        -0.44994
C         19.67542        22.53783        -0.55450
C         20.88385        24.67725        -0.46375
C         19.68649        25.42155        -0.73713
C         20.88712        27.60836        -0.68309
C         19.69613        26.86133        -0.85144
C         20.87726        28.99049        -0.71080
C         19.68373        29.70769        -0.95259
C         20.93838        31.89858        -1.44508
C         19.70479        31.22849        -0.86829
C         20.89627        33.19397        -1.81851
C         19.68161        34.00158        -1.67921
C         20.84680        36.16986        -2.13293
C         19.69647        35.43990        -1.78566
C         20.80241        37.56501        -2.28068
C         19.61954        38.26604        -2.09711
O         12.57882        22.10769         1.56320
O          8.22995        28.72667        -1.19175
O         15.35807         9.85915         2.93796
O         13.56236        23.91430        -1.62750
O         14.95112        26.82983        -2.19975
O         16.45457        29.49074        -2.62027
O          7.67749        30.57292         2.05375
O          9.18266        31.67741        -0.98449
O         12.08007         5.34368         1.22338
O         18.44383        19.28187        -1.56081
O          7.79850        16.58232         2.59032
O         11.20964        32.66338         1.81959
O         17.77258         6.82391        -1.49153
O          9.44396        26.18139        -1.69730
O         15.81339        16.00653         2.88269
O          3.10881        25.41058         2.58293
O         17.92672        14.74638         3.25145
O         11.45345        37.09009         1.37431
O          7.54536         7.73237         1.68149
O         16.72672        25.10759         1.18151
O         13.39894        31.25750         1.42770
O         19.86646        17.00791        -0.65622
O         11.43531        10.01220         2.77998
O         15.38026         5.68638         1.21281
O         12.65982        35.71340        -1.73933
O         14.07776        33.69765         1.64643
H         13.57719        33.03980         2.19044
O         16.82659        21.14161        -2.13226
H         17.17599        20.29335        -2.49769
O          3.24254        11.69370         1.73857
H          2.89982        12.54511         2.11167
O          5.65849        28.10420        -1.19525
H          6.50654        28.39761        -1.61636
O         11.00606        24.23243        -2.02657
H         10.65492        24.99276        -2.54891
O         16.42771        24.72811        -2.12910
H         15.71664        25.33335        -2.47376
O         13.11514        20.23579        -1.52748
H         13.44947        21.02632        -2.00429
O          1.86308        14.06364         1.70586
H          0.93759        13.73507         1.68835
O          1.04628         5.93931        -0.35492
H          1.07045         4.95818        -0.36193
O         14.29010        25.98724         1.41143
H         15.11690        26.03795         1.94642
O          9.49049         4.85355         1.69782
H         10.34557         4.56444         2.08675
O          8.70860        20.74789         2.81793
H          7.94033        20.29661         3.22916
O         19.83247        12.72792         3.75215
H         19.15378        13.36677         4.08292
O          6.04248        28.60350         2.40359
H          6.39630        29.34539         2.94629
O          9.86163        39.29261        -1.20288
H          9.74915        38.66037        -1.94211
O         16.40858        36.44044         0.81389
H         16.34583        35.56207         1.24867
O          5.86068         5.03308        -3.64805
H          5.13213         5.55862        -4.04347
O         18.61027        31.53128        -2.97946
H         17.76469        31.15134        -3.30285
O         10.89823         7.31009         2.63753
H         11.61417         6.67988         2.87262
O         18.69539        10.17491         3.30931
H         19.22334        10.89201         3.74319
O         19.62215        31.56597         0.54214
H         20.40929        31.19404         0.99145
O         12.10470         5.22587        -2.48996
H         12.16730         4.51467        -3.16290
O         13.58643         7.24838        -1.59316
H         13.17782         6.61526        -2.23603
O          0.57753        24.90037         2.86721
H          1.41320        24.87742         3.39080
O          4.71280        21.20905         2.87636
H          4.58487        20.26492         3.11186
H          1.78456         2.74480        -3.26621
H         -0.32691         4.01699        -3.61103
H         -0.59366         6.30627        -2.76549
H         -0.69618         8.14477        -2.07568
H         -0.72892        10.55756        -1.70738
H         -0.61214        12.46844        -1.81267
H         -0.65834        14.87558        -1.48499
H         -0.88140        16.66842        -0.78508
H         -0.92882        19.06207        -0.35453
H         -1.03958        20.83408         0.39458
H         -1.06499        23.20398         0.93568
H         -1.05278        25.10175         0.52297
H         -0.95344        27.45389         0.05727
H         -1.02232        29.41865         0.31104
H         -0.99900        31.84561         0.18481
H         -0.98192        33.75830         0.20057
H         -0.92274        36.20970         0.09220
H          0.34220        38.33256         0.03967
H          4.20262         2.80018        -2.91480
H          2.50555        39.54843         0.04380
H          6.50572         2.66832        -2.02345
H          4.97165        39.51851         0.07692
H          8.77197         2.51690        -1.32359
H          7.43334        39.50001         0.05225
H         11.13913         2.75398        -1.55688
H          9.93546        39.32074         0.84875
H         13.67507         2.90106        -1.69556
H         12.44079        39.49271        -0.54783
H         16.13363         2.80584        -1.31003
H         14.79210        39.41323        -1.29525
H         18.62917         2.88349        -1.28507
H         17.17129        39.34616        -1.89463
H         20.72730         4.11243        -0.92684
H         21.97502         6.15941        -0.17830
H         21.94775         8.47455         0.61258
H         21.86887        10.42856         0.76694
H         21.90332        12.65327         1.67400
H         21.90858        14.53572         2.11454
H         21.89352        16.87605         1.37873
H         21.91689        18.60311         0.32781
H         21.85413        20.96875        -0.06846
H         21.84676        22.79748        -0.32761
H         21.83773        25.20434        -0.33198
H         21.84259        27.09515        -0.51359
H         21.81825        29.53516        -0.54959
H         21.88587        31.34299        -1.51175
H         21.81129        33.67448        -2.19470
H         21.79806        35.65077        -2.31189
H         21.71773        38.10415        -2.56268
H         19.59424        39.35610        -2.23818
