         424
 CSIRO Nanostructure Databank - Neutral Graphene Oxide Data Set
C          1.31046         2.10372        -0.71837
C          1.31247         3.50173        -0.89974
C          2.49221         1.39995        -0.62775
C          2.51232         4.23143        -0.95166
C          1.34558         6.40041        -1.32026
C          1.37310         7.76655        -1.54472
C          2.53958         5.67069        -1.13846
C          2.59057         8.47025        -1.60222
C          1.37930        10.72841        -1.82440
C          1.43314        12.08484        -1.87511
C          2.59109         9.91042        -1.94791
C          2.67458        12.82431        -1.83277
C          1.50025        15.02496        -2.08249
C          1.51822        16.40559        -2.08287
C          2.67433        14.26732        -1.81674
C          2.71449        17.11920        -1.81585
C          2.74651        18.55181        -1.81880
C          3.75249         2.08194        -0.70327
C          3.75439         3.53697        -0.80324
C          4.93818         1.37480        -0.75637
C          4.96894         4.24931        -0.75263
C          3.78326         6.37061        -1.15605
C          3.81033         7.78247        -1.38726
C          5.00721         5.65202        -0.92599
C          5.07352         8.49905        -1.30344
C          3.92489        10.66536        -1.83121
C          3.88297        12.12662        -1.65788
C          5.10936         9.91397        -1.38901
C          5.09102        12.81397        -1.33174
C          3.89073        14.96103        -1.55333
C          3.90602        16.39253        -1.54859
C          5.09280        14.23713        -1.28152
C          5.12021        17.09738        -1.28697
C          3.90951        19.23196        -1.57468
C          5.13301        18.53081        -1.30419
C          6.24610         2.08375        -0.98196
C          6.21433         3.48812        -0.35183
C          7.43158         1.26119        -0.46637
C          7.50266         4.22860        -0.62884
C          6.26689         6.35290        -0.91574
C          6.28016         7.77867        -1.05552
C          7.48953         5.62801        -0.80434
C          7.51416         8.50542        -0.87290
C          6.29210        10.64415        -1.07532
C          6.29096        12.07982        -1.06458
C          7.49642         9.93460        -0.80524
C          7.48606        12.78317        -0.71874
C          6.30658        14.94148        -0.99069
C          6.31629        16.38089        -1.01137
C          7.48846        14.22676        -0.69690
C          7.52324        17.09000        -0.77329
C          6.33028        19.22106        -1.06107
C          7.53449        18.52769        -0.80013
C          8.72049         2.05876        -0.44103
C          8.69961         3.47728        -0.60563
C          9.89850         1.36172        -0.19032
C          9.98784         4.19351        -0.68245
C          8.78503         6.36345        -1.09055
C          8.73490         7.81882        -0.72063
C          9.99393         5.65677        -0.54860
C          9.93631         8.50978        -0.39553
C          8.69614        10.64900        -0.50032
C          8.66719        12.06392        -0.42034
C          9.91751         9.93030        -0.27676
C          9.83873        12.78476         0.19263
C          8.71273        14.94346        -0.44206
C          8.72813        16.37703        -0.50761
C          9.90262        14.24883        -0.14989
C          9.93477        17.08744        -0.27253
C          8.74915        19.21962        -0.56323
C          9.94432        18.53057        -0.30293
C         11.16439         1.99835        -0.02599
C         11.25304         3.44177        -0.33186
C         12.32140         1.32649         0.33392
C         12.38509         4.21117         0.21404
C         11.15002         6.33644        -0.19051
C         11.15482         7.78670        -0.15213
C         12.32802         5.60283         0.24569
C         12.35299         8.49818         0.13809
C         11.14331        10.64912        -0.04552
C         11.14832        12.06056         0.03985
C         12.36371         9.92822         0.11597
C         12.36488        12.77164         0.15340
C         11.12026        14.94670         0.02503
C         11.13774        16.37698        -0.01567
C         12.35329        14.23279         0.20706
C         12.35268        17.09056         0.22144
C         11.16882        19.22156        -0.07749
C         12.36160        18.53453         0.17573
C         13.56946         2.02204         0.50350
C         13.56894         3.46710         0.55815
C         14.77504         1.33153         0.65686
C         14.77194         4.14295         0.81943
C         13.46451         6.36338         0.78247
C         13.54722         7.81513         0.52264
C         14.75714         5.58921         1.05952
C         14.74590         8.51226         0.74317
C         13.58396        10.63536         0.32507
C         13.57907        12.05367         0.26316
C         14.79767         9.91908         0.59712
C         14.85576        12.77221         0.38870
C         13.52813        14.95548         0.42004
C         13.54441        16.38005         0.47504
C         14.83027        14.26009         0.47646
C         14.78943        17.08896         0.69339
C         13.59762        19.21900         0.37968
C         14.78465        18.53002         0.62620
C         16.01839         2.01499         0.78831
C         16.01216         3.45121         0.85629
C         17.25058         1.33271         0.86232
C         17.23541         4.17216         0.96347
C         16.02382         6.31576         1.02806
C         15.98774         7.80801         1.27355
C         17.21683         5.62472         0.99056
C         17.23306         8.46535         0.68188
C         16.04440        10.64027         0.82251
C         16.06339        12.05889         0.84759
C         17.25999         9.94185         0.96386
C         17.24966        12.77510         1.13072
C         15.93057        14.93509         1.25471
C         15.98468        16.41096         0.96393
C         17.25355        14.21598         1.17972
C         17.22158        17.10226         1.13191
C         16.02825        19.21829         0.83616
C         17.20327        18.54655         1.07019
C         18.47116         2.03239         0.98964
C         18.46005         3.46990         1.03795
C         19.71789         1.34661         1.05162
C         19.70151         4.18315         1.16812
C         18.48219         6.34488         1.07629
C         18.50195         7.74257         1.04631
C         19.69942         5.61223         1.19941
C         19.71835         8.46613         1.19287
C         18.48286        10.62975         1.16050
C         18.48448        12.05840         1.29435
C         19.71530         9.90886         1.25835
C         19.70546        12.75532         1.49402
C         18.42401        14.94644         1.38101
C         18.41609        16.36940         1.35704
C         19.68693        14.23238         1.81563
C         19.69646        17.11792         1.65694
C         18.47850        19.32769         1.30695
C         19.70123        18.47680         0.94066
C         20.93361         2.03335         1.16674
C         20.92567         3.47637         1.24170
C         22.18601         1.34614         1.18224
C         22.15489         4.19484         1.34877
C         20.92774         6.32307         1.29113
C         20.93251         7.75391         1.30930
C         22.14375         5.59115         1.36883
C         22.17236         8.47453         1.51550
C         20.93637        10.61783         1.43525
C         20.92882        12.05842         1.50272
C         22.16012         9.91239         1.57089
C         22.18956        12.76870         1.52513
C         20.96713        14.93769         1.43398
C         20.96907        16.34508         1.34900
C         22.17729        14.21346         1.39447
C         22.17680        17.04747         1.18404
C         20.99211        19.21047         1.14227
C         22.19079        18.51226         1.15467
C         23.40906         2.01790         1.28221
C         23.42986         3.47572         1.40687
C         24.64754         1.32724         1.23213
C         24.61188         4.14670         1.58775
C         23.44616         6.33101         1.26856
C         23.35939         7.77325         1.66570
C         24.60319         5.61137         1.95492
C         24.61203         8.45231         2.12821
C         23.41203        10.62177         1.69298
C         23.40612        12.07375         1.60112
C         24.60183         9.93170         1.86765
C         24.66930        12.77772         1.58088
C         23.41284        14.91468         1.26260
C         23.41549        16.33852         1.14383
C         24.65136        14.21269         1.36772
C         24.65246        17.04094         1.04136
C         23.43181        19.19554         1.10446
C         24.65955        18.49994         0.96215
C         25.88316         1.99616         1.31426
C         25.92181         3.42880         1.79147
C         27.08711         1.34687         1.03515
C         27.09525         4.21974         1.24084
C         25.87722         6.35612         1.60614
C         25.85664         7.74180         1.62653
C         27.04670         5.60163         1.22565
C         27.05071         8.53451         1.39602
C         25.89531        10.64068         2.12431
C         25.88243        12.08988         1.72055
C         27.10010         9.88916         1.58314
C         27.14771        12.76755         1.65945
C         25.85518        14.93851         1.37368
C         25.87497        16.34151         1.13619
C         27.10252        14.24105         1.70545
C         27.13626        17.04153         0.95907
C         25.84861        19.17589         0.72933
C         27.08806        18.42623         0.35062
C         28.31073         2.06054         0.85505
C         28.29578         3.51061         0.84745
C         29.49693         1.37001         0.57582
C         29.45964         4.20711         0.47339
C         28.14161         6.39769         0.56301
C         28.34385         7.77432         1.21480
C         29.45635         5.65905         0.42689
C         29.38820         8.58693         0.42580
C         28.43927        10.59675         1.75348
C         28.37492        12.10476         1.59018
C         29.55988         9.98339         0.96079
C         29.61629        12.83173         1.37333
C         28.40481        15.01294         1.61299
C         28.35030        16.41690         1.13994
C         29.62691        14.23197         1.38810
C         29.60972        17.12835         0.95207
C         28.34626        19.21009         0.57663
C         29.56042        18.58407         0.75086
C         30.71204         2.05313         0.29991
C         30.69161         3.49552         0.24348
C         31.91265         1.36738         0.03965
C         31.88062         4.18838        -0.03521
C         30.58773         6.36459         0.11494
C         30.73697         7.84177         0.43250
C         31.82102         5.64707        -0.23776
C         31.78650         8.59241        -0.40507
C         30.72586        10.69704         0.65272
C         30.81133        12.11069         0.94248
C         31.85569        10.03836         0.03842
C         31.98374        12.80538         0.55617
C         30.86710        15.00670         1.23885
C         30.81027        16.47390         1.04314
C         32.10400        14.25785         0.78945
C         32.14344        17.19744         0.99472
C         30.79089        19.30922         0.65612
C         32.02836        18.66240         0.62251
C         33.12297         2.05987        -0.21156
C         33.11598         3.50196        -0.21716
C         34.34285         1.38462        -0.44596
C         34.34392         4.20547        -0.35395
C         33.09499         6.41613        -0.38771
C         33.12752         7.89507        -0.31095
C         34.36271         5.67181        -0.16225
C         34.29206         8.57370        -0.52306
C         33.03094        10.73810        -0.21911
C         33.07855        12.13873        -0.02815
C         34.20513        10.04364        -0.88341
C         34.21045        12.89165        -0.69193
C         33.22660        15.00839         0.18827
C         33.07886        16.49796        -0.01532
C         34.31822        14.34769        -0.30808
C         34.39605        17.21366        -0.15997
C         33.20279        19.33643         0.26152
C         34.41653        18.63551        -0.04656
C         35.54793         2.08593        -0.64035
C         35.55925         3.52534        -0.55542
C         36.76784         1.40162        -0.90675
C         36.80957         4.23768        -0.68890
C         35.64774         6.43966        -0.28638
C         35.58057         7.89558        -0.58565
C         36.86592         5.67976        -0.62269
C         36.73460         8.58318        -0.87265
C         35.51728        10.77548        -0.70624
C         35.51572        12.14153        -0.60645
C         36.74762        10.03817        -0.92786
C         36.76820        12.90744        -0.59899
C         35.53935        15.06668        -0.61645
C         35.55720        16.50245        -0.52532
C         36.74334        14.36865        -0.82551
C         36.77945        17.19966        -0.77295
C         35.61309        19.32654        -0.32052
C         36.79484        18.63477        -0.68549
C         37.96764         2.09435        -1.05965
C         37.99273         3.52047        -0.93337
C         39.19047         1.39421        -1.39842
C         39.32055         4.23313        -0.89086
C         38.03863         6.37978        -0.94263
C         38.07675         7.88553        -0.79094
C         39.24406         5.70017        -1.24172
C         39.10248         8.50615        -1.71686
C         37.92451        10.71689        -1.21574
C         38.05150        12.15041        -0.96331
C         39.05283        10.01560        -1.85351
C         39.18315        12.90627        -1.53847
C         37.95471        15.05084        -1.12422
C         37.95812        16.48354        -1.12359
C         39.15577        14.33107        -1.50252
C         39.15439        17.20443        -1.43637
C         37.99063        19.32797        -0.97254
C         39.16012        18.63716        -1.35644
C         40.34676         2.07058        -1.68836
C         40.42910         3.49340        -1.58617
C         41.54486         4.20814        -2.00823
C         40.42657         6.37750        -1.66562
C         40.39629         7.81994        -1.88861
C         41.56919         5.61420        -1.99118
C         41.47329         8.57289        -2.31577
C         40.30437        10.74157        -2.12621
C         40.29800        12.20403        -2.05625
C         41.43194         9.99600        -2.41371
C         41.40933        12.95662        -2.50386
C         40.31022        15.05801        -1.91992
C         40.33313        16.51205        -1.83754
C         41.41921        14.33795        -2.41683
C         41.48884        17.25829        -2.13715
C         40.35358        19.34589        -1.66669
C         41.49363        18.65805        -2.04835
O         27.76051        14.78929         2.91081
O         37.73246        12.51738         0.42781
O         10.91895         3.73036        -1.73812
O         13.85881         6.01105         2.16226
O          3.39729        10.21471        -3.12882
O         15.19694        13.64777        -0.78844
O         31.91263        14.60092         2.21987
O         35.07787         6.10279         1.04453
O         38.59018         9.10558        -2.93331
O         32.36488         6.00866        -1.61388
O         39.70731         4.22006         0.55154
H         39.02882         4.74176         1.03253
O         18.55519        19.76668         2.66768
H         18.84370        18.99511         3.21078
O         15.99223         7.98757         2.71198
H         15.23483         7.46521         3.06260
O         26.09204        10.64391         3.59848
H         25.65148         9.81899         3.93518
O         17.08739         8.32172        -0.76922
H         17.84502         8.77512        -1.19484
O         38.58378         8.14261         0.55838
H         37.91010         7.83217         1.20015
O         28.83550         7.55864         2.56687
H         28.82489         8.44604         3.01917
O          9.56835        12.75176         1.65547
H          8.73711        13.25148         1.80509
O         26.11311         3.38085         3.26314
H         25.61199         2.60454         3.59381
O         23.80383         6.32358        -0.16062
H         23.07885         6.76584        -0.65089
O          8.95223         6.33662        -2.56184
H          9.25656         5.43482        -2.80476
O         19.71170        17.33094         3.10276
H         19.68769        16.43244         3.51358
O         28.76624        10.32830         3.17821
H         27.95656        10.60506         3.68627
O         15.50954        14.81121         2.66110
H         16.20594        15.22134         3.21709
O         24.42112         5.64358         3.40470
H         25.07745         4.99711         3.76785
O         33.85257        12.93064        -2.12077
H         33.84663        11.98953        -2.43819
O         33.90778        10.09181        -2.32605
H         33.04772         9.61676        -2.44985
O         27.00674        18.21664        -1.12086
H         27.84967        17.79759        -1.39827
O         24.65698         8.32557         3.61462
H         24.56799         7.35152         3.81146
O          6.42837         2.22212        -2.41362
H          5.66424         2.72232        -2.77027
O         19.60746        18.15355        -0.47906
H         19.82277        18.95893        -0.99376
O         31.30496         7.87074         1.76319
H         30.60203         7.54856         2.38505
O          6.13200         3.29693         1.09959
H          6.06662         4.18321         1.51363
O         32.38286        16.61021        -1.30591
H         32.94123        16.17424        -1.98521
O         19.64129        14.34198         3.30063
H         20.36922        13.78542         3.65420
O          7.14778         0.75606         0.84477
H          6.83655         1.51743         1.38667
O         28.90413         8.76175        -0.92347
H         29.68289         8.88379        -1.52078
O         27.65397         6.60919        -0.79043
H         27.39031         5.73953        -1.15617
O         32.74421        17.15827         2.30514
H         32.63810        16.23550         2.64735
O         31.44061         8.57650        -1.82978
H         31.58789         7.63666        -2.12447
H          0.34920         1.57322        -0.66866
H          0.34516         4.01284        -0.99090
H          2.48658         0.30627        -0.51823
H          0.37423         5.88977        -1.31036
H          0.42469         8.29297        -1.71435
H          0.40612        10.23715        -1.68609
H          0.48870        12.64361        -1.82295
H          0.55702        14.51093        -2.31050
H          0.59721        16.96623        -2.29901
H          1.81565        19.09963        -2.02640
H          4.91940         0.27469        -0.76984
H          3.92314        20.33161        -1.58408
H          7.56885         0.37363        -1.13653
H          6.33461        20.32118        -1.07645
H          9.84085         0.27299        -0.04151
H          8.75273        20.31955        -0.58907
H         12.30029         0.23481         0.47056
H         11.17312        20.32146        -0.10946
H         14.77305         0.23143         0.63308
H         13.60911        20.31855         0.33640
H         17.26298         0.23361         0.81329
H         16.02979        20.31852         0.80581
H         19.72250         0.24763         0.99517
H         18.46706        20.24864         0.66344
H         22.18480         0.24838         1.10278
H         20.99693        20.31112         1.11781
H         24.64319         0.24784         1.01499
H         23.43346        20.29540         1.07382
H         27.07893         0.26433         0.83414
H         25.85218        20.27482         0.67198
H         29.49101         0.26981         0.57799
H         28.31661        20.29785         0.40903
H         31.91666         0.26717         0.04691
H         30.74326        20.38834         0.44065
H         34.35318         0.28456        -0.46507
H         33.18029        20.42978         0.13148
H         36.75656         0.30525        -0.99864
H         35.63448        20.42404        -0.24951
H         39.15346         0.29881        -1.48826
H         38.00873        20.42597        -0.90794
H         41.23356         1.51792        -2.03429
H         42.41236         3.66550        -2.41319
H         42.47988         6.12171        -2.33706
H         42.44134         8.08898        -2.50796
H         42.37681        10.50306        -2.65443
H         42.28677        12.44581        -2.92196
H         42.31181        14.87436        -2.76449
H         42.41574        16.75268        -2.43812
H         40.35932        20.44314        -1.59999
H         42.41455        19.20915        -2.28493
