         234
 CSIRO Nanostructure Databank - Neutral Graphene Oxide Data Set
C          1.40391         2.26271         1.46161
C          1.39839         3.64299         1.29021
C          2.51518         1.51461         1.06617
C          2.51658         4.31274         0.75057
C          1.37328         6.53739         0.73553
C          1.36156         7.95145         0.49614
C          2.49442         5.76031         0.56391
C          2.41488         8.59654        -0.11499
C          1.24858        10.78434        -0.43078
C          1.26583        12.17016        -0.61364
C          2.41344        10.00432        -0.48282
C          2.44116        12.89248        -0.89809
C          1.28563        14.98641        -0.13856
C          1.27982        16.25256         0.41955
C          2.46105        14.36258        -0.66182
C          2.47923        16.99120         0.58019
C          2.54654        18.25584         1.24111
C          3.64024         2.14660         0.52234
C          3.66417         3.55193         0.37800
C          4.78428         1.30765        -0.00344
C          4.86158         4.21394        -0.15931
C          3.79508         6.46417         0.26995
C          3.59253         7.77480        -0.48062
C          4.85274         5.58348        -0.35151
C          4.84839         8.47897        -0.96673
C          3.62477        10.66117        -0.87939
C          3.60567        12.06746        -1.13758
C          4.86056         9.95295        -1.04516
C          4.83323        12.61226        -1.58774
C          3.62237        15.18908        -0.67768
C          3.66899        16.43646         0.03188
C          4.86206        14.76742        -1.27717
C          4.89726        17.14119         0.16707
C          3.74117        18.92549         1.36899
C          4.95955        18.38033         0.84629
C          6.09135         2.04791        -0.02526
C          6.09232         3.44750        -0.29757
C          7.28020         1.36263         0.15893
C          7.34644         4.09250        -0.50631
C          6.02800         6.27963        -0.88377
C          6.09866         7.74183        -0.86048
C          7.36032         5.51389        -0.92310
C          7.36391         8.39592        -1.21057
C          6.08268        10.62971        -1.20770
C          6.08798        12.03978        -1.39513
C          7.34924         9.88840        -1.44847
C          7.33098        12.86580        -1.17442
C          6.10742        15.19567        -0.89427
C          6.12644        16.58563        -0.41286
C          7.34724        14.36687        -0.90748
C          7.44227        17.26785        -0.20736
C          6.21622        19.02978         1.05490
C          7.43692        18.49232         0.62577
C          8.53957         2.02232         0.06991
C          8.55649         3.39010        -0.34588
C          9.73854         1.32572         0.36901
C          9.85931         4.06303        -0.57660
C          8.57704         6.32378        -0.70612
C          8.62506         7.68882        -0.87243
C          9.84002         5.57143        -0.56962
C          9.85379         8.45177        -0.60740
C          8.66071        10.64587        -1.42125
C          8.64621        12.17320        -1.45818
C          9.88554         9.91713        -0.92980
C          9.93041        12.93955        -1.23893
C          8.66158        15.10012        -0.81431
C          8.68875        16.49005        -0.38908
C          9.85220        14.40586        -0.92614
C          9.88837        17.16611        -0.12653
C          8.68213        19.10037         0.87976
C          9.88699        18.50592         0.44338
C         11.00586         1.96140         0.40336
C         11.17750         3.28300        -0.35554
C         12.13283         1.35943         0.91659
C         12.31924         4.11489         0.20956
C         10.98253         6.33815        -0.00613
C         10.98925         7.81629        -0.17092
C         12.24489         5.59741         0.28324
C         12.16761         8.53573         0.48109
C         11.00984        10.75061        -0.38748
C         11.14669        12.17904        -0.78643
C         12.20712        10.03941         0.20697
C         12.30200        12.83275        -0.41466
C         11.12909        15.13573        -0.83275
C         11.15142        16.55210        -0.39548
C         12.37571        14.29923        -0.58881
C         12.36419        17.24775        -0.24990
C         11.11484        19.17018         0.62797
C         12.36801        18.62505         0.26510
C         13.45991         2.04792         1.08585
C         13.46887         3.47703         0.58710
C         14.71083         1.32020         0.66210
C         14.74028         4.16194         0.68023
C         13.51711         6.37081         0.17243
C         13.50011         7.85343         0.25785
C         14.78313         5.60834         0.37539
C         14.67537         8.54784         0.27965
C         13.51349        10.72676         0.14948
C         13.52635        12.13417        -0.01069
C         14.73032        10.00425         0.22960
C         14.76777        12.80696         0.13343
C         13.50431        15.02524         0.03563
C         13.58307        16.46460        -0.27366
C         14.78081        14.26541         0.29048
C         14.84500        17.01316        -0.32291
C         13.51366        19.39304         0.64047
C         14.84899        19.13142         0.25386
C         15.90888         1.99819         0.65004
C         15.92212         3.46093         0.77238
C         17.15692         1.30769         0.37006
C         17.22284         4.17843         0.87837
C         16.03010         6.36764         0.65252
C         15.97062         7.83959         0.48837
C         17.31598         5.63005         0.57931
C         17.19373         8.48793        -0.06342
C         15.98414        10.67690         0.22231
C         16.00565        12.11455         0.26727
C         17.23704         9.96540         0.07015
C         17.24527        12.81729         0.41084
C         16.05186        14.99131         0.28479
C         16.04049        16.36958         0.11731
C         17.29910        14.24843         0.40394
C         17.26805        17.15726         0.56132
C         16.08311        19.46916         0.79840
C         17.27137        18.69294         0.44102
C         18.37504         1.93940         0.33589
C         18.47995         3.37539         0.67796
C         19.61231         1.26068         0.02070
C         19.73294         4.10660         0.42573
C         18.51457         6.28497         0.39356
C         18.45888         7.69364        -0.18313
C         19.76889         5.52188         0.55726
C         19.66437         8.51691        -0.52473
C         18.45877        10.61159         0.11732
C         18.49974        12.00554         0.70615
C         19.67849         9.91948        -0.26788
C         19.80850        12.76465         0.42879
C         18.50060        14.98034         0.38438
C         18.48694        16.44669        -0.04888
C         19.79273        14.27983         0.38888
C         19.76948        17.18884         0.20226
C         18.48997        19.30962         0.33482
C         19.74621        18.58690         0.21403
C         20.80616         1.92031         0.01094
C         20.91308         3.34848         0.24291
C         22.16201         4.00124         0.31156
C         21.04449         6.09109         0.84168
C         20.70105         7.95353        -1.30378
C         22.22481         5.34043         0.68240
C         21.87337         8.68485        -1.56816
C         20.86164        10.66583        -0.55483
C         20.92555        12.10157        -0.29073
C         21.95984        10.00360        -1.14877
C         21.97537        12.87253        -0.74013
C         20.99030        15.01152        -0.08776
C         21.06969        16.45396         0.37334
C         22.04684        14.29349        -0.56426
C         22.24994        17.25164        -0.10186
C         20.96435        19.30331         0.08028
C         22.17861        18.61789        -0.16518
O          7.27550         8.98638        -2.58515
O         11.64550         2.82342        -1.58874
O         11.33205         5.95451         1.38020
O         20.17471        13.52479         1.63758
O         13.84616        14.67406         1.40236
O         14.29202         5.89580        -0.98919
O          6.61258         5.75855        -2.13745
O         17.99125         3.71409         2.04060
O         14.97893        18.28476        -0.87041
O          9.40100        12.66905        -2.59398
O          7.29610        13.36655         0.21841
O          3.88201         7.78216        -1.89024
O          9.64530        10.12840        -2.35457
O         16.03607         7.25962         1.83805
O         11.18858        10.67216         1.07351
O         17.52483         7.83404        -1.34268
O          6.71221        17.46748        -1.47946
O         12.07526        14.79831        -1.92084
O         10.00481         4.82851        -1.82110
O          4.77838        13.80820        -2.28262
O         20.58811         6.71237        -1.83629
H         19.67297         6.38127        -1.72846
O         21.26506        16.33638         1.84399
H         20.71942        15.58014         2.15725
O         18.33974        16.44460        -1.50416
H         17.40620        16.22206        -1.71316
O         18.44701        11.75397         2.14909
H         18.92599        12.50595         2.57460
O         21.16846         7.34174         1.35446
H         20.29066         7.72172         1.55878
O         13.56050         2.16558         2.55848
H         14.46613         2.48321         2.76658
O          4.35560         6.88014         1.56998
H          4.31948         6.10650         2.17211
O         11.95887         8.39698         1.91393
H         11.37269         9.13733         2.19324
O          4.93707         0.08638         0.71423
H          4.18894        -0.50466         0.49930
O         17.36723        16.93023         1.99388
H         16.56212        17.29236         2.41938
H          0.52941         1.75979         1.89643
H          0.51180         4.21321         1.59751
H          2.50661         0.42226         1.18908
H          0.42316         6.07951         1.04526
H          0.44724         8.50435         0.75403
H          0.28808        10.30839        -0.18895
H          0.30864        12.68986        -0.48345
H          0.32621        14.45485        -0.16430
H          0.33468        16.67324         0.79216
H          1.62395        18.68866         1.65442
H          4.52952         1.05557        -1.08267
H          3.77585        19.89386         1.88909
H          7.24860         0.29357         0.41162
H          6.22646        19.97385         1.62047
H          9.68289         0.23921         0.54133
H          8.71993        20.06435         1.40856
H         12.00096         0.44062         1.51515
H         11.09482        20.17464         1.07778
H         14.68978         0.23117         0.50955
H         13.33264        20.23689         1.32490
H         17.10356         0.22906         0.15757
H         16.19018        20.31806         1.49158
H         19.57621         0.18107        -0.18590
H         18.54250        20.40876         0.36001
H         21.73401         1.36673        -0.19607
H         23.08653         3.42473         0.16643
H         23.19126         5.82776         0.86283
H         22.69772         8.21259        -2.11650
H         22.89195        10.54862        -1.34394
H         22.81836        12.40409        -1.26428
H         22.97526        14.79814        -0.86683
H         23.21668        16.74557        -0.23296
H         20.94607        20.40230         0.07212
H         23.07809        19.20219        -0.40843
