         204
 CSIRO Nanostructure Databank - Neutral Graphene Oxide Data Set
C        -11.04031         0.64334        -0.59131
C         -9.81163         1.39735        -0.51386
C         -8.56730         0.67590        -0.47029
C         -7.33260         1.40753        -0.42539
C         -6.08844         0.69045        -0.25004
C         -4.86640         1.38843        -0.07631
C         -3.68360         0.71634         0.29998
C         -2.45172         1.44964         0.45854
C         -1.23452         0.73193         0.63464
C         -0.01895         1.45060         0.72838
C          1.23040         0.70679         0.94674
C          2.54713         1.43143         0.94692
C          3.79707         0.65695         0.74524
C          5.03084         1.39776         0.56887
C          6.22597         0.69273         0.33037
C          7.37111         1.36049        -0.30250
C          8.64205         0.63188        -0.44433
C          9.83512         1.37252        -0.71999
C         11.04537         0.61912        -0.94691
C         -9.82016         2.79065        -0.46203
C         -8.60420         3.53567        -0.41294
C         -7.36562         2.81345        -0.44571
C         -6.11950         3.58084        -0.54239
C         -4.79806         2.83039        -0.35490
C         -3.62978         3.60713         0.09436
C         -2.43298         2.86900         0.41938
C         -1.19871         3.58048         0.54435
C          0.02868         2.85680         0.65268
C          1.28934         3.56245         0.59684
C          2.52650         2.87615         0.67323
C          3.76745         3.54877         0.47130
C          4.98941         2.82515         0.45888
C          6.29782         3.57349         0.45389
C          7.38548         2.85823        -0.32253
C          8.68494         3.56371        -0.45573
C          9.84386         2.78103        -0.71679
C         -8.59370         4.94503        -0.35179
C         -7.38403         5.69748        -0.24285
C         -6.12969         5.02021        -0.27621
C         -4.91395         5.71537        -0.07171
C         -3.67094         4.99387         0.11644
C         -2.46148         5.75694         0.62618
C         -1.18192         4.99244         0.46039
C          0.03324         5.68067         0.28288
C          1.27866         4.96570         0.33211
C          2.52172         5.65176         0.15374
C          3.75746         4.96648         0.23713
C          4.98093         5.69203        -0.00056
C          6.21370         5.01470         0.02697
C          7.43956         5.69470        -0.23219
C          8.67334         4.95178        -0.36913
C         -7.38513         7.10982        -0.14123
C         -6.18179         7.82699        -0.01940
C         -4.95004         7.13009         0.07656
C         -3.70189         7.88316         0.30403
C         -2.40475         7.18843         0.14792
C         -1.21203         7.86073        -0.10195
C          0.01671         7.06607        -0.10793
C          1.24208         7.57854        -0.55589
C          2.50313         7.03089        -0.22916
C          3.70765         7.81603        -0.29354
C          4.95109         7.10969        -0.21840
C          6.19309         7.81138        -0.31287
C          7.41031         7.09669        -0.36203
C         -6.18189         9.28070        -0.09507
C         -5.04353        10.01110        -0.05423
C         -3.74488         9.38052         0.26023
C         -2.47955        10.13786        -0.07175
C         -1.18443         9.33479        -0.11370
C         -0.05450        10.13035        -0.04809
C          1.27165         9.69004        -0.40785
C          2.52968        10.05332         0.02515
C          3.70986         9.25265        -0.22681
C          4.97268         9.91923        -0.21324
C          6.16358         9.24085        -0.32846
C        -11.03497        -0.71927        -0.61886
C         -9.80176        -1.46700        -0.55555
C         -8.56186        -0.73864        -0.47814
C         -7.32801        -1.46420        -0.39036
C         -6.08701        -0.73835        -0.18594
C         -4.89099        -1.41836         0.13247
C         -3.69294        -0.70795         0.44755
C         -2.49063        -1.40750         0.73696
C         -1.25420        -0.71890         0.73621
C         -0.04457        -1.45722         0.72344
C          1.21142        -0.72278         0.53449
C          2.50441        -1.45534         0.42378
C          3.76317        -0.72306         0.68763
C          4.98767        -1.51854         0.75540
C          6.32677        -0.73738         0.56687
C          7.48069        -1.49327         0.06023
C          8.65819        -0.76842        -0.32577
C          9.87200        -1.50254        -0.59100
C         11.06083        -0.74649        -0.89846
C         -9.80248        -2.86069        -0.54735
C         -8.58716        -3.60149        -0.46580
C         -7.35233        -2.86885        -0.40964
C         -6.10231        -3.63005        -0.38720
C         -4.79343        -2.87129        -0.04751
C         -3.66596        -3.62732         0.50202
C         -2.51257        -2.86615         1.11395
C         -1.21064        -3.58786         0.87730
C         -0.02021        -2.89099         0.72344
C          1.25885        -3.60471         0.59567
C          2.47708        -2.93119         0.49636
C          3.72135        -3.63856         0.35777
C          4.97092        -2.94319         0.40046
C          6.19299        -3.62028         0.17782
C          7.43814        -2.89362         0.01657
C          8.64657        -3.62189        -0.30857
C          9.85223        -2.89322        -0.55494
C         -8.57190        -5.01366        -0.47170
C         -7.36963        -5.74771        -0.25736
C         -6.15524        -5.05983        -0.12331
C         -4.97374        -5.77249         0.46591
C         -3.66017        -5.02279         0.46646
C         -2.47133        -5.77419         0.64411
C         -1.21726        -5.07258         1.11614
C          0.04402        -5.76758         0.68846
C          1.24991        -5.04562         0.54799
C          2.46046        -5.74770         0.26064
C          3.70260        -5.04328         0.18035
C          4.94429        -5.75450         0.00512
C          6.17844        -5.03817        -0.01107
C          7.40262        -5.74920        -0.23825
C          8.61804        -5.01972        -0.37506
C         -7.33288        -7.19520        -0.27642
C         -6.12912        -7.89263        -0.23841
C         -4.88602        -7.20763         0.03610
C         -3.67906        -7.88168         0.10179
C         -2.44647        -7.18003         0.44490
C         -1.21999        -7.88947         0.47101
C          0.03079        -7.17308         0.58035
C          1.26437        -7.87233         0.39210
C          2.43716        -7.16852         0.16018
C          3.63818        -7.87513        -0.40947
C          4.94123        -7.15661        -0.16645
C          6.15640        -7.86265        -0.32396
C          7.37163        -7.15785        -0.35848
C         -6.06768        -9.31811        -0.46892
C         -4.87849        -9.98376        -0.45443
C         -3.63370        -9.30376        -0.17690
C         -2.42611        -9.97504        -0.16465
C         -1.18626        -9.30819         0.14798
C          0.00898       -10.00189         0.11524
C          1.27234        -9.36332         0.62305
C          2.55633       -10.03865         0.21995
C          3.68133        -9.35414        -0.10281
C          4.96108       -10.01736        -0.30906
C          6.11774        -9.31549        -0.43457
O         -2.76572        -2.91016         2.59436
H         -2.15351        -2.26384         3.00872
O         -1.27176        -5.22432         2.58885
H         -1.99169        -4.61494         2.89555
O          1.23823         8.69016        -1.40504
O         -5.12469        -3.26983        -1.42977
O         -3.72108         8.71269         1.56154
O          1.87979         1.02017         2.21900
O         -5.30508        -5.83411         1.91924
H         -6.07164        -6.44069         2.01245
O          1.21603        -9.53263         2.09282
H          0.42997        -9.03887         2.41190
O         -2.64859         5.87286         2.09381
H         -3.21400         6.65884         2.26484
O          5.85548        -1.18649         1.87721
O         -5.27549         3.19539        -1.68890
O         -2.68049        10.71291        -1.37406
H         -1.82280        11.05761        -1.69794
O          6.77995         3.57226         1.84570
H          6.11396         4.03901         2.39346
O          3.44349        -7.79499        -1.87261
H          4.22770        -8.21165        -2.28970
O          6.96520         2.15347        -1.51589
O          1.82024        -0.93766        -0.79915
H         11.99449        -1.29502        -1.09230
H         11.96985         1.17155        -1.17161
H         10.79989         3.29981        -0.88780
H          9.61066         5.51469        -0.49533
H          8.35190         7.64952        -0.49850
H          7.11284         9.79369        -0.37823
H          4.97880        11.01772        -0.15647
H          2.65581        10.96895         0.62315
H         -0.19079        11.19132         0.22536
H         -2.35413        10.97824         0.67641
H         -5.06459        11.09395        -0.24294
H         -7.14483         9.77690        -0.28879
H         -8.33966         7.65473        -0.18262
H         -9.55212         5.48524        -0.34918
H        -10.77892         3.33032        -0.46813
H        -11.99075         1.19570        -0.63098
H        -11.98119        -1.27690        -0.68057
H        -10.75817        -3.40405        -0.59386
H         -9.51811        -5.56014        -0.59615
H         -8.27059        -7.74308        -0.45198
H         -7.00404        -9.85703        -0.67553
H         -4.84759       -11.06625        -0.64814
H         -2.39771       -11.05148        -0.39263
H          0.00641       -11.07708        -0.12122
H          2.60807       -11.13041         0.36321
H          4.98101       -11.11797        -0.31236
H          7.07239        -9.84643        -0.56547
H          8.31355        -7.70710        -0.50585
H          9.54759        -5.56954        -0.58632
H         10.77504        -3.45559        -0.76363
