         252
 CSIRO Nanostructure Databank - Neutral Graphene Oxide Data Set
C         30.24953        31.58088         0.65966
C         30.36252        32.86569         0.70030
C         30.29566        36.05862         0.33512
C         30.36749        37.18573        -0.15564
C         30.58026        39.98334        -1.70915
C         30.68185        41.18967        -2.04364
C         32.69529        28.77527         0.58663
C         31.59400        29.36141         0.61890
C         32.68181        31.50279         0.85445
C         31.34640        30.75706         0.71354
C         32.69725        33.05058         0.87021
C         31.38392        33.75929         0.72023
C         32.68990        35.98455         0.85529
C         31.36788        35.21556         0.86790
C         32.64383        37.50257         0.58769
C         31.58295        37.97340        -0.54160
C         32.78475        40.22407        -0.64996
C         31.41412        39.49102        -0.51224
C         32.90836        41.47117        -1.24441
C         31.75925        42.09059        -1.94173
C         32.94233        44.21245        -2.00478
C         31.99615        43.42790        -2.29706
C         35.49107        27.30861         0.61277
C         35.25865        28.71051         0.50111
C         34.00168        29.37803         0.53533
C         35.15933        31.52730         0.22697
C         33.94021        30.77437         0.56729
C         35.14920        33.06584         0.16887
C         33.93383        33.82203         0.56226
C         35.16453        35.95589         0.42693
C         33.95600        35.22506         0.62404
C         35.16808        37.40401         0.33415
C         33.97609        38.11090         0.24302
C         35.25785        40.30424         0.07992
C         33.94190        39.58484         0.04657
C         35.39217        41.64699        -0.54982
C         34.21689        42.20804        -1.26812
C         35.43248        44.49707        -1.27718
C         34.29254        43.66759        -1.76656
C         35.83435        45.81144        -1.82372
C         37.80583        27.24647         1.11440
C         36.49379        26.58550         0.69174
C         37.75778        28.70940         0.62838
C         36.48418        29.42014         0.52377
C         37.65170        31.57910         0.20942
C         36.46652        30.84750         0.32786
C         37.65206        33.02748         0.24562
C         36.46136        33.73990         0.24531
C         37.74077        35.97030         0.27836
C         36.42045        35.22163         0.19396
C         37.67434        37.37873         0.83575
C         36.44103        38.14429         0.40124
C         37.71104        40.32629         0.67847
C         36.47930        39.50641         0.34489
C         37.86247        41.46937        -0.39333
C         36.59509        42.29948        -0.52014
C         37.97063        44.48225        -0.57775
C         36.66137        43.76852        -0.71795
C         38.06943        45.91761        -0.81177
C         36.87154        46.38350        -1.41916
C         40.21092        24.39849         0.44853
C         39.19839        25.10958         0.70986
C         40.22089        27.14385         0.30663
C         39.02281        26.50249         0.65469
C         40.18050        28.60668        -0.07784
C         38.92568        29.35986         0.32921
C         40.24494        31.55184         0.10247
C         38.91900        30.81818         0.05185
C         40.21868        33.00208         0.30292
C         38.94804        33.71850         0.68695
C         40.18885        35.94300         0.54250
C         39.00069        35.22039         0.46104
C         40.19702        37.37850         0.57205
C         38.97041        38.13543         0.63380
C         40.22970        40.25941         1.04392
C         38.97168        39.50687         0.71087
C         40.36148        41.63806         0.40032
C         39.13874        42.30627        -0.17126
C         40.19617        44.52481         0.57639
C         39.08239        43.79308        -0.13953
C         40.29344        46.00569         0.27868
C         39.23421        46.63798        -0.45157
C         40.50279        48.81091        -0.90230
C         39.56739        47.97135        -0.81132
C         42.75523        24.42530        -0.08904
C         41.45130        24.96221         0.12519
C         42.67186        27.17464        -0.01506
C         41.44974        26.42692         0.09400
C         42.66601        28.61408         0.03936
C         41.48419        29.32031         0.18707
C         42.78293        31.50159         0.37065
C         41.47687        30.76775         0.62806
C         42.78365        32.96559         0.76783
C         41.49783        33.71361         0.30898
C         42.75728        35.91758         0.84830
C         41.48958        35.20154         0.45651
C         42.72658        37.39020         0.59540
C         41.43106        38.11729         0.53216
C         42.71971        40.27930         0.67650
C         41.47486        39.47134         0.78142
C         42.76692        41.66985         1.28307
C         41.53205        42.42138         0.84889
C         42.79496        44.62270         0.63731
C         41.54428        43.83156         0.45595
C         42.73298        46.08661         0.86725
C         41.45838        46.68590         0.75100
C         43.01035        48.93984        -0.16942
C         41.60902        48.80640        -0.01620
C         43.83687        25.03369        -0.07731
C         45.28395        27.22005         0.10525
C         43.99193        26.47451         0.11568
C         45.27268        28.70384        -0.22436
C         43.92736        29.38127        -0.20639
C         45.19261        31.56896        -0.34298
C         43.91503        30.85570        -0.02556
C         45.22837        33.06868        -0.09813
C         44.01109        33.71731         0.39110
C         45.18080        35.88017         0.08082
C         44.10343        35.14054         0.86740
C         45.22246        37.38297         0.05500
C         43.95407        38.12531         0.17639
C         45.31760        40.27956         0.45398
C         44.00280        39.60619         0.33881
C         45.24807        41.78641         0.27463
C         44.01133        42.40698         0.88855
C         45.31405        44.62354         1.05892
C         44.01860        43.87091         1.05267
C         45.23309        46.10682         0.82918
C         44.00888        46.78548         0.77738
C         43.80758        48.13761         0.39094
C         47.65724        27.36751        -0.31996
C         46.62614        26.70829        -0.19052
C         47.90143        28.80955         0.05153
C         46.53863        29.49867        -0.12923
C         47.73132        31.63212        -0.57050
C         46.50680        30.85546        -0.30793
C         47.73600        33.03298        -0.54517
C         46.58522        33.73842         0.14694
C         47.68242        36.01759        -0.34412
C         46.45568        35.19760        -0.24861
C         47.70928        37.35200        -0.03498
C         46.49447        38.04448         0.53734
C         47.78014        40.22245         0.48293
C         46.48787        39.56336         0.40511
C         47.81533        41.71653         0.46676
C         46.55319        42.51177         0.63115
C         47.93098        44.62953         0.54227
C         46.58707        43.86573         0.78788
C         47.66072        46.05278         1.00015
C         46.55970        46.60255         0.75862
C         50.21823        28.99461        -1.04552
C         48.98010        29.50942        -0.71496
C         50.12580        31.67218        -1.27170
C         48.94957        30.93745        -0.89160
C         50.06307        33.11128        -1.30606
C         48.89794        33.78574        -0.90146
C         49.96673        36.17977        -1.23089
C         48.99155        35.24466        -0.41397
C         50.11479        37.51815        -0.49900
C         48.97119        38.08870         0.00835
C         50.24534        40.08033         0.91262
C         48.95137        39.47844         0.47863
C         50.34587        41.57746         1.06124
C         49.12471        42.41107         0.73193
C         50.48295        44.35319         0.90997
C         49.07759        43.89847         1.23413
C         51.29313        29.57330        -1.41269
C         52.48089        31.85512        -1.71343
C         51.38864        30.95703        -1.49305
C         52.47753        33.09226        -1.66943
C         51.27542        33.93645        -1.69527
C         52.40581        36.29793        -1.35076
C         51.26859        35.42141        -1.60937
C         52.49942        37.39265        -0.79450
C         51.40294        38.38045        -0.52343
C         52.67036        40.06647         0.91558
C         51.49215        39.13291         0.81070
C         52.72192        41.31605         0.88561
C         51.70043        42.27320         0.97449
C         51.53397        43.66836         0.99668
O         42.35211        44.20620        -0.72160
O         45.43008        35.38389        -1.27183
O         34.35650        40.35015         1.24929
O         50.17319        40.72566         2.24446
O         37.12473        35.76362        -1.01374
O         48.68725        42.21642        -0.62401
O         39.68412        31.13579        -1.19753
O         42.74122        36.81744         1.98759
O         44.70053        26.86790         1.36225
O         32.79329        32.26199         2.11180
O         35.62951        44.42908         0.14375
O         44.54191        37.83525        -1.14164
O         51.13269        34.76589        -2.89389
O         49.31886        35.09507         0.93565
O         31.98429        35.65346         2.10664
O         34.63429        42.59123        -2.64859
O         40.19031        41.77667        -1.06826
O         43.18393        40.27186        -0.71860
O         44.64081        44.27577         2.33674
O         44.55612        28.96506        -1.47454
O         41.30860        48.05894         1.14690
O         34.96912        32.26142        -1.04666
O         45.08724        32.49872        -1.45523
O         41.72015        34.57432        -0.86855
O         41.27002        30.69394         2.07114
H         41.72635        31.46708         2.48690
O         32.05966        37.56788        -1.80420
H         31.54298        38.03537        -2.49788
O         51.31253        39.35489        -1.54590
H         51.21436        38.90494        -2.41098
O         48.86563        43.93003         2.62535
H         49.60866        43.49287         3.09046
O         32.25413        38.15013         1.79930
H         31.84021        37.47056         2.38368
O         48.19991        44.66352        -0.83925
H         47.43018        45.02599        -1.32247
O         40.09718        28.54355        -1.54565
H         40.02635        29.47831        -1.86930
O         42.68127        33.01917         2.24559
H         43.42724        33.58527         2.58359
O         49.30908        36.50216        -2.46585
H         49.57808        35.83013        -3.13661
O         37.49583        40.94364         1.96520
H         38.33950        40.90154         2.47984
O         37.56091        37.18994         2.27879
H         37.47278        38.07331         2.69743
O         30.78965        39.87771         0.67879
H         30.77582        40.85357         0.74680
O         37.83773        27.29877         2.53761
H         37.91533        26.38676         2.88775
O         42.73783        41.46802         2.77007
H         42.94564        42.33083         3.19214
O         45.15852        42.02782        -1.16994
H         44.37950        41.50915        -1.49311
O         40.15148        40.52966         2.49244
H         41.04465        40.85448         2.79712
O         46.91572        33.69111         1.55214
H         47.80801        34.13530         1.63261
O         46.50153        37.76481         1.97673
H         47.43367        37.71935         2.28015
O         37.96231        40.80058        -1.66686
H         38.90193        40.86067        -1.96737
O         39.87271        44.37830         2.00413
H         39.02064        44.83287         2.17852
O         48.22423        28.86857         1.44216
H         49.14867        28.56817         1.56682
O         51.44147        38.20801         1.86463
H         51.35726        38.69570         2.71068
O         44.51235        35.06655         2.26507
H         44.25116        35.92042         2.68939
O         38.84849        33.59105         2.16855
H         39.60049        34.07680         2.57168
