         661
 CSIRO Nanostructure Databank - Neutral Graphene Oxide Data Set
C          5.87445        31.88703         0.22429
C          5.86152        33.21299         0.48429
C          8.38005        27.54623        -0.09686
C          8.31823        28.97674         0.04170
C          7.16279        29.69763        -0.11397
C          8.36331        31.88846         0.36401
C          7.14663        31.20403        -0.21874
C          8.34413        33.27245         0.54769
C          7.09066        33.99958         0.55694
C          8.31054        36.10658         0.94401
C          7.08919        35.36882         0.73796
C          8.34231        37.49291         1.04453
C         10.86312        23.31594        -0.56661
C         10.82666        24.68339        -0.30706
C          9.62170        25.41994        -0.26103
C         10.86135        27.55602        -0.03785
C          9.58382        26.82753        -0.10084
C         10.82413        28.95664         0.09845
C          9.57483        29.66115         0.53398
C         10.79590        31.86681         0.40461
C          9.61041        31.16813         0.35806
C         10.84094        33.23626         1.02832
C          9.55736        34.00083         0.83359
C         10.79050        36.03113         1.57839
C          9.54510        35.35742         1.04624
C         10.81017        37.52266         1.37419
C          9.57907        38.22189         1.19827
C         10.81987        40.34220         1.27915
C          9.60631        39.62164         1.12121
C         10.84250        41.74687         1.17850
C         13.39032        19.07317        -0.80718
C         13.35065        20.49737        -0.93575
C         12.14312        21.19686        -0.71269
C         13.33064        23.32016        -0.87090
C         12.10729        22.60131        -0.72037
C         13.25828        24.82523        -0.98058
C         12.14524        25.36032        -0.00532
C         13.38166        27.54282         0.22451
C         12.08174        26.85144        -0.02793
C         13.36104        29.01077        -0.10654
C         12.03339        29.72765        -0.13030
C         13.36854        31.94802         0.11193
C         12.05054        31.21493         0.00979
C         13.40132        33.46998         0.30598
C         12.07650        34.06506         0.75434
C         13.30923        36.12721         1.26536
C         12.06768        35.38002         1.10886
C         13.29018        37.48973         1.54242
C         12.03044        38.21579         1.47852
C         13.27002        40.35429         1.76407
C         12.04939        39.63544         1.50134
C         13.23023        41.76332         1.78850
C         12.03561        42.47700         1.40334
C         13.18126        44.71673         1.49921
C         12.03865        43.86769         1.18912
C         13.30691        46.05061         0.91749
C         15.66028        14.67864        -0.50812
C         15.36423        15.92928        -1.04058
C         14.45195        16.91905        -0.62611
C         15.75291        18.97951        -1.55606
C         14.53063        18.29590        -1.00252
C         15.75087        20.50004        -1.63747
C         14.54714        21.22642        -1.18309
C         15.82163        23.36118        -1.05300
C         14.54691        22.63618        -1.05291
C         15.78780        24.78773        -0.69359
C         14.57532        25.48813        -0.70796
C         15.82805        27.61896        -0.11126
C         14.57408        26.98107        -0.65925
C         15.81932        28.97260         0.28732
C         14.59301        29.77328         0.20829
C         15.84769        31.85456         0.79386
C         14.58105        31.13328         0.38464
C         15.62208        33.13299         1.67131
C         14.54017        34.01946         1.11829
C         15.75264        36.05571         1.80622
C         14.54069        35.37068         1.37940
C         15.71727        37.45320         2.00867
C         14.51541        38.19928         1.84748
C         15.75772        40.31960         2.17164
C         14.50217        39.62021         1.97893
C         15.73943        41.80652         2.33100
C         14.42856        42.52917         2.18799
C         15.77189        44.74189         1.88343
C         14.44555        44.02995         2.02961
C         15.76305        46.18818         1.42512
C         14.48836        46.77794         0.91320
C         15.73395        48.73710         0.00196
C         14.52419        48.07442         0.34483
C         15.72860        50.06947        -0.46947
C         18.21998        10.51620        -0.88192
C         18.20042        11.91557        -0.70477
C         16.97761        12.63644        -0.67737
C         18.19792        14.76811        -0.79521
C         16.93785        14.03125        -0.73391
C         18.26084        16.18862        -0.96738
C         17.23000        16.93671        -1.52347
C         18.27041        19.10076        -1.24965
C         17.10983        18.36005        -1.44745
C         18.31232        20.52562        -1.31548
C         17.07166        21.27925        -1.82795
C         18.28837        23.44865        -1.28293
C         17.00288        22.71507        -1.32664
C         18.29356        24.82093        -0.67325
C         16.99807        25.47378        -0.40265
C         18.24522        27.51805         0.31639
C         17.02495        26.85899        -0.04264
C         18.20410        28.85561         0.77389
C         17.00698        29.57915         0.76822
C         18.13361        31.65096         1.76736
C         16.83379        30.90150         1.49652
C         18.12121        33.14487         1.72152
C         16.95652        33.87572         1.75134
C         18.23136        36.02758         1.95213
C         16.97379        35.32170         1.85135
C         18.23804        37.45627         2.14615
C         16.94605        38.13885         2.54699
C         18.23713        40.33674         2.47602
C         16.94747        39.62710         2.28667
C         18.25260        41.84655         2.34346
C         16.99142        42.57734         2.09183
C         18.26375        44.53692         1.31133
C         17.01759        43.91995         1.78231
C         18.27795        45.95893         0.84841
C         17.03894        46.80361         0.91357
C         18.18510        48.61872        -0.38311
C         16.97551        48.04439         0.11418
C         18.18777        50.00593        -0.85031
C         16.92339        50.73895        -0.84185
C         18.07632        52.79639        -1.65063
C         16.90446        52.10237        -1.13187
C         18.06801        54.30945        -1.62246
C         20.68482         6.44144        -2.11864
C         20.63818         7.70153        -1.49912
C         19.44897         8.42876        -1.32430
C         20.64578        10.49117        -0.57914
C         19.43033         9.79288        -0.90614
C         20.62911        11.87520        -0.38332
C         19.42908        12.63623        -0.52902
C         20.66137        14.80623        -0.37205
C         19.42221        14.07113        -0.53343
C         20.73843        16.19548        -0.47640
C         19.44871        16.99120        -0.47344
C         20.79185        19.07732        -0.89122
C         19.55952        18.29607        -1.26518
C         20.79189        20.48595        -1.01659
C         19.53864        21.18465        -1.20991
C         20.80948        23.31256        -0.85945
C         19.58374        22.66829        -1.52130
C         20.78179        24.63979        -0.14981
C         19.45232        25.31206         0.18696
C         20.71689        27.48458         0.38622
C         19.51985        26.82027         0.25235
C         20.68328        28.99159         0.54853
C         19.47436        29.38883         1.41350
C         20.70454        31.62341         1.65285
C         19.42320        30.88808         1.69127
C         20.63176        33.06315         2.03680
C         19.43746        33.83736         1.49951
C         20.70358        35.98492         1.92115
C         19.44330        35.30730         1.86199
C         20.72123        37.48747         1.72315
C         19.43766        38.19113         2.10519
C         20.76701        40.30299         2.13362
C         19.50078        39.59520         2.25693
C         20.82444        41.78641         2.02059
C         19.54014        42.55486         2.03736
C         20.68414        44.34066         0.65175
C         19.44750        43.84001         1.30891
C         20.64500        45.65763        -0.06552
C         19.28334        46.35911        -0.22116
C         20.62828        48.44666        -0.82535
C         19.35946        47.85930        -0.39009
C         20.65453        49.91646        -1.17203
C         19.37048        50.64489        -1.17389
C         20.67031        52.80481        -1.61404
C         19.40101        52.03966        -1.65328
C         20.64902        54.19461        -1.80702
C         19.40807        54.93145        -1.95220
C         20.65381        56.95246        -2.55991
C         19.42337        56.24199        -2.35550
C         20.68803        58.16454        -3.24778
C         23.16376         3.83413        -3.19017
C         21.94574         4.47440        -2.93379
C         23.16420         6.40500        -2.04304
C         21.91506         5.76120        -2.35093
C         23.17723         7.69442        -1.45501
C         21.90449         8.27931        -1.00009
C         23.20156        10.43217        -0.56027
C         21.91011         9.71844        -0.49269
C         23.17667        11.84150        -0.09850
C         21.86939        12.56688         0.03092
C         23.18035        14.80792         0.17917
C         21.87203        14.07182         0.07665
C         23.23362        16.24237        -0.19064
C         21.97646        16.92804        -0.44970
C         23.25607        19.05797        -0.73405
C         21.97819        18.33105        -0.69036
C         23.23759        20.53159        -0.67593
C         22.05289        21.19978        -0.92405
C         23.32707        23.36630        -0.70675
C         22.12368        22.67333        -1.29257
C         23.26418        24.83307        -0.57045
C         22.01615        25.46570        -0.13217
C         23.24297        27.54696         0.45287
C         22.00041        26.81201         0.21954
C         23.17949        28.90582         0.95815
C         21.97373        29.57039         1.08314
C         23.12210        31.59392         2.04160
C         21.89305        30.94936         1.52115
C         23.17156        33.07872         1.95599
C         21.90454        33.82776         2.21192
C         23.20204        35.98909         2.01515
C         21.89832        35.28721         2.00443
C         23.13283        37.45037         1.78061
C         21.95394        38.14940         2.38901
C         23.30973        40.28433         1.92002
C         21.95853        39.62405         2.06440
C         23.28703        41.72616         1.49801
C         22.05035        42.41149         1.44103
C         23.20114        44.35638         0.51967
C         22.00372        43.72103         0.95543
C         23.17503        45.72637         0.07667
C         21.91447        46.43348        -0.11556
C         23.10640        48.58135        -0.40449
C         21.87929        47.77806        -0.40117
C         23.10290        50.00083        -0.83409
C         21.91820        50.68130        -1.05460
C         23.11559        52.80886        -1.29721
C         21.91810        52.11655        -1.32561
C         23.20805        54.20913        -1.83981
C         21.88202        54.94751        -1.85186
C         23.11886        57.11067        -2.08411
C         21.87171        56.30170        -2.13142
C         23.13381        58.40349        -2.84749
C         21.91282        58.83302        -3.55139
C         23.25312        60.35340        -4.94055
C         21.99482        59.87503        -4.46695
C         24.37668         4.45006        -2.89657
C         25.62356         6.40736        -2.01035
C         24.40565         5.75241        -2.32850
C         25.64250         7.71926        -1.51088
C         24.38617         8.39276        -1.27917
C         25.68361        10.54847        -0.99276
C         24.37342         9.78346        -0.89546
C         25.61947        11.72645        -0.01149
C         24.42728        12.65318        -0.36665
C         25.65450        14.70131         0.34086
C         24.46525        14.05198         0.22205
C         25.77831        16.15886        -0.06269
C         24.45196        16.88425        -0.15133
C         25.63753        19.12358         0.23605
C         24.53518        18.32212        -0.45292
C         25.68596        20.53883        -0.28288
C         24.50859        21.22398        -0.56091
C         25.76268        23.38431        -0.35483
C         24.51247        22.68124        -0.59533
C         25.78276        24.78064        -0.15653
C         24.56021        25.58525        -0.29780
C         25.75367        27.55286         0.64900
C         24.49478        26.92380         0.31356
C         25.77328        28.89880         1.18412
C         24.48323        29.68282         1.06953
C         25.68809        31.61175         2.32645
C         24.41157        30.87369         1.99404
C         25.74442        33.05568         2.23578
C         24.50231        33.76080         1.88207
C         25.81289        35.82382         1.53529
C         24.51097        35.25190         1.98731
C         25.85333        36.99712         0.73594
C         23.94110        38.08830         0.91304
C         25.60462        40.08419         0.65042
C         24.21972        39.52674         0.92772
C         25.79719        41.53373         1.15258
C         24.47999        42.31309         1.05592
C         25.66574        44.31548         0.19654
C         24.44833        43.65810         0.59123
C         25.63419        45.67476        -0.17926
C         24.38540        46.36753        -0.22269
C         25.57261        48.46929        -1.12209
C         24.41022        47.83007        -0.39966
C         25.57503        49.97903        -0.96314
C         24.37684        50.67455        -0.86059
C         25.63562        52.85215        -1.14321
C         24.35887        52.17367        -0.69799
C         25.64853        54.21414        -1.36560
C         24.36581        54.99792        -1.17491
C         25.67139        56.98723        -2.29852
C         24.41640        56.45131        -1.69704
C         25.67842        58.13671        -3.06382
C         24.48526        58.94882        -3.33544
C         24.44476        59.85673        -4.48575
C         26.87754         8.36942        -1.18010
C         28.13763        10.41516        -0.59768
C         26.93383         9.71737        -0.80845
C         28.19394        11.80757        -0.26141
C         26.94197        12.45627         0.22504
C         28.23734        14.67774         0.54976
C         26.92507        13.93656         0.51072
C         28.22173        16.18602         0.61083
C         26.88033        16.93234         0.69304
C         28.11831        19.04130        -0.10346
C         26.95561        18.38339         0.21784
C         28.14214        20.47499        -0.32267
C         26.95795        21.20779        -0.33872
C         28.20485        23.35610        -0.22004
C         26.97765        22.65747        -0.34811
C         28.20030        24.71994         0.11525
C         26.98812        25.43968         0.18529
C         28.22917        27.53963         0.64307
C         26.96429        26.84631         0.52044
C         28.22178        29.05325         0.78663
C         26.96394        29.54433         1.48667
C         28.30502        31.56637         2.47940
C         27.00856        30.81484         2.24627
C         28.27835        33.10630         2.69935
C         26.93481        33.88480         2.72284
C         28.22275        35.87572         1.69275
C         27.00191        35.21231         1.96388
C         28.24028        37.08188         0.76914
C         26.94968        37.85680         0.67054
C         28.08668        39.99098         0.26211
C         26.88840        39.28264         0.45892
C         28.12922        41.44291         0.17274
C         26.95565        42.19952         0.43692
C         28.11918        44.27776        -0.15701
C         26.91425        43.58478         0.16673
C         28.10039        45.69772        -0.35698
C         26.86667        46.39759        -0.42761
C         28.06966        48.47686        -0.94202
C         26.87078        47.78250        -0.76131
C         28.03427        49.87080        -1.53041
C         26.80804        50.67550        -1.16164
C         28.09173        52.75704        -1.53724
C         26.83964        52.06830        -1.27478
C         28.08219        54.13759        -1.76361
C         26.87345        54.88293        -1.75020
C         26.86606        56.21573        -2.17858
C         29.34296        12.55882        -0.43567
C         30.63239        14.76683        -0.42292
C         29.48437        13.95920        -0.00278
C         30.71928        16.14811        -0.16593
C         29.48366        16.88963         0.24617
C         30.70176        19.04141        -0.23364
C         29.40781        18.30719        -0.21304
C         30.65210        20.52419         0.03433
C         29.45023        21.16819        -0.64987
C         30.65618        23.33321        -0.44155
C         29.46707        22.65189        -0.36012
C         30.56161        24.84809        -0.61875
C         29.52541        25.38162         0.38715
C         30.67295        27.64066         0.40204
C         29.40801        26.88139         0.41796
C         30.68043        28.87488         1.21525
C         29.51274        29.58484         1.37826
C         30.78370        31.27731         2.53297
C         29.54274        30.83113         2.10914
C         30.78954        33.41275         2.72975
C         29.50774        33.92899         2.47895
C         30.71759        36.00633         1.89011
C         29.44914        35.25283         1.97536
C         30.69398        37.44956         1.27700
C         29.43733        37.96905         0.78271
C         30.63477        39.91688        -0.27148
C         29.31076        39.16012        -0.14620
C         30.58672        41.41335        -0.46638
C         29.32341        42.13890        -0.20852
C         30.59335        44.29933        -0.33552
C         29.34498        43.55370        -0.25190
C         30.57053        45.72318        -0.43125
C         29.32776        46.41408        -0.51907
C         30.55655        48.53705        -0.89606
C         29.30919        47.81195        -0.77790
C         30.52268        49.94138        -1.14412
C         29.32724        50.63382        -1.34836
C         29.30910        52.02911        -1.49638
C         31.91320        16.87449        -0.22657
C         33.17855        19.07662        -0.18323
C         31.95307        18.30998         0.23322
C         33.16598        20.47411        -0.36464
C         31.94367        21.22285        -0.32857
C         33.16916        23.31459        -0.61515
C         31.93366        22.61973        -0.49287
C         33.19900        24.79600        -0.63057
C         31.91291        25.56093        -0.56041
C         33.23993        27.50117         0.42066
C         31.94787        26.96985        -0.03168
C         33.27177        28.71611         1.24133
C         31.98411        29.35604         1.70789
C         33.21158        31.53843         2.00224
C         32.04453        30.77419         2.08393
C         33.14005        33.03409         1.64875
C         31.98631        33.91456         2.14900
C         33.20222        35.91723         1.37796
C         31.98203        35.26160         1.76677
C         33.18418        37.30490         0.95859
C         31.97312        37.96412         0.78114
C         33.18588        40.04432         0.15909
C         31.92828        39.27826         0.13007
C         33.10462        41.54094         0.26737
C         31.88427        42.18354        -0.36704
C         33.07243        44.37262        -0.20395
C         31.83208        43.64804        -0.23862
C         33.02979        45.77834        -0.33851
C         31.80382        46.45717        -0.48592
C         31.76521        47.86213        -0.70940
C         34.38310        21.20751        -0.57166
C         35.70019        23.34061        -0.86867
C         34.39189        22.59859        -0.64768
C         35.69000        24.78354        -0.39232
C         34.46969        25.47075        -0.25859
C         35.69264        27.52555         0.43279
C         34.45314        26.82592         0.19869
C         35.70081        28.90611         0.80420
C         34.48131        29.54438         1.26173
C         35.75937        31.60200         1.91983
C         34.44514        30.87399         1.67508
C         35.65317        33.10879         1.80146
C         34.46123        33.78191         1.72045
C         35.66029        35.95324         1.32255
C         34.41967        35.21477         1.44247
C         35.66802        37.34187         0.85702
C         34.43778        37.96728         0.61947
C         35.60560        40.06913        -0.28561
C         34.37487        39.36963         0.22993
C         35.58305        41.56452        -0.09615
C         34.39401        42.26564        -0.04695
C         34.31492        43.67960        -0.15261
C         36.89522        25.47194        -0.19676
C         38.13068        27.59529         0.21707
C         36.92243        26.85418         0.15640
C         38.12012        28.98055         0.46174
C         36.89681        29.64578         0.74989
C         38.14306        31.86958         1.00541
C         36.81691        31.14716         0.86017
C         38.18092        33.22452         1.30314
C         36.95194        33.83886         2.04635
C         38.58990        36.32887         1.15213
C         36.78072        35.31337         1.84083
C         38.21272        37.38699         0.38396
C         36.91295        38.06342         0.50387
C         36.87244        39.36391         0.07866
C         39.32581        29.76277         0.41195
C         40.59190        31.83867         0.59580
C         39.34202        31.12629         0.65645
C         40.61851        33.18422         0.76235
C         39.43212        33.96059         1.06985
C         39.60145        35.33334         0.90681
O         20.68404        48.88456        -2.24574
O         37.81716        36.08337         2.31507
O         21.11351        33.38089         3.37064
O         29.17756        14.10994         1.45940
O         15.48081        19.66071        -2.82642
O         26.93027        12.95343         1.60221
O         29.12094        16.71335         1.66088
O         12.72992        29.29568        -1.36476
O         18.24902        41.21652         3.66283
O         31.22045        27.89832        -0.95527
O         23.94390        48.47906         0.81698
O         23.77571        33.38228         0.63950
O         24.20315        18.64137        -1.83073
O         18.62191        52.24584        -2.89804
O         30.73409        37.17935         2.74112
O         20.61368        44.42031        -0.84213
O         32.69092        28.42183         2.59308
O         21.87979         8.58900         0.43423
O         20.83663        23.35421         0.60282
O         16.17055        16.28705        -2.14804
O         15.84427        45.85830         2.83318
O         18.76620        31.14922         3.00748
O         28.35645        32.17592         3.80718
O         14.96832        42.19133         3.51924
O         36.16573        31.32791         3.22634
O         31.43340        39.24928        -1.31421
O         23.80486        59.47551        -2.14065
O         32.60284        25.42692        -1.85116
O         23.96518        25.55755        -1.64582
O         23.99679        35.72895         3.27420
O         24.56055        40.08178        -0.37502
O         30.88317        32.26973         3.51322
O         22.53551        11.98481         1.19955
O         24.70108        37.32192         0.03058
O         30.13615        18.54579        -1.46943
O         31.36224        41.77507        -1.66309
O         18.11466        46.89848         1.93662
O         23.71464        57.31730        -0.74797
O         20.42425        42.55844         3.21274
O         18.42079        24.67616        -2.13493
O         22.34513        14.58456         1.37463
O         12.70927        31.75277        -1.19750
O         26.25498        30.88959         3.48692
O         13.56085        44.67056         2.94801
O         23.59212        30.83239         3.20305
O         36.24856        31.61719        -0.40724
H         36.79860        31.26079        -1.13656
O         27.88965        49.64235        -2.99013
H         28.71941        49.21964        -3.30085
O         28.13121        29.60513        -0.56786
H         28.89936        29.26401        -1.07670
O         19.76456        17.90452        -2.65543
H         19.89028        18.71990        -3.18545
O         23.59783        54.09012        -3.24937
H         22.93728        53.51966        -3.69730
O         13.68004        34.03023        -1.02708
H         13.13224        33.50861        -1.66229
O         10.92029        32.95340         2.47638
H         10.93055        33.83124         2.93565
O         19.07345        24.91588         1.53527
H         19.60308        24.11780         1.76837
O         18.68028        45.87593        -1.45772
H         19.36254        45.90308        -2.16210
O         32.81899        32.92669         0.20977
H         33.05328        33.77897        -0.21686
O         26.29712        16.08375        -1.42912
H         25.56526        15.81328        -2.02471
O         13.76758        27.36649         1.60051
H         13.59699        26.41986         1.83267
O         31.91516        18.32564         1.72027
H         31.29397        17.61967         2.01011
O         24.23485        52.38811         0.74829
H         24.20283        53.36821         0.89051
O         30.47259        20.68115         1.46525
H         31.10980        20.06586         1.90723
O         19.64628        28.71368         2.67639
H         19.25631        29.28258         3.37743
O         30.01455        25.08897        -1.93126
H         30.77620        25.13753        -2.55341
O         19.20516        17.35502         0.91413
H         19.35167        16.56081         1.47012
O         19.64186        33.79211         0.03510
H         18.76353        33.84139        -0.40077
O          9.53965        29.50498         2.00184
H          8.84409        30.10292         2.34987
O         25.19799        19.25010         1.62664
H         25.48520        18.42848         2.10180
O          7.22914        31.45995        -1.67320
H          7.17890        32.43125        -1.80220
O         17.05398        54.78521        -2.51785
H         17.19404        54.34126        -3.38050
O         28.36246        36.37806        -0.54394
H         28.43417        37.10314        -1.22651
O         25.82896        11.01451        -2.37794
H         25.87622        10.21875        -2.94960
O         26.67823        34.19882         4.11274
H         26.88321        33.38522         4.62897
O         32.85405        41.77021         1.70056
H         33.65459        41.49674         2.19700
O         17.28692        21.40574        -3.25885
H         16.80324        20.65460        -3.68045
O         16.86130        38.01531         4.01421
H         17.50082        38.64851         4.40659
O         23.95710        40.14553         3.22787
H         23.34631        39.65873         3.82984
O         24.62683        30.31046        -0.25675
H         24.94493        29.63024        -0.88864
O         16.49667        32.30842        -0.42327
H         15.81827        32.76543        -0.96927
O         19.77672        22.70245        -2.96625
H         19.32389        23.50866        -3.30659
O         14.34549        27.46985        -2.00361
H         15.10162        27.18692        -2.55792
O         16.28002        30.50291         2.78155
H         17.05258        30.30678         3.36378
O         35.52933        39.89839        -1.75955
H         34.62664        40.16782        -2.03908
O         20.46586        29.59304        -0.75663
H         21.25302        29.41824        -1.31381
O         35.99631        23.33120        -2.28014
H         35.26981        23.79718        -2.74416
O         15.13299        32.82121         2.99173
H         15.53375        31.96514         3.28763
O         12.58181        24.92491         1.32670
H         11.80551        24.96877         1.92477
O         24.34831        13.03503        -1.77479
H         24.81167        12.36128        -2.33309
O         22.34899        22.75854        -2.71709
H         21.49453        22.55153        -3.17369
O         24.10109        55.05402         0.24537
H         23.74390        55.96048         0.42867
O         26.50299        16.93097         2.09238
H         27.33225        17.04248         2.61221
O         20.90078        37.71615         0.29456
H         20.22132        37.19738        -0.18482
O         29.65389        21.05207        -2.08383
H         28.88774        21.46196        -2.53646
O         12.77330        25.16223        -2.30436
H         13.46716        24.93247        -2.95600
O         37.26325        33.66721         3.45176
H         36.98773        32.71980         3.67237
O         28.98369        38.71747        -1.51069
H         29.84562        38.67222        -1.99475
O         30.01385        24.99136         1.70298
H         29.31601        25.17903         2.36516
O         26.21313        41.49843         2.53888
H         25.47137        41.12516         3.07722
O         21.93932        38.00621         3.82256
H         22.33184        37.13573         4.05407
O         25.37173        48.21222        -2.54499
H         26.12865        48.64007        -3.01571
O         10.75069        35.79528         3.03933
H          9.99323        36.30382         3.40066
O         25.28362        11.08844         1.23505
H         25.52651        11.70804         1.96179
H          4.93171        31.32020         0.18999
H          4.91197        33.72672         0.70030
H          7.43739        26.99730        -0.24976
H          6.24068        29.17329        -0.41335
H          6.13528        35.91777         0.75075
H          7.40995        38.06689         0.93603
H          9.92119        22.75681        -0.67545
H          8.67317        24.88091        -0.41143
H          8.67324        40.17737         0.94706
H          9.91709        42.29083         0.94037
H         12.46656        18.57021        -0.48325
H         11.21842        20.62835        -0.53610
H         11.15054        44.33418         0.73792
H         12.42314        46.47631         0.41917
H         14.94148        14.17555         0.15599
H         13.61825        16.62443         0.02976
H         13.57012        48.57092         0.11474
H         14.77714        50.61934        -0.50876
H         17.27260         9.98754        -1.06345
H         16.03302        12.07388        -0.65283
H         15.99107        52.68637        -0.94586
H         17.77184        54.64702        -0.59163
H         19.74678         5.96921        -2.44811
H         18.49623         7.96665        -1.62503
H         18.46945        56.75986        -2.53338
H         19.75048        58.57458        -3.65233
H         23.16021         2.82891        -3.63470
H         20.99950         3.97241        -3.18131
H         23.25155        61.07859        -5.76696
H         21.07505        60.24914        -4.93911
H         25.32402         3.93349        -3.10709
H         26.57444         5.88007        -2.17842
H         26.61592        58.42541        -3.56458
H         25.38830        60.12590        -4.98270
H         27.80626         7.77982        -1.22003
H         29.09008         9.87664        -0.72252
H         29.02495        54.65512        -1.99569
H         27.80562        56.65774        -2.54338
H         30.22042        12.08499        -0.90230
H         31.50261        14.24645        -0.85050
H         31.46941        50.50278        -1.12419
H         30.26125        52.58121        -1.51508
H         32.85120        16.35817        -0.47977
H         34.14015        18.54273        -0.23283
H         33.96994        46.34831        -0.36743
H         32.71156        48.42002        -0.76579
H         35.33356        20.65567        -0.62288
H         36.53457        22.78726        -0.36783
H         36.52136        42.11530        -0.27011
H         35.24484        44.25742        -0.26454
H         37.84766        24.94616        -0.36063
H         39.08544        27.09102         0.00648
H         38.85232        37.69151        -0.45768
H         37.81360        39.85285        -0.21651
H         40.27276        29.25274         0.17879
H         41.51270        31.27882         0.37797
H         41.56873        33.72978         0.66492
H         40.55695        35.67244         0.47481
