         334
 CSIRO Nanostructure Databank - Neutral Graphene Oxide Data Set
C         30.39163        57.17707        -0.59850
C         30.41432        58.58448        -0.76913
C         29.26028        59.28382        -1.23004
C         30.48114        61.37644        -1.22882
C         29.30170        60.65857        -1.44001
C         32.78638        52.84328        -0.06859
C         32.74375        54.28486         0.35574
C         31.54166        55.04401        -0.13443
C         32.78960        57.17158        -0.05398
C         31.58044        56.45056        -0.26238
C         32.78141        58.65452         0.13422
C         31.60479        59.32431        -0.51541
C         32.88664        61.42382        -0.62403
C         31.65234        60.71492        -0.77577
C         35.25882        48.60427         0.17468
C         35.23740        50.02092         0.13551
C         34.03726        50.73234        -0.08961
C         35.25765        52.87234         0.12473
C         33.99509        52.15013        -0.02127
C         35.29101        54.27034         0.10126
C         34.00669        55.02260        -0.13492
C         35.31958        57.16740        -0.01382
C         34.03749        56.46138         0.37426
C         35.29106        58.59948        -0.16811
C         34.10556        59.31054        -0.18865
C         35.32254        61.46603        -0.36776
C         34.10110        60.75316        -0.40662
C         37.65910        44.44194        -0.00524
C         37.59235        45.65288         0.93152
C         36.43518        46.51307         0.50510
C         37.54027        48.68205         1.22061
C         36.40983        47.87890         0.59250
C         37.75480        49.94843         0.37939
C         36.46846        50.73925         0.29843
C         37.74034        52.84544         0.16997
C         36.48650        52.13983         0.22964
C         37.74256        54.24299         0.02279
C         36.52106        54.97872         0.04129
C         37.78158        57.13817        -0.00459
C         36.50702        56.43666        -0.03741
C         37.80585        58.60725         0.02214
C         36.58672        59.31351        -0.51777
C         37.70726        61.47778         0.15859
C         36.56249        60.79505        -0.19474
C         40.38252        40.44322        -0.95345
C         40.23867        41.69599        -0.28274
C         38.98866        42.30626        -0.48432
C         40.32076        44.34595         1.23165
C         38.52491        43.42713         0.27216
C         40.20534        45.71056         1.27891
C         38.94232        46.46835         0.84055
C         40.12504        48.64929         1.63507
C         38.84402        47.88225         1.42498
C         40.11148        50.18736         1.57788
C         38.95206        50.77901         0.76771
C         40.29208        52.76717         0.11070
C         38.96901        52.10319         0.41013
C         40.28371        54.27568         0.19918
C         39.02840        54.97200        -0.29496
C         40.21406        57.18356         0.13464
C         38.95121        56.43034         0.08769
C         40.19799        58.57621         0.71836
C         38.92775        59.29866         0.35306
C         40.20664        61.43169         0.12176
C         38.94959        60.78357         0.61908
C         42.76416        36.25707        -1.86968
C         42.72138        37.53381        -1.28375
C         41.56469        38.34942        -1.40740
C         42.64369        40.10553         0.02773
C         41.50931        39.63352        -0.84514
C         42.68859        41.60456         0.19930
C         41.45133        42.30187         0.33098
C         42.75189        44.34642         0.88071
C         41.51484        43.63094         0.84412
C         42.75668        45.75427         1.11269
C         41.48516        46.43921         1.42911
C         42.72575        48.65726         1.34552
C         41.46688        47.93079         1.60152
C         42.71172        50.06729         1.32602
C         41.44877        50.81108         1.19553
C         42.78800        52.80936         0.48242
C         41.47493        52.10311         0.76278
C         42.71510        54.31230         0.65253
C         41.46869        54.96359         0.33146
C         42.72211        57.18534         0.52139
C         41.49671        56.43469         0.20177
C         42.67962        58.62107         0.36446
C         41.45989        59.31991         0.34236
C         42.65670        61.39264        -0.21995
C         41.42491        60.73024         0.06471
C         45.27500        33.69019        -2.95984
C         44.02834        34.31472        -2.68018
C         45.12450        35.89589        -1.11905
C         43.94343        35.47072        -1.90119
C         45.12484        37.25543        -0.41255
C         43.92435        38.11550        -0.72365
C         45.18299        40.13726        -0.11328
C         43.94714        39.44379        -0.33523
C         45.16510        41.49116         0.23226
C         43.93726        42.23193         0.41702
C         45.19380        44.37931         0.80635
C         43.98319        43.65035         0.69089
C         45.20281        45.79260         0.96409
C         43.95600        46.49056         1.12642
C         45.18826        48.64923         1.23697
C         43.95176        47.93851         1.25234
C         45.18030        50.07620         1.31793
C         43.94248        50.75724         1.32117
C         45.16898        52.96740         1.26418
C         43.86555        52.24544         1.42613
C         45.13527        54.34571         1.11036
C         43.89644        55.03675         0.84301
C         45.16055        57.20200         0.60387
C         43.91456        56.49173         0.70627
C         45.14053        58.60699         0.25813
C         43.91029        59.31987         0.18347
C         45.13516        61.38013        -0.36496
C         43.89740        60.71958        -0.13745
C         46.45659        34.17353        -2.46216
C         47.68432        35.97223        -1.15195
C         46.45676        35.23102        -1.44759
C         47.66115        37.31447        -0.73419
C         46.42709        38.02109        -0.53871
C         47.67785        40.10683        -0.28670
C         46.44046        39.40889        -0.31917
C         47.65709        41.60838        -0.32414
C         46.46348        42.18191         0.42357
C         47.69484        44.45286         0.52036
C         46.47500        43.66134         0.73029
C         47.67364        45.81604         0.71346
C         46.44113        46.52070         0.97034
C         47.66655        48.66651         1.25231
C         46.44539        47.94248         1.14335
C         47.68050        50.10437         1.43095
C         46.41714        50.82738         1.38538
C         47.63498        52.98207         1.34931
C         46.40100        52.23973         1.38532
C         47.65147        54.35225         1.14858
C         46.38620        55.14456         1.37457
C         47.60714        57.13468         0.43693
C         46.38670        56.51549         0.75192
C         47.57151        58.48875        -0.13952
C         46.34116        59.27629        -0.04879
C         47.61079        61.36588        -0.48864
C         46.36152        60.68201        -0.33132
C         48.88575        38.02582        -0.55166
C         50.22834        40.09217        -0.12822
C         48.89854        39.40027        -0.33164
C         50.13328        41.57311         0.13243
C         48.95281        42.24819         0.09897
C         50.13753        44.29398         0.90811
C         48.97612        43.76094         0.10013
C         50.13106        45.75858         1.16309
C         48.97371        46.58596         0.59952
C         50.11373        48.61283         1.51617
C         48.93198        47.98059         1.19413
C         50.16815        50.06284         1.93713
C         48.87942        50.78430         1.61412
C         50.10929        52.85346         0.96705
C         48.91081        52.28172         1.74889
C         50.11264        54.36557         0.89770
C         48.88933        55.06513         0.91466
C         50.09031        57.15527         0.34103
C         48.85827        56.46080         0.57641
C         50.12087        58.55102         0.04472
C         48.88144        59.23861        -0.33485
C         50.08546        61.39408        -0.39916
C         48.85417        60.71726        -0.39661
C         51.38899        42.25888         0.43010
C         52.69247        44.23588         1.28335
C         51.41739        43.55431         0.83514
C         52.64292        45.75460         1.24735
C         51.42920        46.43360         1.33576
C         52.69307        48.63942         1.44758
C         51.38987        47.87174         1.59572
C         52.60579        50.09341         1.18332
C         51.42387        50.76614         1.40904
C         52.61845        52.91986         0.79299
C         51.44157        52.27454         1.48738
C         52.57425        54.29969         0.53988
C         51.32932        55.03311         0.63434
C         52.54515        57.12238         0.12126
C         51.32441        56.44146         0.40678
C         52.55770        58.55157         0.01210
C         51.33031        59.26420        -0.01029
C         52.53569        61.40298        -0.21534
C         51.33547        60.71387        -0.23213
C         53.85716        46.47210         1.11516
C         55.02977        48.59730         0.64835
C         53.89407        47.88067         1.04880
C         55.02371        50.01952         0.53292
C         53.81533        50.76706         0.76684
C         55.00926        52.85395         0.17868
C         53.81285        52.17525         0.57308
C         55.00744        54.25818         0.00220
C         53.76883        54.99368         0.14419
C         54.92068        57.06885        -0.68923
C         53.74239        56.38036        -0.05582
C         54.97227        58.54774        -0.39006
C         53.79886        59.25016        -0.12407
C         55.01405        61.39189        -0.55190
C         53.84111        60.74068         0.12551
C         56.20046        50.70163         0.16532
C         57.43315        52.79873        -0.26136
C         56.23541        52.11205         0.01387
C         57.47571        54.22366        -0.32108
C         56.22491        54.95072        -0.23766
C         57.41207        57.07654        -0.53175
C         56.22929        56.36720        -0.43117
C         57.39177        58.49511        -0.82258
C         56.18799        59.23264        -0.65612
C         57.35667        61.28226        -1.35686
C         56.17374        60.67260        -0.84054
C         58.67906        54.92514        -0.43208
C         59.81454        57.01700        -1.13033
C         58.74196        56.41292        -0.27257
C         59.74208        58.34134        -1.55671
C         58.55730        59.13265        -1.28746
C         59.67812        61.12330        -2.19793
C         58.52301        60.53435        -1.60889
C         60.83515        58.98134        -2.21589
C         60.79725        60.34530        -2.50126
O         39.34554        48.09808         2.75907
O         41.60302        47.06674         2.77969
O         45.64265        34.85278        -0.23964
O         40.97273        56.97520        -1.10514
O         49.77898        44.81226         2.23244
O         39.20882        43.54184         1.50442
O         52.19649        48.27230         2.78473
O         43.06175        52.68003        -0.88590
O         48.21720        58.58908        -1.46792
O         46.69684        42.61162         1.78554
O         38.04282        49.48165        -0.97565
H         38.35420        50.24911        -1.50294
O         40.22050        58.42189         2.17018
H         39.96773        59.30649         2.53799
O         39.12195        54.98129        -1.75694
H         39.88998        55.56177        -1.98040
O         51.63280        52.60944         2.89197
H         51.24250        51.88012         3.42908
O         49.22621        44.13544        -1.28723
H         48.52611        43.69608        -1.82521
O         54.69867        56.96180        -2.14598
H         53.86305        57.43393        -2.34894
O         54.03366        60.90981         1.59304
H         54.91746        60.54432         1.81177
O         53.81255        43.73625         0.54899
H         53.61631        43.81543        -0.40678
O         32.61840        58.84836         1.62997
H         31.66869        58.69381         1.82873
O         36.71310        59.22628        -1.97343
H         35.92575        59.66069        -2.36417
O         49.22333        46.78724        -0.82016
H         50.01765        47.35192        -0.91878
O         49.93714        52.38503        -0.39682
H         50.56266        52.87221        -0.97314
O         33.88533        55.14253        -1.57926
H         33.95759        54.24436        -1.96554
O         50.30627        50.11076         3.42194
H         51.02400        49.45524         3.63108
O         42.35446        39.60373         1.38449
H         42.65191        38.66866         1.42675
O         43.36601        52.56995         2.76401
H         43.90467        52.07934         3.41908
O         49.02814        52.58836         3.17100
H         49.24746        51.75498         3.64854
O         40.48658        52.48264        -1.31555
H         41.47788        52.59125        -1.47658
O         34.05470        56.48760         1.84781
H         33.69780        57.37768         2.10717
O         32.65418        54.25250         1.81291
H         33.12418        55.05303         2.16391
O         51.06711        39.91241        -1.28198
H         51.12392        38.95348        -1.47094
O         37.08446        49.13408         2.50983
H         37.09556        48.36804         3.12228
O         46.38245        55.41147         2.83014
H         46.53419        54.55569         3.28641
O         44.98987        36.97974         1.02156
H         45.39514        36.08929         1.16274
O         39.84800        50.64917         2.93012
H         39.26006        49.97467         3.34683
O         38.97315        60.89592         2.11996
H         38.05723        60.72905         2.43256
O         47.43854        41.99993        -1.73304
H         48.05213        41.46403        -2.28082
O         59.09426        56.69804         1.15084
H         58.43734        56.23134         1.71050
O         39.19390        46.70859        -0.57166
H         39.04687        45.86739        -1.05664
O         37.36212        45.26872         2.29686
H         37.99136        44.53727         2.50370
H         29.45957        56.62458        -0.78434
H         28.33629        58.72105        -1.42511
H         30.51293        62.45819        -1.42160
H         28.40200        61.18307        -1.79167
H         31.84422        52.28379        -0.17602
H         30.57566        54.52477        -0.23410
H         32.89874        62.51087        -0.79244
H         34.35085        48.04689        -0.10267
H         33.09782        50.17459        -0.21643
H         35.29782        62.56650        -0.36294
H         37.07840        44.44700        -0.93880
H         35.55800        45.99877         0.08006
H         37.65332        62.56857         0.30737
H         39.51822        40.06616        -1.52265
H         38.31143        41.84842        -1.22172
H         40.19019        62.50558        -0.11631
H         41.87078        35.88379        -2.39282
H         40.69703        37.96567        -1.96545
H         42.64203        62.46641        -0.45903
H         45.29034        32.85764        -3.67799
H         43.12868        33.95815        -3.20228
H         45.13544        62.45812        -0.58459
H         47.41974        33.77883        -2.81643
H         48.65091        35.50428        -1.39111
H         47.59130        62.45926        -0.61147
H         49.83355        37.46880        -0.61129
H         50.73835        39.60442         0.75865
H         50.09375        62.49024        -0.49727
H         52.32199        41.68082         0.36235
H         52.87023        43.95294         2.35952
H         52.53430        62.49231        -0.37398
H         54.77896        45.90068         0.93196
H         55.95253        48.05103         0.40329
H         54.99677        62.48093        -0.70714
H         57.12428        50.12471         0.00888
H         58.36994        52.23106        -0.36265
H         57.35029        62.36124        -1.57352
H         59.62539        54.36588        -0.48637
H         60.70024        56.41249        -1.37884
H         59.67029        62.19526        -2.44239
H         61.73470        58.39527        -2.45360
H         61.66731        60.81914        -2.97798
