         324
 CSIRO Nanostructure Databank - Neutral Graphene Oxide Data Set
C         30.52793        57.01782        -1.24953
C         30.58124        58.32779        -1.71625
C         29.41591        59.07309        -2.03308
C         30.70697        61.14239        -2.19531
C         29.49274        60.44117        -2.28485
C         32.84329        52.92881         0.27347
C         32.79145        54.30890         0.16802
C         31.66227        55.00179        -0.37745
C         32.91936        57.12457        -0.63317
C         31.68478        56.35019        -0.73916
C         33.03145        58.36436        -1.19886
C         31.91205        58.96796        -1.97741
C         33.13323        61.17285        -1.80441
C         31.92373        60.47574        -1.95719
C         35.31060        48.67688         0.48634
C         35.23801        50.04447         0.77006
C         34.05739        50.78739         0.57240
C         35.19834        52.90267         1.04131
C         34.02532        52.20429         0.68678
C         35.22419        54.37020         0.96631
C         33.96865        55.10621         0.58703
C         35.40942        57.14877        -0.05225
C         34.06213        56.53319         0.11297
C         35.57455        58.38086        -0.87208
C         34.33783        59.05704        -1.34620
C         35.57278        61.20028        -1.33473
C         34.36465        60.52540        -1.52100
C         37.72255        44.33691         0.68928
C         37.65694        45.74385         1.20905
C         36.49162        46.53927         0.69053
C         37.73214        48.63932         1.09268
C         36.49511        47.91929         0.75481
C         37.71429        50.02013         1.33907
C         36.41487        50.70347         1.39024
C         37.67361        52.99775         1.92184
C         36.37830        52.22505         1.57703
C         37.77434        54.37583         1.27679
C         36.56772        54.96806         0.68455
C         37.90886        57.12468         0.30776
C         36.66139        56.35922         0.13968
C         37.91675        58.52673        -0.02422
C         36.79361        59.16172        -0.58811
C         37.96038        61.29465        -0.65887
C         36.77652        60.56135        -0.88360
C         40.16638        39.98982         0.32832
C         40.13833        41.37373         0.91752
C         38.93778        42.20604         0.54276
C         40.15934        44.31023         1.12025
C         38.89406        43.58569         0.80448
C         40.17890        45.79172         1.01393
C         38.96254        46.49860         1.06351
C         40.22010        48.60112         1.55673
C         38.94884        47.90591         1.14536
C         40.20574        50.09425         1.37721
C         38.94217        50.79093         1.47903
C         40.20820        52.89008         1.77237
C         38.93073        52.17578         1.62920
C         40.20899        54.44462         1.68901
C         38.95394        55.09022         1.25107
C         40.27284        57.23226         0.97914
C         39.04350        56.47558         0.79247
C         40.26056        58.64599         0.73044
C         39.11827        59.27833         0.22069
C         40.33420        61.40986        -0.07544
C         39.12228        60.68662        -0.14226
C         42.58488        35.87658        -0.91023
C         42.56089        37.24769        -0.49795
C         41.37250        37.94840        -0.35143
C         42.62512        40.02383         0.18289
C         41.34671        39.33125         0.05732
C         42.61192        41.44005         0.46776
C         41.43520        42.10909         0.69300
C         42.61328        44.31899         0.37063
C         41.44783        43.56430         0.97028
C         42.65565        45.79424         0.64277
C         41.41913        46.50302         0.88553
C         42.59903        48.66327         0.70084
C         41.43422        47.91250         0.99557
C         42.61705        50.05573         0.87521
C         41.41932        50.78139         1.24326
C         42.65267        52.96036         1.34343
C         41.46323        52.21612         1.41777
C         42.67053        54.38377         1.43313
C         41.48441        55.14047         1.45019
C         42.68657        57.36912         1.78789
C         41.47244        56.56451         1.32253
C         42.76093        58.75048         1.15898
C         41.44826        59.50627         1.14171
C         42.74183        61.46596         0.23945
C         41.51870        60.81273         0.38023
C         45.03562        33.19988        -1.79001
C         43.80918        33.84998        -1.55290
C         45.02989        35.70476        -0.37690
C         43.76674        35.13819        -0.98407
C         45.01633        37.21340        -0.36782
C         43.84277        37.92641        -0.29144
C         45.08748        40.08345         0.02146
C         43.83528        39.35681        -0.00516
C         45.15752        41.44782         0.24761
C         43.91314        42.14432         0.61470
C         45.17248        44.36275         0.32793
C         43.92992        43.63852         0.66035
C         45.11824        45.76969         0.21644
C         43.84785        46.45951         0.42500
C         45.07055        48.66108        -0.04994
C         43.78962        47.92311         0.22238
C         45.06999        50.15353         0.05700
C         43.81525        50.84469         0.53611
C         45.19597        52.97724         0.83084
C         43.92959        52.23150         1.09318
C         45.12764        54.48882         0.70140
C         43.97767        55.10080         1.48593
C         45.27903        57.34959         1.46389
C         43.99453        56.58278         1.69505
C         45.24050        58.73996         1.01929
C         43.95441        59.39924         0.90075
C         45.17848        61.50393         0.40681
C         43.97210        60.81409         0.51566
C         46.25025        33.81959        -1.53789
C         47.51936        35.77241        -0.78794
C         46.31626        35.12416        -0.94713
C         47.60214        37.14001        -0.24310
C         46.30685        37.87940        -0.10451
C         47.64327        40.07492        -0.25919
C         46.32723        39.35554        -0.29195
C         47.63103        41.51697         0.05027
C         46.40139        42.18793         0.19360
C         47.60612        44.36312         0.10661
C         46.38634        43.63648         0.23014
C         47.56257        45.77516         0.03728
C         46.34516        46.49018         0.05675
C         47.53178        48.67725         0.12861
C         46.36077        47.94898         0.06712
C         47.54305        50.12383         0.20714
C         46.37352        50.83648         0.19635
C         47.65820        53.01253         0.30342
C         46.33637        52.33450         0.03751
C         47.64630        54.44974         0.49241
C         46.48802        55.12506         0.88285
C         47.72536        57.29757         0.63746
C         46.56818        56.56174         1.15948
C         47.69456        58.71932         0.62012
C         46.44435        59.41723         0.75181
C         47.64442        61.55355         0.42395
C         46.43979        60.85148         0.52914
C         48.86516        37.92904        -0.28207
C         50.20215        40.01027         0.08723
C         48.89303        39.27704        -0.14354
C         50.12305        41.52261        -0.01954
C         48.87593        42.21850         0.07028
C         50.09495        44.34044        -0.01990
C         48.87291        43.64845         0.07491
C         50.09310        45.81995        -0.29405
C         48.84817        46.54548         0.24871
C         50.10037        48.70402        -0.02876
C         48.79859        47.97614        -0.29396
C         50.10355        50.10817         0.03769
C         48.85575        50.81905         0.51462
C         50.10787        52.99254         0.17777
C         48.84219        52.30520         0.24149
C         50.12522        54.41415         0.21700
C         48.89640        55.15990         0.37646
C         50.13460        57.29329        -0.09458
C         48.88448        56.56767         0.32027
C         50.14492        58.76414         0.25271
C         48.90900        59.45155         0.42436
C         50.13381        61.58094         0.33493
C         48.90646        60.88506         0.41992
C         51.31033        42.23511        -0.13239
C         52.54628        44.40079        -0.37027
C         51.32844        43.65834        -0.16349
C         52.59766        45.79288        -0.30064
C         51.36262        46.50851         0.20368
C         52.52987        48.69766        -0.25918
C         51.32004        47.99627        -0.08098
C         52.51136        50.10463        -0.35443
C         51.31518        50.81954        -0.12119
C         52.53273        52.99243        -0.18804
C         51.32482        52.28289        -0.03934
C         52.58538        54.39960         0.05772
C         51.36449        55.08959         0.23568
C         52.62717        57.29400         0.47258
C         51.34717        56.55516         0.42185
C         52.63595        58.72161        -0.03742
C         51.34559        59.46116         0.22317
C         52.61898        61.59248         0.18510
C         51.37148        60.89793         0.27391
C         53.78342        46.55045        -0.44987
C         55.00383        48.68844        -0.41876
C         53.79334        47.95971        -0.38805
C         55.03527        50.09721        -0.49370
C         53.74170        50.79156        -0.89577
C         55.06960        53.01154        -0.48776
C         53.75511        52.30120        -0.65760
C         55.07731        54.40719        -0.00125
C         53.85220        55.10580         0.14111
C         55.08504        57.21665         0.46525
C         53.89121        56.52864         0.35822
C         55.12744        58.69127         0.64528
C         53.84040        59.46702         0.49092
C         55.10788        61.56259         0.15672
C         53.86495        60.92941         0.23995
C         56.23896        50.80433        -0.38600
C         57.51599        52.91578        -0.18986
C         56.32141        52.22571        -0.36634
C         57.55577        54.34497        -0.03675
C         56.31758        55.04567         0.16582
C         57.65554        57.24299         0.37855
C         56.33735        56.46538         0.51940
C         57.57974        58.70373         0.14706
C         56.38788        59.41242         0.35776
C         57.54351        61.50201        -0.18117
C         56.34633        60.83391         0.13885
C         58.76253        55.06562        -0.14531
C         59.95240        57.20381        -0.51083
C         58.82439        56.48383        -0.11015
C         59.95984        58.63264        -0.55616
C         58.76241        59.37318        -0.26971
C         59.95213        61.46486        -0.77107
C         58.75041        60.79748        -0.39835
C         61.11876        59.34120        -0.93481
C         61.10834        60.74033        -1.02735
O         44.23503        48.21248        -1.16577
O         51.86857        57.04749         1.69813
O         54.39634        52.96585        -1.81056
O         32.21220        58.67295        -3.48539
O         40.95161        43.88168         2.30942
O         44.20163        55.65062         2.81499
O         35.21194        58.29316        -2.29771
O         44.96351        52.40616         2.14195
O         46.23781        57.05167         2.51371
O         34.62437        57.41805         1.14921
O         36.06234        51.30517         2.68690
O         44.00414        42.88455         1.90250
O         54.32061        59.12166         1.81195
O         46.95603        37.33812         1.10842
O         36.74227        55.21096        -0.77598
O         40.22961        53.75116         2.96153
O         46.95559        39.77787        -1.55133
O         34.37049        54.98502         1.99184
O         44.16262        50.80090        -0.91117
O         57.18002        56.81270         1.68208
O         48.96985        50.73964         1.98194
H         48.21202        51.22388         2.37480
O         45.01424        35.31435         1.03614
H         45.73811        35.83035         1.46905
O         51.43157        46.35328         1.65140
H         52.20532        46.86493         1.96769
O         50.24699        57.22736        -1.56213
H         49.41919        57.58937        -1.94423
O         44.75663        54.78235        -0.68331
H         45.29629        54.17586        -1.26093
O         40.30390        48.40524         3.03151
H         40.38596        47.43920         3.18940
O         51.22269        39.49551        -0.77560
H         50.95767        39.67212        -1.70141
O         52.80270        58.64091        -1.48326
H         51.99555        58.19718        -1.84237
O         42.39188        44.19358        -1.07500
H         42.97659        44.83537        -1.53229
O         37.64219        53.23150         3.34841
H         37.26344        52.42151         3.76158
O         42.44110        57.59094         3.21405
H         42.83107        56.81689         3.68736
O         40.02219        41.20986         2.38446
H         40.25981        42.08672         2.77715
O         32.73647        57.34536        -3.59270
H         33.71160        57.47464        -3.44557
O         53.64587        50.58773        -2.33825
H         54.12172        51.34551        -2.75401
O         50.14502        45.90542        -1.74971
H         49.45878        45.30761        -2.11466
O         37.43388        45.62107         2.66989
H         37.39775        46.53140         3.03541
O         48.93432        46.68636         1.68471
H         49.28065        45.85178         2.06479
O         48.65663        47.98659        -1.74201
H         49.45005        47.53788        -2.12433
O         41.17331        59.90465         2.52603
H         41.43437        59.14697         3.10463
O         46.07215        52.58942        -1.38500
H         45.33861        51.97113        -1.64336
H         29.55752        56.50005        -1.20135
H         28.43468        58.57763        -1.99541
H         30.70446        62.23947        -2.27444
H         28.56927        61.00238        -2.48605
H         31.96960        52.33844        -0.04184
H         30.74746        54.42106        -0.57129
H         33.12195        62.27096        -1.88660
H         34.41748        48.15311         0.11426
H         33.15627        50.26497         0.21841
H         35.59683        62.29113        -1.48077
H         36.78710        43.83977         0.38968
H         35.55405        46.01144         0.45742
H         37.98629        62.36677        -0.90518
H         39.21282        39.44640         0.23925
H         37.99578        41.68884         0.30110
H         40.37084        62.42992        -0.48829
H         41.64144        35.41248        -1.23884
H         40.41472        37.42587        -0.49651
H         42.76425        62.48682        -0.17261
H         45.02734        32.20149        -2.25003
H         42.87287        33.37503        -1.88178
H         45.15877        62.58150         0.18460
H         47.18885        33.32205        -1.82422
H         48.44634        35.29679        -1.14525
H         47.62054        62.64848         0.31783
H         49.81429        37.36988        -0.28076
H         50.53573        39.77184         1.13686
H         50.12558        62.68113         0.32277
H         52.25658        41.68039        -0.21740
H         53.46566        43.83670        -0.59191
H         52.60366        62.69027         0.10570
H         54.73143        46.02481        -0.64486
H         55.95535        48.13748        -0.35245
H         55.14838        62.65085        -0.00314
H         57.16871        50.23421        -0.23068
H         58.46376        52.35743        -0.16529
H         57.52806        62.59312        -0.32242
H         59.67938        54.51319        -0.40078
H         60.85860        56.66057        -0.81841
H         59.95303        62.56073        -0.85797
H         62.04044        58.78513        -1.15843
H         62.02808        61.26756        -1.31733
