         324
 CSIRO Nanostructure Databank - Neutral Graphene Oxide Data Set
C         30.50520        57.28214        -0.93656
C         30.49845        58.65885        -0.83974
C         29.37601        59.44667        -1.24528
C         30.63837        61.52062        -0.95363
C         29.44392        60.83027        -1.26626
C         32.86660        52.90630        -0.46721
C         32.85589        54.34325        -0.42329
C         31.68067        55.10687        -0.70977
C         32.90323        57.20304        -0.32710
C         31.67801        56.49943        -0.62393
C         32.94149        58.61530        -0.22870
C         31.64453        59.37395        -0.15629
C         33.01793        61.47527        -0.32838
C         31.78381        60.83128        -0.53662
C         35.13361        48.43880        -0.12543
C         35.17243        49.95776        -0.13838
C         34.06183        50.69937        -0.39048
C         35.22773        52.81433         0.15167
C         34.02620        52.15402        -0.22428
C         35.21972        54.29101         0.42394
C         34.05209        55.03710        -0.14089
C         35.34480        57.16238        -0.05232
C         34.10663        56.45890        -0.16919
C         35.37737        58.55286        -0.04079
C         34.16324        59.29352        -0.09288
C         35.43251        61.41653         0.15600
C         34.20749        60.75688        -0.07058
C         37.83357        44.22841        -0.04840
C         37.77848        45.64839        -0.18787
C         36.53759        46.36513        -0.24641
C         37.71194        48.49800        -0.12703
C         36.49035        47.74685        -0.17308
C         37.69665        49.91578         0.00553
C         36.41638        50.60337         0.42789
C         37.66033        52.79454         0.36510
C         36.44444        52.10596         0.26321
C         37.69475        54.23576         0.41709
C         36.53926        54.95445         0.21009
C         37.69715        57.06667         0.78731
C         36.65251        56.41740        -0.12878
C         37.85267        58.53527         0.51918
C         36.70591        59.27049        -0.12933
C         37.86933        61.36552         0.55619
C         36.66029        60.72764         0.26115
C         40.21559        40.09625         1.10250
C         40.30869        41.43685         0.51284
C         39.11235        42.13322         0.36315
C         40.29478        44.24520         0.01653
C         39.05089        43.53116         0.06523
C         40.24806        45.70444         0.06571
C         38.98016        46.39658        -0.16496
C         40.18896        48.56129        -0.33178
C         38.96690        47.81526        -0.21424
C         40.13336        49.96534        -0.26783
C         38.89017        50.62445        -0.05835
C         40.17035        52.67393         0.55660
C         38.92392        52.12612        -0.10170
C         40.15089        54.11414         0.95252
C         38.95828        54.93479         0.64795
C         40.24775        57.01315         1.02155
C         39.00314        56.30096         0.76113
C         40.25252        58.45588         1.07226
C         39.04953        59.18755         0.77182
C         40.30658        61.31174         0.94961
C         39.09465        60.65216         0.72860
C         42.86670        35.91841         1.77775
C         42.72552        37.30786         1.56959
C         41.42324        37.84561         1.55549
C         43.04878        40.12404         0.49023
C         41.14375        39.09896         0.91498
C         42.84490        41.54971         0.38288
C         41.57242        42.14426         0.26800
C         42.75530        44.33005        -0.16808
C         41.52952        43.58059         0.06868
C         42.75223        45.70273        -0.46714
C         41.56732        46.48735        -0.16138
C         42.58714        48.61007        -0.96338
C         41.47540        47.91283        -0.53051
C         42.52101        50.09297        -0.99100
C         41.35577        50.73472        -0.36430
C         42.67795        52.76802         0.13270
C         41.43965        52.03413         0.12012
C         42.72247        54.11349         0.75511
C         41.44740        54.82674         1.14628
C         42.66858        56.98023         1.68090
C         41.43039        56.29917         1.16839
C         42.69143        58.44973         1.35120
C         41.50418        59.15251         1.20175
C         42.74263        61.30381         1.33040
C         41.53615        60.61673         1.14388
C         45.39242        33.17230         1.66914
C         44.17778        33.84125         1.80750
C         45.33017        36.00265         1.48988
C         44.10722        35.25311         1.71579
C         45.29957        37.38922         1.41079
C         44.01518        38.13700         1.72753
C         45.29859        40.36538         1.48628
C         44.07336        39.54179         1.16567
C         45.30366        41.67884         0.70902
C         44.05616        42.30936         0.38171
C         45.23852        44.30168        -0.36792
C         44.01741        43.64774        -0.04053
C         45.19585        45.56548        -1.01064
C         43.99967        46.43786        -0.81060
C         45.06109        48.82488        -1.59756
C         43.92975        47.95326        -1.06918
C         45.06557        50.17575        -1.30583
C         43.81078        50.90543        -1.02303
C         45.12883        52.95716        -0.30279
C         43.85798        52.23881        -0.39378
C         45.16774        54.27883         0.14711
C         43.87054        55.02514         0.37368
C         45.26721        56.91294         1.38588
C         43.96384        56.20725         1.33566
C         45.26740        58.40714         1.33051
C         43.97672        59.16012         1.23877
C         45.22338        61.27875         1.53774
C         44.00165        60.63267         1.41879
C         46.57873        33.87416         1.43610
C         47.77512        36.00927         1.15111
C         46.57971        35.28371         1.34657
C         47.78864        37.41243         1.11041
C         46.52537        38.14102         1.24131
C         47.82019        40.25154         1.14335
C         46.54570        39.52993         1.24735
C         47.79196        41.70621         0.75868
C         46.49110        42.34135         0.43289
C         47.69515        44.32369        -0.50778
C         46.48449        43.63167        -0.20183
C         47.65926        45.52896        -1.21986
C         46.37800        46.00476        -1.59150
C         47.55980        48.75633        -1.79827
C         46.31170        48.22896        -2.01047
C         47.63567        50.21544        -1.63991
C         46.27708        50.99479        -1.45346
C         47.58671        52.93267        -0.65801
C         46.35438        52.31265        -0.78347
C         47.66951        54.24213         0.02400
C         46.41677        54.99667         0.29832
C         47.78524        56.91677         1.31026
C         46.48214        56.26155         0.84423
C         47.72712        58.44410         1.35969
C         46.53976        59.13282         1.52618
C         47.69328        61.29245         1.65667
C         46.50494        60.59637         1.56922
C         49.01550        38.11024         0.95327
C         50.28615        40.22657         0.71132
C         49.08388        39.51020         0.91673
C         50.31402        41.60830         0.38613
C         48.99440        42.22400        -0.01274
C         50.26235        44.44603        -0.35043
C         48.98289        43.73498        -0.05795
C         50.19369        45.67121        -1.18313
C         48.87640        46.41818        -1.28178
C         50.06026        48.71673        -1.69481
C         48.79548        47.92121        -1.57664
C         50.09000        50.05326        -0.98530
C         48.85167        50.88070        -1.22426
C         50.07876        52.98115        -0.96142
C         48.85169        52.27631        -0.98475
C         50.28781        54.34775        -0.37025
C         48.97046        55.00043         0.07786
C         49.65925        57.40639        -0.19578
C         48.87881        56.45204         0.37513
C         49.97423        58.67461         0.42074
C         48.95020        59.19755         1.21148
C         50.22636        61.29885         1.30387
C         49.01823        60.56996         1.80734
C         51.49529        42.31601         0.14777
C         52.70964        44.27688        -0.75469
C         51.53304        43.66174        -0.35315
C         52.69533        45.60048        -1.35573
C         51.36021        46.03678        -1.77907
C         52.55496        48.62737        -1.36805
C         51.26191        48.20328        -2.03694
C         52.62321        50.12741        -1.41463
C         51.31710        50.80118        -1.46199
C         52.60981        52.96268        -1.35585
C         51.29692        52.30512        -1.42983
C         52.58291        54.41874        -1.41026
C         51.34879        55.13503        -1.13796
C         52.59574        57.28495        -0.79222
C         51.44097        56.51590        -1.17505
C         52.48747        58.62802        -0.21371
C         51.27914        59.27768         0.24639
C         52.56513        61.35292         0.69671
C         51.32953        60.65201         0.74282
C         53.79532        46.43158        -1.42936
C         55.04873        48.66899        -1.47270
C         53.80918        47.89454        -1.90466
C         55.06066        50.04573        -1.30897
C         53.80786        50.80944        -1.39150
C         55.05385        52.97080        -1.10257
C         53.81148        52.26765        -1.34564
C         55.08495        54.36990        -0.95346
C         53.90805        55.19699        -1.24884
C         55.03904        57.21133        -0.37756
C         53.82813        56.58644        -0.77407
C         55.00124        58.60850        -0.05625
C         53.75737        59.28044         0.04449
C         54.98305        61.32130         0.77311
C         53.76978        60.67008         0.47569
C         56.24975        50.79244        -1.01289
C         57.44459        52.89170        -0.50093
C         56.25939        52.19393        -0.87832
C         57.47303        54.28213        -0.31811
C         56.26576        55.05572        -0.53952
C         57.54797        57.17464        -0.27040
C         56.24940        56.45297        -0.35080
C         57.45835        58.57533         0.23959
C         56.26286        59.27439         0.25388
C         57.37846        61.29971         1.19489
C         56.23375        60.66136         0.71349
C         58.63528        54.95956         0.15228
C         59.81868        57.00421         0.79208
C         58.68723        56.35447         0.27031
C         59.89167        58.41110         0.94868
C         58.74111        59.23504         0.52738
C         59.83494        61.15695         1.86612
C         58.69901        60.71407         1.05930
C         60.99784        59.02832         1.54128
C         60.95672        60.37556         1.98952
O         50.25927        57.19756        -1.42924
O         42.07813        39.33087        -0.11764
O         44.31948        47.43796         0.26365
O         47.97603        41.35842         2.15457
O         51.30438        47.01786        -2.78940
O         49.64466        44.47341         0.99739
O         48.51135        54.20806         1.25509
O         57.99273        57.35531        -1.78230
O         39.95580        53.03929         1.94527
O         46.94044        50.92479        -2.73556
O         41.02882        46.25311         1.17977
O         44.78735        56.11577         2.52992
O         46.26074        46.96344        -2.59178
O         53.31759        54.96105        -2.56074
O         42.93492        50.79557        -2.21430
O         51.08846        51.54068        -2.69195
O         42.32703        54.21076         2.15567
O         44.70743        58.76907        -0.00783
O         48.77912        47.40660        -0.16268
O         59.05666        60.35531        -0.32189
O         42.52342        56.92216         3.13818
H         42.60557        55.97237         3.38762
O         48.76554        41.82579        -1.40403
H         48.98700        40.87398        -1.48844
O         31.28484        59.39199         1.27525
H         30.43566        59.87738         1.34981
O         48.00264        56.47979         2.67175
H         48.11424        55.49945         2.63334
O         51.03227        54.09343         0.88263
H         50.36609        53.77874         1.53903
O         34.28744        47.93868        -1.16791
H         34.70285        48.14625        -2.02944
O         39.05017        52.49936        -1.51528
H         38.23990        52.20997        -1.98495
O         35.03778        54.40556         1.91218
H         35.41783        55.27349         2.18290
O         37.02949        59.26296        -1.58510
H         37.84831        59.79284        -1.70083
O         37.15360        56.92232         2.14399
H         37.81559        57.28067         2.77317
O         44.03953        38.30888         3.18959
H         44.57586        39.11815         3.38826
O         50.22245        49.80697         0.45247
H         49.58587        49.08702         0.67914
O         52.43472        48.22724         0.02364
H         51.71448        48.77111         0.43818
O         43.51620        55.64042        -0.90308
H         43.61942        54.97231        -1.61334
O         36.34560        50.37952         1.87949
H         35.70409        51.02395         2.24810
O         56.96606        58.08816        -2.45415
H         56.42176        57.38557        -2.88719
O         37.12167        56.47857        -1.50086
H         37.10551        57.43122        -1.77759
O         53.81238        47.91805        -3.35161
H         53.01849        47.42247        -3.65752
O         49.21483        60.42563         3.27235
H         48.57902        59.74359         3.58001
O         45.32057        40.72223         2.90915
H         46.21049        41.12037         3.07780
H         29.61372        56.75975        -1.31829
H         28.46869        58.93640        -1.60120
H         30.68638        62.60893        -1.10688
H         28.57174        61.40796        -1.60373
H         31.94051        52.38468        -0.75287
H         30.75027        54.57874        -0.96749
H         33.07363        62.56952        -0.44173
H         34.64296        48.13668         0.84211
H         33.14063        50.19493        -0.72286
H         35.42898        62.51170         0.27233
H         36.88957        43.66721         0.01482
H         35.59709        45.79637        -0.29544
H         37.87716        62.45762         0.69755
H         39.36677        39.91886         1.78053
H         38.16492        41.60336         0.54439
H         40.32072        62.41261         0.95003
H         41.95436        35.30572         1.85953
H         40.59398        37.21778         1.92224
H         42.72866        62.40438         1.36050
H         45.41879        32.07594         1.74362
H         43.25448        33.27103         1.98493
H         45.23700        62.37796         1.60419
H         47.52821        33.32920         1.33379
H         48.72474        35.46147         1.05585
H         47.68066        62.38934         1.74913
H         49.93960        37.52477         0.83371
H         51.23678        39.67214         0.74465
H         50.34358        62.35186         1.60519
H         52.45604        41.79874         0.29809
H         53.67059        43.75554        -0.62778
H         52.59713        62.40184         1.02833
H         54.74832        46.03249        -1.04315
H         56.00133        48.11903        -1.40363
H         54.95066        62.36783         1.11182
H         57.19504        50.24419        -0.87856
H         58.36321        52.31263        -0.32122
H         57.27300        62.25291         1.73523
H         59.50819        54.36487         0.46215
H         60.67983        56.39493         1.10803
H         59.76703        62.12266         2.38777
H         61.87595        58.41570         1.79160
H         61.81838        60.75928         2.55455
