         324
 CSIRO Nanostructure Databank - Neutral Graphene Oxide Data Set
C          2.03161         1.59628        -2.43048
C          2.28600         2.84991        -3.01731
C          2.87624         1.14325        -1.43900
C          3.31085         3.65149        -2.52291
C          2.16229         6.67971        -2.99453
C          1.92534         7.96850        -2.53675
C          3.26581         5.96515        -2.52436
C          2.87754         8.60654        -1.71407
C          1.80525        10.83710        -2.14602
C          1.75636        12.20131        -2.06060
C          2.78389        10.03112        -1.46891
C          2.55838        12.93564        -1.09327
C          1.78859        15.21552        -1.80572
C          1.82050        16.62048        -1.71212
C          2.69798        14.40979        -1.10538
C          2.66957        17.25990        -0.81905
C          2.73513        18.70065        -0.73026
C          3.96363         1.94336        -0.97859
C          4.13982         3.29795        -1.42927
C          4.96952         1.32958        -0.20892
C          5.16221         4.14936        -0.82210
C          4.12001         6.43932        -1.49347
C          3.97291         7.83967        -1.18713
C          5.17261         5.63834        -0.88916
C          4.99555         8.50508        -0.44351
C          3.83251        10.67359        -0.76940
C          3.73517        12.12004        -0.45655
C          4.94242         9.93285        -0.31667
C          4.90247        12.89602        -0.05608
C          3.70066        15.01177        -0.29063
C          3.57921        16.44641        -0.00591
C          4.82896        14.28316         0.19626
C          4.75262        17.15868         0.69642
C          3.71456        19.35452        -0.06592
C          4.81299        18.68890         0.73144
C          6.11293         2.05577         0.14090
C          6.11136         3.48730        -0.02314
C          7.28631         1.33940         0.53280
C          7.11394         4.24346         0.82431
C          6.20475         6.35284        -0.21805
C          6.12380         7.74937         0.00426
C          7.46567         5.57323         0.13015
C          7.13512         8.45524         0.83138
C          6.15977        10.67652         0.04317
C          6.17043        12.20126         0.09437
C          7.18467         9.97372         0.85321
C          7.27880        12.89570         0.77410
C          6.00699        14.99533         0.70855
C          5.98277        16.37979         0.85075
C          7.22998        14.25620         0.99725
C          7.21534        17.14225         1.18861
C          6.16964        19.21393         0.34317
C          7.30788        18.52819         0.64565
C          8.49332         1.99072         0.80197
C          8.40222         3.44467         1.11190
C          9.72033         1.31057         0.90297
C          9.68121         4.17942         1.31679
C          8.52955         6.31909         0.92387
C          8.37384         7.73870         1.24397
C          9.66743         5.66481         1.30906
C          9.70228         8.55898         1.41965
C          8.45843        10.71453         1.05784
C          8.48412        12.12222         1.00831
C          9.68016        10.00220         1.12156
C          9.72852        12.82210         1.10103
C          8.43948        14.89242         1.70653
C          8.45639        16.42717         1.61344
C          9.74855        14.24031         1.27050
C          9.79247        17.19094         1.63669
C          8.61026        19.10942         0.45288
C          9.78085        18.49179         0.84151
C         10.97110         1.96523         1.14209
C         10.97291         3.45443         1.11731
C         12.16468         1.28930         1.26866
C         12.23771         4.18503         1.38076
C         10.90593         6.38844         1.69883
C         10.94521         7.82324         1.40139
C         12.22257         5.65258         1.69490
C         12.13284         8.42230         0.80312
C         10.88614        10.68000         0.87282
C         10.93331        12.09579         0.90125
C         12.07158         9.90552         0.46740
C         12.18351        12.79800         0.76564
C         10.96995        14.92412         1.22449
C         11.01414        16.36682         1.28919
C         12.20803        14.20610         0.95748
C         12.20532        17.04863         1.15660
C         11.03700        19.14270         0.67036
C         12.24273        18.48062         0.92614
C         13.46143         1.89975         1.75867
C         13.46915         3.43433         1.79061
C         14.69654         1.36066         1.08410
C         14.74764         4.21365         1.67974
C         13.49399         6.36568         1.36353
C         13.45512         7.77189         0.94749
C         14.67624         5.67328         1.39830
C         14.60158         8.43814         0.58689
C         13.33713        10.64573         0.16225
C         13.38245        12.10461         0.43839
C         14.62361         9.84473         0.11791
C         14.59279        12.79580         0.29983
C         13.46117        14.87750         0.92393
C         13.48537        16.32052         1.26110
C         14.64618        14.19495         0.56552
C         14.78672        17.08087         1.28372
C         13.49500        19.14180         0.75536
C         14.74842        18.54805         0.92341
C         15.90615         2.07250         1.01411
C         15.98538         3.49097         1.30041
C         17.11043         1.40269         0.65986
C         17.17891         4.18982         1.09785
C         15.95369         6.47606         1.50671
C         15.90099         7.71519         0.61899
C         17.24025         5.65507         1.34765
C         17.16668         8.48049         0.39218
C         15.89989        10.59862         0.13810
C         15.82033        12.05989        -0.10535
C         17.11057         9.95552         0.22950
C         17.12757        12.82244        -0.19969
C         15.92355        14.90665         0.53134
C         15.98966        16.25283         0.97205
C         17.14067        14.25989         0.18247
C         17.24570        16.81938         1.17804
C         15.89848        19.32656         0.56549
C         17.21339        18.97596         0.90480
C         18.34427         2.08199         0.56503
C         18.37898         3.51199         0.72131
C         19.55093         1.37471         0.32370
C         19.61465         4.21188         0.47849
C         18.49119         6.37886         0.94401
C         18.46478         7.82325         0.66729
C         19.66889         5.62907         0.49251
C         19.64663         8.48034         0.40189
C         18.35998        10.69198         0.19306
C         18.37906        12.04810        -0.02853
C         19.63007         9.95952         0.43164
C         19.64961        12.77019        -0.22799
C         18.37067        14.95920         0.20286
C         18.44145        16.29534         0.66178
C         19.63334        14.31376        -0.19067
C         19.66595        17.09012         0.59521
C         18.45597        19.35002         0.36314
C         19.64679        18.56159         0.47342
C         20.78721         2.04457         0.19218
C         20.81043         3.48434         0.20483
C         22.00620         1.33820         0.05541
C         22.03438         4.17971        -0.04098
C         20.85881         6.33953         0.18532
C         20.88611         7.77329         0.20634
C         22.05269         5.60686        -0.09334
C         22.09321         8.46888        -0.13495
C         20.93659        10.67126         0.29693
C         20.92406        12.10596        -0.01815
C         22.15185         9.91596        -0.06681
C         22.12170        12.81706        -0.05213
C         20.90264        14.99052         0.12363
C         20.87013        16.40261         0.42011
C         22.09118        14.25062         0.04624
C         22.17417        17.14751         0.62147
C         20.86386        19.22241         0.17071
C         22.12174        18.58999         0.16758
C         23.23654         2.01584        -0.10304
C         23.24801         3.45362        -0.21343
C         24.46108         1.31896        -0.13568
C         24.46616         4.14463        -0.48172
C         23.25581         6.29989        -0.42908
C         23.24055         7.73061        -0.51469
C         24.44555         5.54731        -0.65092
C         24.41697         8.45777        -1.03225
C         23.30894        10.64584        -0.31614
C         23.37562        12.07881        -0.16038
C         24.49028         9.95416        -0.85853
C         24.61855        12.73638        -0.26691
C         23.38079        14.93232         0.26992
C         23.33873        16.40445         0.00631
C         24.66429        14.17981         0.09019
C         24.57940        17.14732        -0.33650
C         23.31427        19.27739        -0.09680
C         24.57779        18.62691        -0.23836
C         25.70384         1.97914        -0.34127
C         25.71680         3.41537        -0.58833
C         26.89425         1.25719        -0.20236
C         26.93221         4.10205        -0.74655
C         25.69578         6.22559        -1.04648
C         25.70807         7.72034        -1.22980
C         26.97827         5.53279        -0.83417
C         26.98332         8.44912        -1.04466
C         25.80971        10.62781        -0.83099
C         25.82202        12.03405        -0.60582
C         26.99063         9.88188        -1.02050
C         27.09518        12.72566        -0.69626
C         25.92253        14.96459        -0.14736
C         25.86938        16.43260        -0.39871
C         27.15075        14.20470        -0.51827
C         27.01905        17.14360        -0.61138
C         25.78120        19.30027        -0.39974
C         27.02165        18.60200        -0.60552
C         28.18094         1.83338        -0.55597
C         28.19703         3.35801        -0.85965
C         29.44345         1.24729        -0.08699
C         29.46378         4.07748        -0.67061
C         28.17003         6.27096        -0.84441
C         28.16321         7.70772        -0.85140
C         29.46540         5.53860        -0.86391
C         29.37230         8.46627        -0.43501
C         28.29999        10.59131        -1.30143
C         28.25888        12.05163        -0.95370
C         29.42884         9.91053        -0.57274
C         29.56993        12.75311        -1.02636
C         28.28453        14.96415        -1.14986
C         28.26985        16.44812        -1.01096
C         29.60734        14.25558        -1.18435
C         29.55289        17.17014        -0.88719
C         28.23225        19.27089        -0.73133
C         29.50137        18.58536        -0.79547
C         30.59210         1.96909        -0.07311
C         30.62857         3.39144        -0.36255
C         31.84588         4.12160        -0.06980
C         30.77120         6.26940        -0.61638
C         30.70737         7.73126        -0.27136
C         31.90588         5.47607        -0.11247
C         31.93173         8.55024        -0.42830
C         30.61898        10.64297         0.01758
C         30.73471        12.09599        -0.41684
C         31.89806         9.88559        -0.31785
C         31.85107        12.84707        -0.16467
C         30.81621        14.99989        -0.77824
C         30.78242        16.47324        -0.79331
C         31.90629        14.26837        -0.37030
C         31.96838        17.22996        -0.69279
C         30.71390        19.30626        -0.71023
C         31.92859        18.62678        -0.67451
O         24.15295         9.34752        -2.16749
O         13.88723        10.20096        -1.10962
O          2.50956        12.42983         0.27209
O          3.59582        16.70266         1.45668
O         30.35233         5.96900        -1.97596
O          6.66941        11.44704        -1.09456
O         16.51053         7.67876        -0.70115
O         18.19568         6.02069         2.40105
O         14.16057        16.67500         2.53971
O         24.11615        14.46935         1.43661
O         25.64735         6.84465        -2.39665
O         16.36255        12.49109        -1.40215
O          6.58089         9.24103         1.95108
O         14.11643         3.91676         3.00111
O          8.84425         8.13849         2.54179
O         11.80202         3.95103        -0.00169
O          3.57707         4.81505        -3.24676
O         19.61485        13.59898        -1.45086
O         20.35879        10.41142         1.64675
O         26.94857        14.63016         0.87194
O          8.91156         3.67888         2.47684
O          7.55737        17.01189         2.62732
O         28.22902         2.36635        -1.92469
O         17.30580        17.99686         1.91644
O         23.59812        16.69371        -1.39061
O         29.80467        13.37451        -2.34798
O         11.59828         5.98202         2.96396
O         29.91161         7.99292         0.90564
O         11.78540         8.91155        -0.56492
O         28.02382        15.76415        -2.33105
O          8.30541        14.55269         3.10986
H          7.73461        15.24671         3.51350
O          6.46973         4.52245         2.07726
H          7.15587         4.44834         2.78216
O         30.50280        10.64324         1.47475
H         30.32877         9.70744         1.73822
O         13.57584         1.42463         3.14036
H         14.00257         2.15346         3.65312
O         10.01806        17.59321         3.01504
H          9.13628        17.83350         3.38360
O          8.08284         5.18937        -1.12969
H          8.21375         5.98990        -1.67923
O          4.60109        19.07870         2.11981
H          3.91944        18.46499         2.47649
O         28.54019        10.48699        -2.75171
H         28.98948        11.30847        -3.04976
O         15.92605         7.01454         2.85659
H         16.78832         6.77782         3.27909
O         22.42954        17.16767         2.05584
H         21.67987        17.62373         2.49268
H          1.20873         0.96970        -2.79952
H          1.69830         3.19838        -3.87604
H          2.75953         0.13235        -1.02426
H          1.51493         6.22620        -3.75588
H          1.04196         8.50494        -2.90276
H          1.12910        10.35657        -2.86508
H          1.12087        12.75822        -2.76361
H          1.02656        14.74889        -2.44416
H          1.13038        17.21785        -2.32486
H          1.96969        19.27442        -1.27531
H          4.90917         0.25415         0.01144
H          3.70590        20.45445        -0.03845
H          7.26540         0.24108         0.46741
H          6.24081        20.23789        -0.05415
H          9.72153         0.21674         0.77990
H          8.65800        20.11500         0.00633
H         12.14986         0.18882         1.22635
H         11.05435        20.17776         0.29606
H         14.71636         0.28343         0.85770
H         13.46441        20.20733         0.47883
H         17.08292         0.31657         0.48663
H         15.72528        20.23587        -0.03091
H         19.52365         0.27702         0.25842
H         18.53320        20.29991        -0.18866
H         21.99884         0.23893         0.09154
H         20.81876        20.29444        -0.07718
H         24.46068         0.22819         0.00708
H         23.27368        20.36964        -0.23456
H         26.86013         0.23268         0.19766
H         25.79933        20.40002        -0.36014
H         29.43454         0.20888         0.27612
H         28.24327        20.37082        -0.69469
H         31.52707         1.49776         0.26440
H         32.71306         3.54832         0.28979
H         32.79769         6.00450         0.25472
H         32.86777         8.03204        -0.68466
H         32.82903        10.45979        -0.43362
H         32.72966        12.37950         0.30310
H         32.83447        14.77911        -0.07725
H         32.94150        16.72276        -0.64406
H         30.69033        20.40400        -0.65851
H         32.86853        19.19264        -0.61156
