         404
 CSIRO Nanostructure Databank - Neutral Graphene Oxide Data Set
C          2.15275         1.97792        -3.49953
C          2.14783         3.40667        -3.54899
C          3.17769         1.11564        -3.14698
C          3.19688         4.26513        -3.20352
C          1.85273         6.39015        -2.96064
C          1.77469         7.76943        -2.61929
C          2.99947         5.64391        -2.76095
C          2.82029         8.47348        -2.04052
C          1.62320        10.65807        -2.05919
C          1.59407        12.02866        -1.90067
C          2.81299         9.91552        -1.85498
C          2.76123        12.75743        -1.56519
C          1.55132        14.95651        -1.66628
C          1.56217        16.33834        -1.64943
C          2.74231        14.19936        -1.48761
C          2.77254        17.05628        -1.47563
C          2.81662        18.48296        -1.51600
C          4.54393         1.54571        -3.09337
C          4.52806         3.72275        -3.10875
C          5.62291         1.13504        -2.34432
C          5.53602         4.17314        -2.26717
C          4.09160         6.25672        -1.98040
C          4.00512         7.72717        -1.58720
C          5.44530         5.62639        -1.98177
C          5.24456         8.46660        -1.25202
C          3.99185        10.60511        -1.46065
C          3.97862        12.03485        -1.34645
C          5.21848         9.87683        -1.19525
C          5.18416        12.74506        -1.04683
C          3.96111        14.89741        -1.25377
C          3.98032        16.32643        -1.27044
C          5.17224        14.17309        -1.01215
C          5.21417        17.03043        -1.14542
C          4.00714        19.16176        -1.39332
C          5.24311        18.46667        -1.21917
C          6.79606         1.97449        -2.13858
C          6.73127         3.42209        -1.97305
C          8.00880         1.32797        -1.88548
C          7.82692         4.09043        -1.35312
C          6.57215         6.32302        -1.32990
C          6.43492         7.76044        -0.94091
C          7.58356         5.41930        -0.64148
C          7.59544         8.45555        -0.57805
C          6.42217        10.58709        -0.89691
C          6.41731        12.01592        -0.86166
C          7.62969         9.87815        -0.60901
C          7.63862        12.69269        -0.65397
C          6.37705        14.90712        -0.79039
C          6.41092        16.30012        -0.92461
C          7.59794        14.15329        -0.42697
C          7.73609        17.01617        -1.07403
C          6.46165        19.17477        -1.09131
C          7.69887        18.52204        -0.94121
C          9.18421         2.03555        -1.53032
C          9.06759         3.43234        -1.17798
C         10.42561         1.37437        -1.44578
C         10.23718         4.11823        -0.70663
C          8.84210         6.20034        -0.26427
C          8.81539         7.71186        -0.18887
C         10.15458         5.51779        -0.34171
C         10.08543         8.46571        -0.14523
C          8.87089        10.58394        -0.44120
C          8.86064        11.98785        -0.51219
C         10.11915         9.85165        -0.21241
C         10.14881        12.73574        -0.59507
C          8.85517        14.90186        -0.15300
C          8.84046        16.40227        -0.24500
C         10.15760        14.22125        -0.43150
C         10.13057        17.13697        -0.18068
C          8.91476        19.21426        -0.82977
C         10.16222        18.56514        -0.58665
C         11.60177         2.06418        -1.07411
C         11.49784         3.46278        -0.72376
C         12.85121         1.42014        -0.96218
C         12.68412         4.15009        -0.34219
C         11.27484         6.22368         0.02448
C         11.32469         7.70335         0.01564
C         12.52180         5.48207         0.25027
C         12.56244         8.46410         0.53780
C         11.35736        10.57171         0.04989
C         11.46910        11.97432        -0.52284
C         12.47403         9.95635         0.61026
C         12.61444        12.80275         0.03862
C         11.41623        14.96749        -0.15670
C         11.39953        16.37751        -0.11033
C         12.62735        14.24879        -0.02078
C         12.60368        17.10811        -0.03821
C         11.37954        19.22960        -0.52721
C         12.60278        18.54941        -0.19271
C         14.04194         2.11917        -0.61765
C         13.95882         3.55365        -0.36756
C         15.23586         1.43058        -0.36803
C         15.13518         4.30198        -0.00249
C         13.71741         6.19008         0.78309
C         13.64486         7.63238         1.11444
C         15.04647         5.58273         0.58628
C         14.65601         8.06636         1.92603
C         13.67435        10.75227         0.89790
C         13.74881        12.12910         0.45146
C         14.71343        10.32015         1.72639
C         15.04491        12.84152         0.49333
C         13.83632        14.98313         0.21945
C         13.82766        16.40943         0.17040
C         15.06394        14.30747         0.47090
C         15.03874        17.13165         0.36418
C         13.80466        19.24023        -0.05075
C         15.02446        18.56914         0.27467
C         16.50726         2.13459        -0.24765
C         16.45680         3.69195        -0.17024
C         17.70226         1.51165         0.29642
C         17.68781         4.42117         0.30233
C         16.15920         6.30125         1.08799
C         15.96100         7.43562         1.92022
C         17.53142         5.83830         0.87409
C         17.09385         8.09678         2.45563
C         16.02630        10.89195         1.77454
C         16.26727        12.14872         1.05253
C         17.09293        10.32777         2.45593
C         17.43582        12.93415         1.47472
C         16.24952        15.00750         0.76657
C         16.23900        16.44140         0.69042
C         17.44798        14.32652         1.23291
C         17.41818        17.17824         0.98773
C         16.20926        19.27871         0.51390
C         17.40201        18.61004         0.89447
C         18.83854         2.23644         0.70240
C         18.86678         3.68110         0.73749
C         19.99778         1.53694         1.12334
C         19.96732         4.38049         1.29348
C         18.64518         6.45957         1.61370
C         18.42939         7.71594         2.22999
C         19.89769         5.78508         1.65844
C         19.57433         8.54147         2.75908
C         18.44361        10.83764         2.40183
C         18.53873        12.26610         2.07752
C         19.56035        10.05150         2.70923
C         19.72466        12.98547         2.30547
C         18.61446        15.06939         1.57278
C         18.60004        16.50559         1.43141
C         19.77977        14.38594         2.04783
C         19.72502        17.26004         1.80712
C         18.58309        19.33199         1.17677
C         19.74975        18.67864         1.61689
C         21.15838         2.22112         1.52053
C         21.14988         3.65945         1.63442
C         22.34172         1.51108         1.81961
C         22.30827         4.34797         2.08055
C         21.02648         6.43911         2.22018
C         20.92794         7.82448         2.75045
C         22.26897         5.76631         2.31248
C         22.20769         8.56790         2.91198
C         20.80582        10.76563         3.09295
C         20.87470        12.30227         2.92591
C         22.11287        10.01981         3.24548
C         22.19082        13.00557         2.87125
C         20.96551        15.11652         2.39270
C         20.87685        16.58017         2.40607
C         22.18502        14.46977         2.73633
C         22.19421        17.38309         2.48448
C         20.97852        19.40412         1.72399
C         22.19134        18.76837         1.97815
C         23.52606         2.18946         2.15146
C         23.51831         3.62717         2.30097
C         24.73371         1.47561         2.29745
C         24.71081         4.32139         2.62379
C         23.46738         6.45895         2.70390
C         23.41141         7.89728         2.95382
C         24.67207         5.73918         2.82417
C         24.68033         8.62911         3.39499
C         23.40135        10.82116         3.15195
C         23.36067        12.29126         2.93742
C         24.65894        10.07346         2.95979
C         24.66398        12.99720         3.03613
C         23.40224        15.21541         2.81297
C         23.44181        16.61243         2.49908
C         24.68184        14.50376         3.06242
C         24.62773        17.31333         2.21529
C         23.43595        19.40649         1.75333
C         24.64101        18.70497         1.87311
C         25.95223         2.15569         2.45871
C         25.95794         3.59153         2.62716
C         27.17294         1.44526         2.40676
C         27.19272         4.25618         2.67964
C         25.93267         6.44831         3.14409
C         25.97645         7.91638         3.01407
C         27.24917         5.69135         3.00524
C         27.18855         8.55973         2.87391
C         25.90682        10.81033         3.00368
C         25.86004        12.23823         2.47537
C         27.24204        10.04069         2.93854
C         27.19281        12.94582         2.61901
C         25.97800        15.22746         2.79216
C         25.93556        16.64336         2.35011
C         27.24783        14.43781         2.59882
C         27.06231        17.18308         1.48432
C         25.90435        19.37667         1.64455
C         27.09049        18.69432         1.53260
C         28.40471         2.11468         2.38768
C         28.41720         3.55825         2.49137
C         29.61473         1.39865         2.19509
C         29.63692         4.27297         2.42906
C         28.47123         6.43943         2.65893
C         28.44315         7.85090         2.61357
C         29.66090         5.70386         2.38259
C         29.63521         8.56795         2.26889
C         28.44780        10.71951         2.44706
C         28.37094        12.16438         2.11974
C         29.61732        10.01154         2.20893
C         29.58860        12.91787         1.72702
C         28.43744        15.12980         2.01927
C         28.39361        16.51819         1.74866
C         29.60527        14.40490         1.73620
C         29.56897        17.20098         1.37914
C         28.35385        19.34789         1.33061
C         29.53012        18.64600         1.23138
C         30.84522         2.05785         2.11240
C         30.88445         3.51305         2.35283
C         32.02827         1.38224         1.75102
C         32.15498         4.27476         1.88549
C         30.84147         6.40587         1.96145
C         30.80578         7.84225         1.85528
C         32.01399         5.70355         1.57964
C         31.91925         8.50376         1.27394
C         30.89262        10.74338         1.97624
C         30.93909        12.27365         1.92625
C         32.04234         9.96825         1.38251
C         31.96258        12.86946         0.97014
C         30.77106        15.05239         1.24919
C         30.76971        16.47081         1.12353
C         31.91390        14.28130         0.79758
C         31.90607        17.14116         0.55694
C         30.83470        19.38974         1.09716
C         31.92497        18.56806         0.44957
C         33.17173         2.06435         1.27327
C         33.20134         3.49729         1.21890
C         34.25203         1.33016         0.71050
C         34.22647         4.17954         0.53331
C         33.10296         6.35565         0.94260
C         33.03986         7.79338         0.76801
C         34.23472         5.61084         0.51688
C         34.08102         8.49882         0.11674
C         33.03745        10.67021         0.55212
C         32.99906        12.10591         0.40012
C         34.01350         9.90157        -0.08691
C         34.04789        12.76920        -0.33966
C         32.98120        14.94759         0.13377
C         32.97915        16.37833         0.01931
C         34.05751        14.19298        -0.42577
C         34.04685        17.03472        -0.65622
C         32.96677        19.20470        -0.19125
C         34.04061        18.46389        -0.77408
C         35.27846         1.96931         0.00829
C         35.25854         3.40824        -0.13445
C         36.35566         1.23166        -0.56824
C         36.21836         4.02757        -0.93480
C         35.40280         6.31455        -0.04204
C         35.42700         7.84134        -0.07935
C         36.32350         5.50370        -0.91949
C         36.22907         8.43611        -1.22127
C         34.91324        10.54540        -1.11403
C         35.07976        12.02907        -0.97140
C         36.19245         9.80110        -1.40140
C         36.14157        12.66367        -1.64494
C         35.11365        14.85024        -1.12771
C         35.10535        16.27790        -1.24095
C         36.16420        14.09633        -1.72788
C         36.13890        16.93870        -1.95612
C         35.07701        19.11111        -1.46247
C         36.12374        18.37424        -2.06726
C         37.36446         1.86090        -1.29053
C         37.29793         3.28500        -1.51721
C         38.50285         1.13904        -1.80068
C         38.33681         3.92971        -2.21604
C         37.05258         6.14138        -2.05353
C         36.98815         7.65156        -2.26649
C         38.19345         5.34256        -2.62108
C         38.33300         8.25022        -2.61410
C         37.24004        10.49441        -2.10078
C         37.22880        11.89185        -2.22624
C         38.43729         9.70716        -2.46774
C         38.29858        12.58353        -2.92455
C         37.19600        14.76205        -2.45671
C         37.17881        16.18519        -2.57442
C         38.24732        14.00597        -3.08152
C         38.19553        16.86404        -3.31741
C         37.14338        19.02666        -2.78761
C         38.17210        18.29503        -3.41850
C         39.52017         1.78278        -2.44579
C         39.46942         3.20287        -2.68187
C         40.49338         3.88757        -3.36193
C         39.34492         6.05209        -3.20662
C         39.34560         7.51266        -3.21970
C         40.44969         5.28293        -3.56138
C         40.38924         8.21894        -3.93964
C         39.56726        10.42629        -3.21837
C         39.37703        11.86614        -3.50699
C         40.43272         9.57212        -4.03917
C         40.32049        12.54426        -4.29780
C         39.24817        14.67956        -3.84337
C         39.22896        16.12986        -3.96473
C         40.25666        13.91852        -4.46756
C         40.20867        16.83305        -4.69228
C         39.18462        18.96087        -4.16036
C         40.18298        18.23136        -4.78552
O          8.08791        14.42061         0.98099
O         22.80092        10.41053         4.45952
O         28.70987        12.37272         0.67761
O          3.68921         6.65341        -0.62748
O         24.78319        13.70126         4.29407
O         36.85613         5.47251        -3.33324
O         14.48595         9.26818         2.61897
O         16.71136         3.02620        -1.42232
O         10.14754        13.62579        -1.78527
O          6.50164         6.28563        -2.80470
O         12.85456         5.41937         1.72223
O         26.66097         5.97406         4.32438
O         17.91540         5.59959        -0.53121
O          4.80259         2.64203        -3.94673
O         20.11435         7.96064         3.98643
O         16.03119        12.17267        -0.39191
O         21.35126        17.18583         3.65307
O         26.24826        16.33060         3.74077
O          9.21836        17.01417         1.00617
O         27.51314        13.65630         3.83314
O         39.65998        10.14706        -1.78415
O         36.74006         5.89023         0.44261
O         31.91865         3.93388         3.28748
O         20.56509        11.68219         4.20921
O         26.76013        16.79314         0.15412
O          8.64813         6.87015         1.03532
O         26.72242        10.59558         4.20887
O         12.41053         8.10513        -0.89312
O         31.99350        10.31020         2.84206
O         16.87493         9.21223         3.27440
O         34.18365        10.38428        -2.39671
H         34.49559         9.55378        -2.82266
O         31.33552        12.72842         3.24786
H         31.99259        12.07601         3.58696
O         36.14743         8.26353         1.12563
H         36.83356         7.57902         1.30482
O          8.14960        16.74398        -2.45790
H          7.47689        17.13510        -3.05463
O         11.86481        11.71639        -1.90567
H         11.55336        12.48722        -2.43567
O         24.69268         8.59284         4.85495
H         25.35928         9.25352         5.15477
O         25.60344        12.15066         1.04392
H         26.46036        12.11150         0.56294
O          6.94053         5.01290         0.59930
H          7.24266         5.63954         1.29931
O         30.65736        20.63537         0.41793
H         30.26574        20.45035        -0.46019
O         36.16339         7.87797        -3.46967
H         36.30395         7.08399        -4.04401
H          1.15325         1.52303        -3.59154
H          1.14918         3.85745        -3.66126
H          2.92595         0.07787        -2.88205
H          0.99880         5.94608        -3.49196
H          0.86077         8.30067        -2.91886
H          0.69548        10.13936        -2.33401
H          0.64422        12.55394        -2.06423
H          0.59269        14.44341        -1.81959
H          0.62465        16.89505        -1.79192
H          1.87782        19.03751        -1.65943
H          5.60014         0.16349        -1.82795
H          4.02147        20.26067        -1.43405
H          8.06854         0.23632        -2.00792
H          6.43384        20.27534        -1.08521
H         10.48129         0.30359        -1.69256
H          8.90524        20.31305        -0.90611
H         12.91254         0.33920        -1.15848
H         11.42256        20.30959        -0.73504
H         15.23055         0.33160        -0.31692
H         13.81835        20.33470        -0.16257
H         17.68894         0.42441         0.46294
H         16.21029        20.37651         0.44440
H         20.00509         0.43795         1.08682
H         18.59264        20.42417         1.04599
H         22.35214         0.41491         1.73109
H         20.98083        20.46690         1.43888
H         24.73247         0.38178         2.18309
H         23.44657        20.45893         1.43358
H         27.15093         0.34971         2.31250
H         25.88938        20.47389         1.55015
H         29.57232         0.30948         2.04687
H         28.38039        20.44729         1.26540
H         32.00422         0.28480         1.67437
H         31.18646        19.64702         2.13850
H         34.25076         0.23308         0.79066
H         32.96322        20.30176        -0.27044
H         36.39778         0.14384        -0.40826
H         35.07004        20.20756        -1.55064
H         38.54908         0.05223        -1.63821
H         37.13074        20.12359        -2.87063
H         40.39044         1.21956        -2.81278
H         41.37655         3.32875        -3.70220
H         41.33676         5.76453        -3.99562
H         41.08944         7.62811        -4.54617
H         41.13584        10.03380        -4.74651
H         41.14882        11.99199        -4.76089
H         41.02987        14.40673        -5.07408
H         41.01858        16.29450        -5.20135
H         39.16388        20.05745        -4.23360
H         40.96446        18.74787        -5.35992
