         600
 CSIRO Nanostructure Databank - Neutral Graphene Oxide Data Set
C         23.08926        27.06711         1.05739
C         23.20852        28.24313         1.78713
C         23.34951        32.03900         2.31130
C         23.23970        33.33201         1.80643
C         23.00372        36.01715         0.64725
C         22.96287        37.37265         0.36774
C         22.93505        40.28359        -0.09934
C         22.94830        41.64960        -0.22686
C         22.96051        44.56243        -0.41926
C         22.96233        45.93451        -0.43653
C         25.35576        24.60441        -0.55184
C         24.20431        25.22675        -0.15353
C         25.44720        27.28633         0.39153
C         24.22838        26.54380         0.41059
C         25.51129        28.61524         0.93943
C         24.40429        28.97455         1.74042
C         25.55999        31.73186         1.23655
C         24.47726        31.26843         2.02153
C         25.49977        33.12366         0.88186
C         24.31061        33.89990         1.10308
C         25.40203        35.93082         0.23819
C         24.23818        35.28440         0.64615
C         25.35434        37.32668        -0.35445
C         24.11992        38.10558         0.01587
C         25.38689        40.23653        -0.21118
C         24.14234        39.52245        -0.10790
C         25.40161        41.64769        -0.29546
C         24.16879        42.38018        -0.32959
C         25.41698        44.51253        -0.54424
C         24.17417        43.80638        -0.43678
C         25.40429        45.91848        -0.64124
C         24.19111        46.65760        -0.51793
C         25.43370        48.78200        -0.45709
C         24.22465        48.06816        -0.44383
C         27.89051        23.17555        -1.03241
C         27.85931        24.57595        -0.66476
C         26.62740        25.25742        -0.42983
C         27.86864        27.33301         0.08986
C         26.63872        26.63019        -0.03534
C         27.87159        28.76116         0.34490
C         26.69271        29.44512         0.74307
C         27.85714        31.61638         0.40846
C         26.71251        30.91926         0.84123
C         27.88312        33.04692         0.26972
C         26.66862        33.77784         0.39771
C         27.81935        35.88818        -0.09054
C         26.63793        35.20229         0.18350
C         27.83946        37.34936         0.09762
C         26.61426        38.11409        -0.11301
C         27.89539        40.23095        -0.08242
C         26.63573        39.49968        -0.12387
C         27.89079        41.66368        -0.18311
C         26.65735        42.36612        -0.31203
C         27.90496        44.47365        -0.39116
C         26.66837        43.78099        -0.45153
C         27.95071        45.92775        -0.63561
C         26.65252        46.67426        -0.80269
C         27.93299        48.82456        -0.70675
C         26.65564        48.13392        -0.61855
C         27.97721        50.21106        -1.00608
C         30.31571        23.27634        -1.42367
C         29.03865        22.54793        -1.38387
C         30.35669        24.59909        -0.76380
C         29.09208        25.26126        -0.47710
C         30.32542        27.31333         0.25300
C         29.07287        26.62434        -0.08375
C         30.33564        28.78565         0.16641
C         29.11155        29.45758         0.16482
C         30.36949        31.63333        -0.00250
C         29.05543        30.90943        -0.18282
C         30.36341        33.05358        -0.10831
C         29.09656        33.72242        -0.09072
C         30.40485        35.95365        -0.37875
C         29.04547        35.15497        -0.35972
C         30.41181        37.38582        -0.10605
C         29.15139        38.09786         0.12946
C         30.37527        40.24677        -0.05015
C         29.12418        39.55563        -0.02726
C         30.37583        41.66635        -0.09254
C         29.13068        42.37390        -0.15403
C         30.38676        44.53196        -0.17261
C         29.12943        43.79723        -0.21185
C         30.40735        45.94255        -0.19215
C         29.11071        46.69742        -0.04583
C         30.39266        48.81160        -0.59564
C         29.15092        48.13153        -0.51767
C         30.41300        50.20549        -0.90102
C         29.18044        50.87637        -1.10408
C         32.88100        20.37556        -1.49568
C         31.71276        21.06737        -1.70365
C         32.88107        23.21981        -1.17797
C         31.65661        22.53514        -1.61786
C         32.84619        24.53406        -0.73215
C         31.57931        25.20377        -0.50172
C         32.85630        27.34671        -0.02260
C         31.61787        26.56073         0.08060
C         32.82430        28.75921         0.07532
C         31.57988        29.48026         0.10029
C         32.83216        31.63021         0.06590
C         31.58348        30.91788         0.05616
C         32.85066        33.05090        -0.03543
C         31.60682        33.77739        -0.15068
C         32.84864        35.93837        -0.09668
C         31.64211        35.20128        -0.18422
C         32.85815        37.35077        -0.05513
C         31.61654        38.08056        -0.02051
C         32.84300        40.22903         0.02927
C         31.61298        39.52754         0.01272
C         32.84650        41.66057         0.00437
C         31.61694        42.37525        -0.07212
C         32.85022        44.51786        -0.05208
C         31.61683        43.80718        -0.11699
C         32.83843        45.93527        -0.04629
C         31.62855        46.66164        -0.16033
C         32.84160        48.82150        -0.39334
C         31.63612        48.11085        -0.34494
C         32.88384        50.21477        -0.72832
C         31.67082        50.91323        -0.97980
C         32.94756        52.96573        -1.30824
C         31.73915        52.29453        -1.28653
C         35.40992        18.87187        -1.18297
C         35.36776        20.30580        -1.17813
C         34.13901        21.01688        -1.30797
C         35.37379        23.15173        -0.84372
C         34.17933        22.51767        -1.49059
C         35.29834        24.48962        -0.40056
C         34.08410        25.21444        -0.37487
C         35.28614        27.35665         0.07841
C         34.07899        26.63031        -0.09168
C         35.29221        28.77134         0.12035
C         34.05978        29.48459         0.09195
C         35.30026        31.61996         0.19149
C         34.06378        30.91307         0.12299
C         35.30737        33.04755         0.14125
C         34.09120        33.74341        -0.01744
C         35.36435        35.93463         0.09609
C         34.13421        35.20608        -0.37298
C         35.33686        37.36133         0.12516
C         34.09664        38.08082         0.02657
C         35.32146        40.22391         0.15388
C         34.08746        39.49894         0.07265
C         35.32623        41.65352         0.13915
C         34.08952        42.37914         0.05510
C         35.34379        44.50876         0.08820
C         34.09523        43.79581         0.03957
C         35.37162        45.92647         0.07766
C         34.09818        46.65628         0.17133
C         35.38868        48.81904        -0.32830
C         34.10499        48.16256        -0.01563
C         35.37341        50.16749        -0.66921
C         34.13823        50.90554        -0.79223
C         35.43268        53.03837        -1.01914
C         34.16977        52.30032        -1.05308
C         35.47132        54.45057        -1.08694
C         37.84822        18.84729        -0.96345
C         36.59036        18.17981        -1.08689
C         37.84775        20.27553        -0.93389
C         36.60970        21.00579        -1.03556
C         37.81968        23.13536        -0.60019
C         36.59609        22.43489        -0.83032
C         37.81931        24.47225        -0.20157
C         36.53317        25.11713         0.09708
C         37.80521        27.35696         0.22176
C         36.53457        26.63180         0.30702
C         37.78050        28.77210         0.24268
C         36.53813        29.48483         0.22374
C         37.77014        31.62452         0.37913
C         36.53638        30.90316         0.26199
C         37.74318        33.05730         0.47677
C         36.55789        33.76298         0.29401
C         37.78881        35.94375         0.42644
C         36.55286        35.22628         0.30055
C         37.78583        37.36566         0.36214
C         36.55369        38.08245         0.26392
C         37.78854        40.22862         0.31868
C         36.55357        39.51324         0.24730
C         37.79574        41.64937         0.29844
C         36.56093        42.36171         0.20306
C         37.80622        44.50539         0.24052
C         36.57353        43.79117         0.16647
C         37.82170        45.92872         0.17701
C         36.58849        46.64387         0.06510
C         37.85490        48.73429        -0.20621
C         36.61477        48.07553        -0.15192
C         37.93428        50.12953        -0.65775
C         36.63657        50.87303        -0.93975
C         37.89312        53.03499        -0.78048
C         36.65722        52.34534        -0.90123
C         37.90282        54.45571        -0.86113
C         36.67397        55.13298        -1.03354
C         40.33341        16.01817        -0.89047
C         39.14345        16.69785        -0.97306
C         40.30908        18.83370        -0.68148
C         39.08878        18.12471        -0.87312
C         40.29732        20.26604        -0.62405
C         39.08665        20.96559        -0.78159
C         40.31368        23.12329        -0.35216
C         39.11227        22.46044        -0.96410
C         40.27620        24.50991        -0.08548
C         39.03112        25.21518        -0.03747
C         40.26072        27.36165         0.20464
C         39.02415        26.63453         0.16143
C         40.24930        28.78225         0.25722
C         39.01461        29.49786         0.28344
C         40.25945        31.64081         0.39974
C         39.00164        30.91642         0.36596
C         40.25714        33.01297         0.56914
C         38.99802        33.76926         0.92457
C         40.23114        35.94385         0.50999
C         39.02968        35.24143         0.55417
C         40.24521        37.37455         0.40542
C         39.01689        38.08775         0.39491
C         40.26098        40.22356         0.40915
C         39.02738        39.51499         0.37472
C         40.26755        41.65301         0.45488
C         39.03556        42.36333         0.38219
C         40.26954        44.49804         0.47935
C         39.03949        43.78966         0.36174
C         40.28644        45.93620         0.42859
C         39.06461        46.63684         0.24644
C         40.30008        48.78400         0.17407
C         39.07764        48.05964         0.09180
C         40.31625        50.22346         0.05042
C         39.13884        50.91572        -0.34582
C         40.32105        53.05135        -0.21291
C         39.12228        52.31803        -0.48094
C         40.33159        54.47727        -0.33502
C         39.14983        55.18647        -0.70910
C         40.40731        57.27807        -0.65840
C         39.22114        56.58261        -0.88171
C         42.79920        16.01832        -0.58508
C         41.56475        16.71036        -0.68401
C         42.78052        18.82622        -0.33916
C         41.55223        18.12844        -0.57193
C         42.75399        20.25907        -0.21287
C         41.54063        20.96918        -0.38165
C         42.72264        23.08768         0.10820
C         41.51832        22.39571        -0.22425
C         42.71669        24.50527         0.24019
C         41.49348        25.21795         0.16400
C         42.74196        27.32397         0.29659
C         41.49855        26.63684         0.24950
C         42.73444        28.76043         0.01535
C         41.48401        29.51647         0.20561
C         42.77448        31.62818         0.24221
C         41.50797        30.90524         0.27646
C         42.76671        33.01980         0.33729
C         41.53055        33.72679         0.66437
C         42.77503        35.91663         0.27600
C         41.52473        35.22919         0.66810
C         42.69858        37.35499         0.00765
C         41.46683        38.09851         0.30370
C         42.75332        40.23221         0.33982
C         41.49583        39.50512         0.33761
C         42.75866        41.64780         0.55857
C         41.50143        42.36678         0.58924
C         42.71045        44.52592         0.94282
C         41.47854        43.77688         0.65235
C         42.75225        45.97775         0.70967
C         41.51898        46.66200         0.50626
C         42.75252        48.80266         0.52787
C         41.52179        48.08718         0.40075
C         42.74970        50.23662         0.54665
C         41.51228        50.94563         0.29005
C         42.69119        53.11597         0.49769
C         41.50943        52.36659         0.17411
C         42.68854        54.49784         0.42198
C         41.52604        55.19756        -0.04655
C         42.78177        57.33334         0.07143
C         41.55708        56.60851        -0.21548
C         43.97935        16.69868        -0.35697
C         45.23716        18.82437         0.09585
C         44.00480        18.11220        -0.21413
C         45.19176        20.23320         0.30157
C         43.96445        20.95193         0.12059
C         45.11223        23.06741         0.67443
C         43.93302        22.36378         0.28155
C         45.11376        24.48945         0.76356
C         43.93188        25.21452         0.48758
C         45.23451        27.33954         0.60193
C         43.96184        26.63891         0.46961
C         45.27404        28.74824         0.45455
C         44.07437        29.49461         0.06094
C         45.27018        31.64520         0.40404
C         44.03454        30.94753         0.21758
C         45.27117        33.07762         0.36139
C         44.00329        33.76187        -0.06755
C         45.23142        35.96029         0.07567
C         43.97146        35.24846         0.16934
C         45.25135        37.37165         0.06148
C         44.00153        38.12075        -0.09823
C         45.22526        40.24120         0.27317
C         43.98240        39.55906         0.19691
C         45.22956        41.65625         0.44902
C         43.99461        42.33066         0.62811
C         45.27104        44.52341         0.71414
C         44.03018        43.76733         0.94123
C         45.24681        45.94563         0.71820
C         43.98279        46.66158         0.72169
C         45.21011        48.81890         0.70593
C         43.98419        48.09800         0.65861
C         45.19691        50.25095         0.76342
C         43.94665        50.93847         0.75290
C         45.18657        53.14076         0.79419
C         43.89509        52.40771         1.08927
C         45.17439        54.54475         0.74817
C         43.86225        55.27088         0.98911
C         43.86521        56.72397         0.59163
C         47.64009        18.86420         0.62537
C         46.48883        18.18084         0.24065
C         47.61607        20.24418         0.92559
C         46.37038        20.92734         0.73076
C         47.36101        23.00652         1.61221
C         46.28841        22.33010         0.95960
C         47.29143        24.39899         1.77682
C         46.29780        25.20362         1.16247
C         47.75448        27.28044         0.65084
C         46.41273        26.61553         0.97378
C         47.71982        28.79197         0.67082
C         46.50420        29.48926         0.59990
C         47.75487        31.68975         0.85143
C         46.48399        30.92685         0.55273
C         47.72836        33.13134         0.40908
C         46.48240        33.80733         0.32043
C         47.68999        35.95630         0.07251
C         46.46124        35.24243         0.14288
C         47.69360        37.38242         0.05402
C         46.46626        38.09498         0.10903
C         47.69495        40.23725         0.15499
C         46.46089        39.52894         0.16171
C         47.69560        41.66921         0.28866
C         46.47356        42.37125         0.44863
C         47.71524        44.51546         0.47536
C         46.47819        43.80674         0.54439
C         47.70801        45.94534         0.50769
C         46.46800        46.66223         0.60579
C         47.66147        48.83126         0.59755
C         46.46183        48.11218         0.64515
C         47.67213        50.26975         0.68696
C         46.42379        50.97921         0.77404
C         47.63148        53.16113         0.67736
C         46.41544        52.43024         0.74720
C         47.59515        54.55453         0.59263
C         46.38239        55.24243         0.60536
C         50.11568        20.43504         1.54447
C         48.76030        20.96944         1.47917
C         50.49470        23.41904         2.10503
C         48.52239        22.25017         1.96504
C         50.47352        24.81539         1.87025
C         49.25611        25.57712         1.91603
C         50.28828        27.46288         0.85817
C         49.07678        26.76334         1.22805
C         50.25719        28.82466         0.48866
C         48.95242        29.49680         0.15549
C         50.16477        31.67404         0.11229
C         48.99393        30.97803         0.39590
C         50.17283        33.11424         0.02452
C         48.93691        33.82194         0.15743
C         50.13615        35.96279        -0.21744
C         48.92558        35.24808         0.00286
C         50.12158        37.38173        -0.25694
C         48.92208        38.09687        -0.06797
C         50.16282        40.24864        -0.02275
C         48.91985        39.53464        -0.00639
C         50.16811        41.66720         0.15386
C         48.93949        42.37569         0.27705
C         50.18372        44.50936         0.32652
C         48.94447        43.80340         0.36665
C         50.17194        45.94242         0.35112
C         48.94418        46.63534         0.41844
C         50.18872        48.77952         0.73197
C         48.93371        48.12440         0.20744
C         50.18463        50.28670         0.76875
C         48.88725        50.98051         0.66665
C         50.13462        53.06017         0.17386
C         48.94919        52.46090         0.90102
C         51.29802        21.13241         1.59728
C         52.72648        23.20734         1.15704
C         51.51516        22.57663         1.62373
C         52.82770        24.64193         1.12084
C         51.63946        25.43681         1.35004
C         52.78044        27.55624         0.83685
C         51.54995        26.80528         1.01956
C         52.71741        28.91194         0.29744
C         51.45184        29.55743         0.23229
C         52.61792        31.66297        -0.30834
C         51.41222        30.95622        -0.04529
C         52.57590        33.06996        -0.50679
C         51.37279        33.80791        -0.32014
C         52.58104        35.98129        -0.55650
C         51.36905        35.24494        -0.40944
C         52.62212        37.37999        -0.48033
C         51.34589        38.13889        -0.68639
C         52.62687        40.22614        -0.10445
C         51.38430        39.56190        -0.21334
C         52.64355        41.65160         0.08106
C         51.41725        42.36530         0.15924
C         52.65528        44.50325         0.21350
C         51.41519        43.79606         0.23374
C         52.63653        45.92893         0.28954
C         51.43785        46.64384         0.32760
C         52.62327        48.82854         0.33489
C         51.45685        48.09232         0.44848
C         52.62658        50.27251         0.29858
C         51.43018        50.99043         0.42778
C         51.29810        52.37934         0.04045
C         55.01251        23.09133         0.26233
C         53.86153        22.47226         0.69747
C         55.16230        24.51662         0.26709
C         54.02986        25.27155         0.71617
C         55.19059        27.38183         0.01199
C         54.09795        26.74262         0.71285
C         55.08707        28.76123        -0.42580
C         53.88403        29.56774        -0.13513
C         55.09997        31.64880        -0.70417
C         53.86398        30.94822        -0.43181
C         55.10132        33.05300        -0.80979
C         53.81141        33.75772        -0.90115
C         55.11395        35.97021        -0.69049
C         53.83094        35.27396        -0.87184
C         55.11201        37.35240        -0.45839
C         53.85901        38.08975        -0.39083
C         55.13034        40.17001         0.22018
C         53.85337        39.48364        -0.18539
C         55.12357        41.66049        -0.01919
C         53.89636        42.36800         0.06727
C         55.14379        44.51458         0.03116
C         53.89211        43.79549         0.11476
C         55.16616        45.92396         0.08259
C         53.93180        46.66553         0.52735
C         55.14760        48.83389        -0.19682
C         53.86835        48.08597         0.01522
C         55.07862        50.30156        -0.05560
C         53.90203        50.94944         0.12389
C         57.56919        24.48803        -0.46918
C         56.37907        25.17029        -0.11337
C         57.63461        27.34688        -0.64402
C         56.49921        26.66752         0.07824
C         57.62886        28.73694        -0.87280
C         56.33740        29.47060        -0.90636
C         57.53620        31.63348        -1.04395
C         56.34005        30.94567        -0.86242
C         57.55294        33.06419        -0.96149
C         56.31637        33.78470        -0.88015
C         57.57167        35.91646        -0.77017
C         56.32983        35.22240        -0.79829
C         57.58617        37.34471        -0.63421
C         56.36239        38.06810        -0.43444
C         57.59576        40.18970        -0.34463
C         56.37767        39.46749        -0.25795
C         57.59955        41.62999        -0.25086
C         56.35480        42.35416        -0.12489
C         57.60971        44.49089        -0.17524
C         56.36777        43.78219        -0.11682
C         57.61722        45.91912        -0.13847
C         56.38975        46.64888        -0.04659
C         57.65925        48.74321        -0.10257
C         56.42414        48.07905        -0.07252
C         58.74016        25.15564        -0.78590
C         59.97060        27.27097        -1.31405
C         58.80399        26.59213        -0.89175
C         59.97709        28.65637        -1.44921
C         58.80884        29.41380        -1.24008
C         60.02234        31.63948        -1.04537
C         58.78724        30.91024        -1.51950
C         60.01352        32.97805        -0.85971
C         58.79336        33.76680        -0.93340
C         60.02514        35.93310        -0.86850
C         58.80432        35.18628        -0.85749
C         60.03056        37.30074        -0.78580
C         58.81893        38.05148        -0.65352
C         60.03289        40.22974        -0.60851
C         58.82165        39.48120        -0.54321
C         60.03378        41.59683        -0.50280
C         58.82341        42.33658        -0.33402
C         60.06110        44.51272        -0.30183
C         58.84080        43.77775        -0.26847
C         60.07359        45.88665        -0.25397
C         58.85608        46.62463        -0.17734
C         58.85767        48.03710        -0.13442
O         54.34077        48.30634        -1.34070
O         29.69344        35.58118        -1.61149
O         53.71182        34.54416        -2.15029
O         28.50534        37.65870         1.40134
O         36.45053        25.68657         1.44053
O         27.51462        46.28776        -1.96804
O         49.44669        22.84537         2.83800
O         41.64339        34.53177         1.97162
O         30.99996        26.71096         1.41815
O         24.51634        30.02476         2.65335
O         48.20446        25.00404         2.62960
O         37.43485        50.30910        -2.03645
O         34.05757        47.57176         1.33284
O         43.25567        37.73451        -1.30787
O         55.43499        28.89989        -1.90251
O         50.17913        49.44482         2.01952
O         43.46453        29.06494        -1.22281
O         30.97450        23.21179        -2.73968
O         53.71014        27.41072         1.97546
O         43.35397        44.11471         2.20239
O         49.04495        48.31706        -1.25449
H         48.30528        47.82978        -1.67571
O         58.78396        31.02501        -2.98209
H         58.70339        31.97716        -3.20257
O         34.24953        35.22686        -1.85374
H         33.43354        34.81723        -2.21413
O         44.00792        33.66726        -1.55716
H         44.83297        34.09659        -1.87168
O         43.72499        52.46282         2.54618
H         43.76295        53.42141         2.79689
O         39.25713        22.67287        -2.42547
H         40.08242        22.22025        -2.70238
O         43.68763        55.25614         2.45784
H         42.84228        55.71305         2.65558
O         51.22338        38.24626        -2.17101
H         51.28239        37.33433        -2.53069
O         48.84764        29.37198        -1.32284
H         48.75076        28.40166        -1.49899
O         49.22425        52.62771         2.34279
H         49.86349        51.93018         2.60576
O         34.37215        22.72309        -2.95019
H         33.52184        22.49901        -3.38750
O         28.81036        30.93075        -1.65205
H         28.79941        31.87417        -1.92518
O         47.84558        31.73217         2.34391
H         47.11168        32.30276         2.65867
O         47.90323        26.89914        -0.79995
H         47.04134        27.08861        -1.23360
O         56.88884        26.82672         1.51987
H         56.15309        26.46755         2.06377
O         54.05784        46.79899         1.98758
H         54.01569        45.89912         2.37494
O         55.17316        40.03615         1.70377
H         56.00879        40.45344         2.00501
O         28.82760        46.73904         1.39586
H         29.60119        47.14623         1.84063
O         38.95878        33.75953         2.39814
H         39.84325        34.08976         2.69245
O         25.27539        37.12379        -1.82334
H         24.43625        36.64772        -2.00152
H         22.15310        26.49171         1.06920
H         22.38506        28.60399         2.41687
H         22.55723        31.61178         2.93896
H         22.33727        33.91691         2.02470
H         22.06976        35.51260         0.92744
H         22.00310        37.89485         0.49081
H         21.96735        39.76921        -0.02810
H         21.98723        42.17926        -0.24675
H         21.99506        44.04380        -0.35762
H         22.01626        46.49175        -0.38036
H         25.29979        23.57845        -0.93858
H         23.24211        24.69700        -0.20792
H         25.40080        49.87377        -0.33391
H         23.27803        48.61592        -0.33241
H         26.95104        22.60704        -1.05589
H         27.04259        50.76083        -1.18164
H         29.01056        21.50277        -1.72191
H         29.16920        51.94770        -1.34282
H         32.83538        19.27701        -1.51871
H         30.79293        20.51343        -1.93530
H         32.94408        54.03788        -1.54416
H         30.82410        52.86029        -1.50408
H         34.47529        18.30233        -1.27383
H         34.54324        55.02933        -1.18012
H         36.55504        17.08219        -1.10191
H         36.65403        56.22927        -1.09045
H         40.34916        14.92198        -0.97790
H         38.21906        16.12609        -1.12998
H         40.43941        58.36694        -0.80715
H         38.33640        57.14706        -1.20428
H         42.80702        14.92295        -0.68249
H         42.80095        58.41374        -0.13829
H         44.91237        16.12483        -0.27437
H         44.74715        57.32883         0.84551
H         48.57538        18.29775         0.73639
H         46.56974        17.09980         0.06054
H         48.52938        55.13111         0.56144
H         46.39696        56.33907         0.56179
H         50.21276        19.34399         1.42420
H         50.08626        54.10388        -0.16865
H         52.20839        20.51673         1.51853
H         52.15892        52.87761        -0.42921
H         55.84668        22.46507        -0.08322
H         53.82071        21.37411         0.68628
H         56.00812        50.88750        -0.09877
H         53.91636        52.04558         0.20898
H         57.57490        23.38823        -0.49187
H         57.69084        49.84126        -0.11579
H         59.64202        24.57477        -1.02842
H         60.88402        26.69624        -1.52535
H         60.90063        29.15692        -1.77268
H         60.96991        31.08756        -0.96053
H         60.95331        33.48412        -0.59573
H         60.98376        35.40579        -0.96337
H         60.99670        37.82161        -0.81032
H         60.99096        39.71442        -0.75459
H         60.99384        42.12405        -0.56953
H         61.02061        43.98298        -0.36131
H         61.02776        46.43242        -0.27711
H         59.81483        48.57710        -0.15694
