         324
 CSIRO Nanostructure Databank - Neutral Graphene Oxide Data Set
C          1.64890         2.07402         1.67870
C          1.75717         3.43243         2.06138
C          2.71584         1.39537         1.13446
C          2.95907         4.14261         1.98734
C          1.69690         6.29980         2.16222
C          1.55334         7.65587         1.88474
C          2.93061         5.62323         2.02916
C          2.60805         8.42332         1.35094
C          1.28623        10.53086         1.21834
C          1.24896        11.95414         1.19747
C          2.45002         9.82074         0.98211
C          2.35182        12.71974         0.90538
C          1.12817        14.93221         0.98527
C          1.12896        16.27003         0.80333
C          2.40282        14.18052         1.29370
C          2.36486        17.03102         0.78238
C          2.34000        18.42725         0.48718
C          3.99207         2.03168         1.06677
C          4.12362         3.36916         1.58811
C          5.13174         1.36238         0.59995
C          5.43962         3.82851         1.70070
C          4.04604         6.45431         1.67692
C          3.88011         7.79826         1.21965
C          5.38559         5.96853         1.72863
C          5.02274         8.51451         0.70419
C          3.59602        10.52255         0.38622
C          3.54457        12.08273         0.34876
C          4.92408         9.89074         0.35439
C          4.83172        12.80045         0.29100
C          3.62735        14.90649         0.77878
C          3.58738        16.32772         0.79001
C          4.82331        14.22597         0.46498
C          4.85197        17.06959         0.77315
C          3.48276        19.16133         0.28385
C          4.79904        18.61956         0.58323
C          6.44023         1.93111         0.53838
C          6.59112         3.31011         1.04484
C          7.42270         1.12263        -0.07682
C          7.67403         4.21366         0.77056
C          6.43723         6.48486         0.98864
C          6.27525         7.84715         0.52521
C          7.60564         5.67375         0.63979
C          7.38975         8.55874         0.05249
C          6.05972        10.64502        -0.02628
C          6.00637        12.10079        -0.04490
C          7.32458         9.95965        -0.19083
C          7.21055        12.85494        -0.30592
C          6.05073        14.97177         0.24516
C          6.07128        16.36079         0.41339
C          7.23424        14.23481        -0.14846
C          7.32603        17.15075         0.40240
C          6.02557        19.38206         0.09958
C          7.32957        18.62154         0.24300
C          8.81239         1.42943        -0.09537
C          8.93239         3.62364         0.38424
C          9.79426         1.03189        -0.96602
C          9.84950         4.18711        -0.46428
C          8.62263         6.34860        -0.04224
C          8.71785         7.85166         0.11977
C          9.70661         5.62460        -0.72582
C          9.81950         8.53868        -0.64761
C          8.50546        10.66744        -0.54404
C          8.39312        12.12448        -0.93449
C          9.76131         9.99497        -0.71345
C          9.69132        12.86174        -0.63624
C          8.43765        15.03123        -0.53181
C          8.58204        16.43732        -0.05579
C          9.70485        14.32797        -0.90509
C          9.76583        17.22900        -0.41229
C          8.51605        19.28239         0.09135
C          9.79019        18.60491        -0.10803
C         10.97176         1.90881        -1.27754
C         10.92781         3.42791        -1.17335
C         12.29673         1.25775        -1.34827
C         12.22442         4.17664        -1.41320
C         10.97097         6.38492        -1.09686
C         10.96325         7.85952        -0.96336
C         12.26458         5.66054        -1.20435
C         12.22344         8.54950        -1.30788
C         10.95634        10.70394        -0.91373
C         10.99399        12.14102        -0.64981
C         12.22898        10.04854        -1.21927
C         12.26648        12.88062        -0.77274
C         11.02828        15.04635        -0.94340
C         11.01942        16.55061        -0.75448
C         12.28551        14.28459        -0.71100
C         12.26602        17.23958        -0.45065
C         11.01568        19.31719        -0.13079
C         12.26788        18.63085        -0.22641
C         13.51329         1.90119        -1.24592
C         13.53505         3.40736        -1.34537
C         14.73041         1.11796        -1.35677
C         14.75194         4.23497        -1.13879
C         13.43492         6.35745        -1.30067
C         13.47896         7.81511        -0.88280
C         14.71634         5.65482        -1.56607
C         14.75973         8.58285        -1.15026
C         13.50319        10.74754        -0.92952
C         13.48180        12.12863        -0.74273
C         14.74402         9.99898        -0.96803
C         14.72912        12.87295        -0.48926
C         13.50476        15.01420        -0.64007
C         13.52054        16.45765        -0.20994
C         14.74359        14.33942        -0.66489
C         14.75949        17.19666        -0.63727
C         13.53172        19.29745        -0.13435
C         14.75546        18.63519        -0.43371
C         15.96330         1.56199        -0.85775
C         15.90973         3.75130        -0.60789
C         17.28708         1.24948        -1.18580
C         17.21495         4.34622        -0.80043
C         16.01067         6.42856        -1.50188
C         15.98527         7.90457        -1.27764
C         17.24647         5.68206        -1.16314
C         17.21063         8.60499        -1.14163
C         15.98273        10.67628        -0.79924
C         16.01727        12.12293        -0.48304
C         17.19958         9.98000        -0.85018
C         17.27960        12.87481        -0.72266
C         15.96693        15.03726        -0.81947
C         15.92257        16.48309        -0.89332
C         17.23529        14.33496        -0.92469
C         17.13208        17.21309        -1.30090
C         15.97839        19.33138        -0.40941
C         17.18854        18.75508        -0.96273
C         18.42865         2.08311        -0.86019
C         18.42731         3.53301        -0.73310
C         19.67028         1.41369        -0.83685
C         19.67352         4.22417        -0.71649
C         18.52755         6.37650        -1.26967
C         18.51019         7.89893        -1.25789
C         19.74029         5.66088        -0.84307
C         19.74268         8.57673        -0.82351
C         18.43377        10.69919        -0.34891
C         18.44308        12.17069        -0.72806
C         19.73501         9.96891        -0.60028
C         19.76171        12.83411        -1.05903
C         18.42580        15.00999        -1.16444
C         18.42507        16.46875        -1.41759
C         19.73897        14.35000        -0.74412
C         19.71456        17.24666        -1.31939
C         18.50751        19.36226        -0.76608
C         19.70893        18.70326        -0.98692
C         20.90272         2.07518        -0.64555
C         20.90857         3.50998        -0.61154
C         22.12500         1.36392        -0.53477
C         22.13919         4.20438        -0.50675
C         20.93346         6.37091        -0.68303
C         20.94125         7.83299        -0.67168
C         22.16589         5.63712        -0.48653
C         22.12733         8.53050        -0.32818
C         20.94272        10.65156        -0.40632
C         20.91348        12.13310        -0.34755
C         22.16695         9.94504        -0.27452
C         22.19331        12.87162        -0.20794
C         21.04885        15.02981        -1.18025
C         21.00547        16.51854        -1.19489
C         22.32101        14.26216        -0.77559
C         22.10474        17.31145        -1.39137
C         20.96106        19.37871        -0.83010
C         22.19352        18.71162        -1.00633
C         23.35465         2.02915        -0.40678
C         23.36801         3.48074        -0.39762
C         24.57482         1.30827        -0.25229
C         24.58617         4.17728        -0.31407
C         23.38267         6.30857        -0.28854
C         23.32846         7.75276         0.01024
C         24.62510         5.60191        -0.21236
C         24.60844         8.49202         0.23265
C         23.43232        10.66215        -0.06854
C         23.45402        12.11355        -0.01240
C         24.61853         9.95934         0.08238
C         24.57774        12.81883         0.37253
C         23.55785        14.95168        -0.32917
C         23.81484        16.24554        -0.71539
C         24.59999        14.27678         0.42200
C         24.63521        17.16104         0.04430
C         23.46161        19.28827        -0.72659
C         24.67759        18.60248        -0.35368
C         25.81591         1.95476        -0.19794
C         25.84284         3.41993        -0.38734
C         27.03683         1.27765         0.02462
C         27.14348         4.16004        -0.08971
C         25.86229         6.28338         0.04512
C         25.92069         7.78733        -0.05096
C         27.07395         5.59232         0.25109
C         26.99071         8.41862         0.81224
C         25.91149        10.63899         0.26181
C         25.86912        12.12855         0.50772
C         27.07990         9.88683         0.77951
C         26.93577        12.75924         1.33974
C         25.75345        14.97239         0.79661
C         25.74192        16.44691         0.84413
C         26.91218        14.27209         1.41979
C         27.02459        17.19943         1.02071
C         25.86438        19.27315        -0.14315
C         27.06594        18.64727         0.45811
C         28.24952         1.95294         0.29616
C         28.30305         3.37822         0.34882
C         29.44663         1.22701         0.62173
C         29.45859         4.05635         0.78110
C         28.26174         6.21829         0.72059
C         28.22493         7.63080         1.14635
C         29.46344         5.49471         0.91270
C         29.48287         8.37040         1.34110
C         28.22074        10.52255         1.20999
C         28.19989        11.97047         1.55293
C         29.46542         9.78805         1.41206
C         29.50850        12.71490         1.71743
C         28.21694        15.01730         1.55617
C         28.27806        16.42526         1.06152
C         29.52146        14.22796         1.64481
C         29.50078        17.04809         0.82846
C         28.38191        19.13868         0.07988
C         29.53989        18.42953         0.35434
C         30.59305         1.87841         0.99624
C         30.63633         3.30760         1.10084
C         31.79437         4.00224         1.49726
C         30.66589         6.17098         1.30775
C         30.69317         7.63495         1.39397
C         31.80691         5.39549         1.58523
C         31.89706         8.36259         1.52731
C         30.70216        10.49925         1.48228
C         30.73842        11.95694         1.38720
C         31.89765         9.75167         1.55330
C         31.84089        12.65534         0.94778
C         30.75142        14.87008         1.12282
C         30.75603        16.31061         0.89297
C         31.83219        14.07479         0.79503
C         31.94990        16.98173         0.65859
C         30.81391        19.04014         0.08370
C         31.98006        18.34767         0.27662
O         18.68026         7.16046        -2.51005
O         23.27908        16.73615        -1.90345
O         12.90955         3.78380        -2.62923
O         26.47663        13.43095         2.53965
O         26.72424         3.86920        -1.47159
O         21.88414        14.36973        -2.16754
O          3.28489        11.26258        -0.83148
O          8.79406        14.79834        -1.94514
O         16.94310        18.19131        -2.31593
O          9.20370         2.35544         0.89664
O         19.14253        16.88307        -2.63625
O         24.55774        16.98245         1.49590
O         28.79541        12.19208         2.86929
O         15.37729        12.46753         0.80116
O         10.27821        12.52394         0.64283
O         12.25954         9.31019        -2.52770
O         26.94892        18.34282         1.90263
O         15.84978         2.56846         0.12645
O         26.32715        11.60435        -0.78307
O          5.66135         4.89859         2.58110
O         10.54421         2.76384        -2.42186
O         15.41177         6.02054        -2.79738
O         27.15443         7.86679         2.14577
O          8.28246        16.60560         1.37894
O         11.11323        15.89548        -2.12715
O          4.98270        18.02822         1.88872
O          9.99180         5.99326        -2.12151
O         23.85648         8.01943         1.38419
O         21.28395        12.70967         0.94220
O         28.93236        14.86435         2.81857
O          9.16221         8.03151         1.52692
H          8.43195         7.72530         2.10753
O          5.84229        19.75646        -1.27856
H          6.00625        18.97721        -1.84792
O         19.70247        14.57866         0.69188
H         19.15071        13.88517         1.11249
O         26.29206         8.10962        -1.42404
H         25.84253         7.48366        -2.02965
O          8.18500        12.15300        -2.37298
H          8.18470        13.10216        -2.64706
O         18.30334        10.68453         1.11531
H         17.45755        11.12665         1.34874
O         13.37166         7.78906         0.58477
H         14.22583         7.48542         0.95768
O         13.59022        16.38293         1.28172
H         14.35365        15.80746         1.50662
O          2.53774        14.18304         2.76067
H          2.60950        15.11944         3.04541
O         19.97081        12.63119        -2.47310
H         19.39164        13.24512        -2.97101
H          0.66927         1.58253         1.76055
H          0.83212         3.92982         2.37955
H          2.60360         0.36504         0.76906
H          0.79925         5.75951         2.48905
H          0.56462         8.11141         2.03017
H          0.39421        10.01240         1.59585
H          0.33911        12.43632         1.58187
H          0.17492        14.38523         1.00750
H          0.18425        16.81136         0.64401
H          1.36160        18.89168         0.29333
H          5.01743         0.31794         0.27364
H          3.42592        20.15425        -0.18454
H          7.07516         0.23859        -0.63254
H          6.09223        20.34042         0.67671
H          9.57906         0.24597        -1.70627
H          8.50889        20.38093         0.01807
H         12.29609         0.15634        -1.33802
H         11.01086        20.40364         0.03750
H         14.67353         0.16460        -1.90420
H         13.54911        20.38137         0.05226
H         17.49591         0.32306        -1.74296
H         16.02027        20.33926         0.03069
H         19.67607         0.31838        -0.94368
H         18.53415        20.40158        -0.40391
H         22.10623         0.26401        -0.55715
H         20.95067        20.43894        -0.53624
H         24.53349         0.21191        -0.16556
H         23.48983        20.38533        -0.61859
H         27.02687         0.17815         0.07492
H         25.94514        20.33452        -0.42533
H         29.42747         0.12871         0.56879
H         28.45212        20.09779        -0.45570
H         31.50010         1.30518         1.23766
H         32.70569         3.43652         1.73922
H         32.73651         5.88815         1.90150
H         32.85862         7.83479         1.58493
H         32.85857        10.27823         1.63692
H         32.75561        12.11804         0.66109
H         32.73863        14.53370         0.37721
H         32.90694        16.45147         0.75506
H         30.83215        20.08692        -0.25160
H         32.95034        18.83281         0.10258
