         204
 CSIRO Nanostructure Databank - Neutral Graphene Oxide Data Set
C        -10.97327         0.64716        -0.76589
C         -9.79416         1.39230        -0.41473
C         -8.61432         0.69716         0.00825
C         -7.44065         1.42997         0.37411
C         -6.25852         0.70816         0.78992
C         -5.05659         1.47677         1.38554
C         -3.72344         0.78087         1.17879
C         -2.51095         1.46074         1.08875
C         -1.22637         0.77275         1.14094
C         -0.00294         1.44145         1.18079
C          1.24649         0.75192         1.04583
C          2.47782         1.44131         0.98263
C          3.71852         0.74806         0.81945
C          4.91379         1.44324         0.56336
C          6.12366         0.72374         0.22603
C          7.29879         1.44372        -0.14755
C          8.47088         0.75086        -0.57171
C          9.64916         1.48484        -0.94084
C         10.81559         0.75845        -1.37436
C         -9.77354         2.78471        -0.55161
C         -8.59098         3.51105        -0.30279
C         -7.45157         2.83999         0.21666
C         -6.24117         3.64535         0.47314
C         -4.99223         2.95836         0.97373
C         -3.69882         3.59258         0.62355
C         -2.48376         2.88629         0.83661
C         -1.23947         3.60310         0.86329
C         -0.01805         2.92328         1.48332
C          1.28470         3.59610         1.11639
C          2.47507         2.90069         0.97692
C          3.72947         3.61741         0.83813
C          4.94075         2.88894         0.60798
C          6.16671         3.56562         0.36726
C          7.31689         2.87250        -0.07866
C          8.50805         3.59809        -0.44211
C          9.64910         2.87966        -0.87686
C         -8.52528         4.90959        -0.63093
C         -7.31771         5.59011        -0.66933
C         -6.11327         4.93816        -0.22186
C         -4.86563         5.55252        -0.33250
C         -3.67909         4.89505         0.08328
C         -2.35004         5.51002        -0.31113
C         -1.21128         4.93255         0.48910
C         -0.04782         5.77089         0.78278
C          1.27914         5.05610         1.09722
C          2.51864         5.77845         0.80764
C          3.71921         5.03921         0.81014
C          4.97694         5.79524         0.81346
C          6.27758         5.01176         0.59102
C          7.43356         5.75378         0.05631
C          8.52621         5.01658        -0.41164
C         -7.24081         6.98229        -1.05220
C         -6.04020         7.63020        -1.15814
C         -4.74945         6.84441        -1.11076
C         -3.54721         7.67099        -0.71301
C         -2.38233         7.02756        -0.31954
C         -1.17717         7.77909        -0.13942
C          0.02149         7.15226         0.28878
C          1.24647         7.85720         0.31642
C          2.49268         7.17880         0.55375
C          3.72592         7.88910         0.36352
C          4.95900         7.21920         0.46706
C          6.19261         7.89062         0.20611
C          7.38763         7.16741         0.02552
C         -5.96954         9.04945        -1.41484
C         -4.79870         9.73796        -1.31729
C         -3.56226         9.08995        -0.92417
C         -2.38976         9.82487        -0.77011
C         -1.17326         9.18977        -0.40154
C          0.04197         9.90581        -0.31833
C          1.25301         9.25828        -0.02425
C          2.49314         9.96263        -0.08256
C          3.70716         9.30312         0.07294
C          4.96663         9.98955        -0.06771
C          6.15248         9.31534        -0.01215
C        -10.95599        -0.71693        -0.78970
C         -9.76517        -1.43876        -0.44015
C         -8.60961        -0.72792         0.01201
C         -7.44260        -1.44859         0.39764
C         -6.27869        -0.68755         0.79882
C         -5.04382        -1.43860         1.13908
C         -3.75739        -0.68483         1.32117
C         -2.49918        -1.40277         0.96707
C         -1.22864        -0.69696         1.28057
C          0.03379        -1.46145         1.11995
C          1.22675        -0.69503         0.60278
C          2.50272        -1.46461         0.80627
C          3.78137        -0.73582         1.10846
C          4.97325        -1.45437         0.52036
C          6.13494        -0.70150         0.16945
C          7.30796        -1.39491        -0.27440
C          8.47450        -0.66806        -0.63877
C          9.65282        -1.36940        -1.07181
C         10.81868        -0.60407        -1.43689
C         -9.68631        -2.82558        -0.62097
C         -8.54531        -3.56767        -0.26865
C         -7.44065        -2.88423         0.34975
C         -6.20840        -3.58148         0.68492
C         -4.98187        -2.88621         0.80544
C         -3.77466        -3.60407         0.76162
C         -2.49372        -2.86924         0.72526
C         -1.23056        -3.62997         0.81659
C          0.00695        -2.92948         0.87983
C          1.23693        -3.58081         0.77900
C          2.48676        -2.84939         0.73844
C          3.73236        -3.60159         0.63710
C          4.96211        -2.85119         0.44235
C          6.15708        -3.56087         0.03415
C          7.31638        -2.81845        -0.33885
C          8.49608        -3.51043        -0.76631
C          9.64986        -2.76193        -1.12997
C         -8.53426        -4.95616        -0.75594
C         -7.85956        -5.97688        -0.16327
C         -6.13454        -4.99433         0.73495
C         -4.97535        -5.71824         0.42850
C         -3.75314        -4.99868         0.47261
C         -2.49907        -5.71022         0.37563
C         -1.28486        -5.02741         0.64632
C         -0.04735        -5.80247         0.81017
C          1.27595        -5.04099         0.87837
C          2.51695        -5.75540         0.55208
C          3.72657        -4.99727         0.51813
C          5.03085        -5.75453         0.54463
C          6.18488        -4.96562        -0.00963
C          7.34673        -5.65411        -0.45578
C          8.48683        -4.92198        -0.82707
C         -7.53236        -7.33973        -0.56956
C         -6.27596        -7.87108        -0.40569
C         -4.99010        -7.03950        -0.33278
C         -3.71103        -7.82587        -0.10505
C         -2.50000        -7.13442         0.14497
C         -1.24852        -7.85127         0.10714
C         -0.01581        -7.19873         0.36249
C          1.22814        -7.85549         0.20600
C          2.47979        -7.14347         0.30795
C          3.71864        -7.83542        -0.00747
C          4.93031        -7.15333        -0.01345
C          6.14822        -7.81581        -0.40965
C          7.32200        -7.09105        -0.57185
C         -6.12198        -9.29234        -0.64487
C         -4.92247        -9.92754        -0.61988
C         -3.68124        -9.22223        -0.36458
C         -2.46570        -9.91932        -0.39828
C         -1.23567        -9.25097        -0.19885
C          0.00862        -9.92425        -0.31143
C          1.22462        -9.24882        -0.15936
C          2.46997        -9.91871        -0.39502
C          3.67745        -9.24271        -0.35485
C          4.91937        -9.91241        -0.65850
C          6.09815        -9.23116        -0.69264
O         -2.49372        -1.88277        -0.42244
O         -5.27086         1.44577         2.82138
H         -5.75496         2.27375         3.05139
O          0.62243        -5.56603         2.09324
O          3.95063        -0.81048         2.57414
H          3.97326        -1.76021         2.82011
O          5.86600         5.44664         1.92539
O         -4.48093         6.42450        -2.50926
H         -4.44401         7.24144        -3.05207
O          1.01770        -0.64853        -0.85716
H          1.78477        -0.18553        -1.25564
O          5.33645        -5.93821         1.98311
H          4.58624        -6.43348         2.37687
O          0.45021         5.64842         2.16775
O         -0.45988        -1.14527         2.45641
O         -5.80909         3.76257         1.89443
O         -4.48578        -1.18940         2.48540
O         -2.11984         5.11404        -1.70907
H         -2.89821         5.44870        -2.22522
O         -4.87955        -6.58531        -1.74031
H         -4.01500        -6.12979        -1.83560
O         -7.28959        -5.68638         1.09594
O         -0.15279         3.04477         2.93072
H         -0.04153         4.00301         3.14031
H         11.71793        -1.14418        -1.76772
H         11.71267         1.32998        -1.65453
H         10.55419         3.43666        -1.16163
H          9.42109         5.54462        -0.77388
H          8.29314         7.71523        -0.27698
H          7.10190         9.85059        -0.16001
H          4.95325        11.07382        -0.25208
H          2.48239        11.03829        -0.31410
H          0.04596        10.98391        -0.53775
H         -2.39527        10.90820        -0.96154
H         -4.77973        10.82351        -1.49240
H         -6.90530         9.58152        -1.64381
H         -8.18059         7.53950        -1.18926
H         -9.44601         5.41559        -0.95691
H        -10.66443         3.31023        -0.92552
H        -11.87841         1.20177        -1.05299
H        -11.84678        -1.28433        -1.09594
H        -10.54063        -3.34951        -1.07507
H         -9.09341        -5.14694        -1.68413
H         -8.34577        -8.00720        -0.90188
H         -7.03911        -9.87317        -0.82808
H         -4.87094       -11.01191        -0.79685
H         -2.46616       -10.99700        -0.61902
H          0.01442       -10.99452        -0.56648
H          2.45246       -10.98659        -0.66021
H          4.89016       -10.98807        -0.88673
H          7.03410        -9.74743        -0.95216
H          8.23844        -7.60809        -0.89386
H          9.38704        -5.45382        -1.16927
H         10.55290        -3.29630        -1.46103
