         490
 CSIRO Nanostructure Databank - Neutral Graphene Oxide Data Set
C         37.90390        50.04015        -1.90266
C         36.90615        50.75041        -2.50610
C         37.89050        52.87002        -1.83702
C         36.95639        52.19250        -2.54118
C         40.36676        48.61250        -1.19986
C         40.16951        50.02603        -0.89907
C         39.00894        50.70087        -1.25225
C         40.11401        52.89142        -0.61656
C         38.81676        52.15712        -0.87624
C         40.10428        54.32483        -0.50301
C         42.38559        48.57519         0.24960
C         41.43063        47.93209        -0.73080
C         42.47959        50.06094        -0.00846
C         41.32232        50.74690        -0.38125
C         42.50801        52.89204        -0.00763
C         41.29174        52.19172        -0.34781
C         42.47206        54.37330         0.30363
C         41.19828        55.03628        -0.13117
C         44.94415        45.76923         0.37338
C         43.74523        46.47357         0.34620
C         44.93402        48.59717         0.45706
C         43.72171        47.87438         0.32757
C         44.92014        50.05873         0.42596
C         43.70658        50.76024         0.21056
C         44.94953        52.97527         0.53121
C         43.69233        52.20424         0.17474
C         44.96487        54.37796        -0.05221
C         43.74430        55.07787        -0.13439
C         44.94711        57.11044        -0.67432
C         43.74406        56.42631        -0.51057
C         47.50931        44.32512         0.18194
C         47.44902        45.72736         0.38792
C         46.17598        46.45307         0.43029
C         47.42436        48.59401         0.72148
C         46.15170        47.86682         0.55340
C         47.43495        50.07736         0.56519
C         46.15220        50.79811         0.39480
C         47.46357        52.86091         0.04580
C         46.20101        52.17877         0.25906
C         47.46970        54.28329        -0.46279
C         46.18124        55.05299        -0.27794
C         47.43416        57.22377        -0.39289
C         46.17088        56.44242        -0.53665
C         47.57077        58.57725        -0.94694
C         49.74587        43.95285         1.16256
C         48.67158        43.54985         0.32661
C         50.00771        45.93084         0.04213
C         48.65692        46.48834         0.39443
C         49.94405        48.59841         0.45169
C         48.69064        47.87335         0.49735
C         49.95740        50.02587         0.34790
C         48.66476        50.68634        -0.06432
C         49.96714        52.85109        -0.34535
C         48.65364        52.18596        -0.00984
C         49.93287        54.35297        -0.17755
C         48.75457        55.01802        -0.13769
C         49.99562        57.23141        -0.18292
C         48.72563        56.49676        -0.06995
C         49.96983        58.63292        -0.38860
C         48.74970        59.24539        -0.87566
C         52.32961        41.33493         0.75389
C         51.17412        42.04664         0.83139
C         52.31721        44.26553         0.81011
C         51.12371        43.48183         0.93175
C         52.40065        45.68323         0.78857
C         51.13350        46.47110         0.93473
C         52.40854        48.61074         0.59740
C         51.18197        47.92902         0.56422
C         52.40312        50.05174         0.58935
C         51.14729        50.73602         0.43781
C         52.41184        52.94341         0.43508
C         51.07378        52.24565         0.54720
C         52.44453        54.33731         0.29360
C         51.26679        55.05341        -0.33841
C         52.41532        57.21443         0.19697
C         51.23086        56.52953        -0.04320
C         52.33457        58.69959         0.45272
C         51.18138        59.36825        -0.25596
C         52.47633        61.42610        -0.43916
C         51.28259        60.73503        -0.57039
C         54.95463        39.95325         0.88594
C         54.87216        41.31805         0.79838
C         53.60033        42.02409         0.50345
C         54.87839        44.27220         0.65331
C         53.58483        43.54171         0.52504
C         54.87613        45.72206         0.62669
C         53.62782        46.41464         0.67055
C         54.86656        48.57109         0.74221
C         53.63311        47.85940         0.66706
C         54.86045        50.03346         0.83992
C         53.61689        50.76050         0.74738
C         54.80891        52.93330         0.88173
C         53.61183        52.21751         0.70926
C         54.83889        54.35630         0.84058
C         53.64172        55.07093         0.52268
C         54.81237        57.25159         0.79304
C         53.64943        56.51701         0.47090
C         54.83405        58.68445         0.60552
C         53.65790        59.39355         0.28350
C         54.92476        61.49678        -0.00165
C         53.68682        60.77824        -0.04755
C         55.02099        62.87427        -0.37025
C         57.40847        39.93242         1.07451
C         56.20152        39.27332         1.03915
C         57.40972        41.41039         1.12413
C         56.07710        42.13168         1.00995
C         57.33963        44.26392         0.27937
C         56.06209        43.57709         0.68702
C         57.37464        45.73594         0.60503
C         56.10673        46.43864         0.68142
C         57.37158        48.55997         1.11007
C         56.08215        47.85471         0.77590
C         57.33409        50.04406         0.84598
C         56.06991        50.73031         0.96280
C         57.27707        52.95429         0.89029
C         56.04987        52.19886         1.30954
C         57.29224        54.34651         1.04209
C         56.06426        55.06328         1.08366
C         57.31337        57.31785         1.54081
C         56.02294        56.53171         1.27244
C         57.22795        58.78845         1.25052
C         56.06432        59.42074         0.74055
C         57.31554        61.57732         0.56974
C         56.09805        60.83011         0.45690
C         57.38389        62.98794         0.24691
C         56.18922        63.58918        -0.25377
C         60.00569        37.08727         1.46275
C         58.74410        37.87408         1.30037
C         59.95711        40.04630         1.26646
C         58.68662        39.22031         1.17138
C         59.83993        41.31785         0.41685
C         58.63577        42.16019         0.76745
C         59.86172        44.24260         0.32246
C         58.62357        43.51464         0.56895
C         59.84438        45.69908         0.28270
C         58.59566        46.41082         0.53473
C         59.78046        48.56275         0.40845
C         58.61857        47.85941         0.61576
C         59.75502        50.04099         0.08288
C         58.49757        50.73317         0.59159
C         59.76789        52.93784         0.42624
C         58.46222        52.20157         0.49181
C         59.80842        54.37790         0.70032
C         58.59751        55.05544         1.19807
C         59.97436        57.17509         1.13780
C         58.65344        56.54827         1.49948
C         60.19753        58.56804         1.42720
C         58.29749        59.63223         1.56788
C         59.78799        61.58469         0.86841
C         58.45283        60.93768         1.09282
C         59.79416        63.07392         1.11055
C         58.56664        63.72902         0.48771
C         59.81642        65.82394         0.52480
C         58.63125        65.13781         0.34587
C         62.60437        35.71722         1.18296
C         62.46461        37.14067         0.89178
C         61.25191        37.85642         1.08260
C         62.36452        39.96068         0.49482
C         61.19955        39.24706         0.89228
C         62.32990        41.41348         0.30642
C         61.12313        42.10881         0.36402
C         62.30097        44.26245        -0.19493
C         61.06163        43.53407         0.23225
C         62.32086        45.73698         0.11483
C         61.04071        46.42148         0.14906
C         62.24039        48.57493         0.29457
C         61.04958        47.87344         0.25999
C         62.29886        50.02637         0.71943
C         61.01523        50.75800         0.49358
C         62.14010        52.86836        -0.30054
C         61.06503        52.20654         0.70415
C         62.18934        54.34989        -0.02262
C         61.01310        55.03786         0.42832
C         62.22815        57.19678         0.10057
C         61.03375        56.47331         0.58644
C         62.26382        58.70003         0.16587
C         61.15698        59.36072         0.86508
C         62.37035        61.57879         0.64115
C         61.08124        60.83934         0.74343
C         62.34906        63.01016         0.65062
C         61.10410        63.75059         0.74158
C         62.31605        65.91252         0.61855
C         61.07699        65.14590         0.65008
C         62.36061        67.26185         0.82465
C         64.78278        35.64120        -0.03864
C         63.70494        35.02197         0.82680
C         64.87662        37.12425         0.24356
C         63.62809        37.84386         0.50338
C         64.82932        39.93405        -0.00276
C         63.56887        39.24218         0.34050
C         64.83570        41.41657        -0.07326
C         63.56996        42.15824         0.12973
C         64.85142        44.30710        -0.10315
C         63.57597        43.52598         0.08892
C         64.78990        45.70245         0.57589
C         63.50814        46.41414         0.18801
C         64.77595        48.59996         0.49220
C         63.53329        47.89263        -0.07672
C         64.71190        50.04494         0.03364
C         63.51906        50.75363         0.10106
C         64.64358        52.91592        -0.40762
C         63.45548        52.15855        -0.18828
C         64.64176        54.31999        -0.41548
C         63.43690        55.05506        -0.12454
C         64.78720        57.20143         0.12126
C         63.48402        56.45699        -0.03811
C         64.70871        58.71210        -0.04311
C         63.56032        59.42129         0.15975
C         64.79015        61.59219         0.21438
C         63.55399        60.87864         0.32715
C         64.79370        63.01067         0.34616
C         63.57097        63.70501         0.48305
C         64.82126        65.82921         0.91743
C         63.59892        65.19906         0.24657
C         64.80578        67.34095         0.76681
C         63.61027        67.98536         0.77897
C         67.38075        32.85239         0.23217
C         66.18753        33.52580         0.17049
C         67.31331        35.65574        -0.15915
C         66.13059        34.94583         0.02000
C         67.31404        37.10949        -0.15430
C         66.07068        37.78928         0.14850
C         67.34605        39.98171        -0.00122
C         66.10394        39.26201         0.45604
C         67.33037        41.41907         0.05642
C         66.12173        42.10480         0.11754
C         67.38225        44.30149         0.39372
C         66.07644        43.54054         0.35325
C         67.31074        45.77117         0.15452
C         66.07589        46.46667         0.25281
C         67.24805        48.58043        -0.15883
C         66.05050        47.86599         0.11593
C         67.22254        50.01073        -0.39874
C         65.90994        50.65366        -0.56137
C         67.17250        52.87220        -0.68690
C         65.88418        52.18391        -0.75391
C         67.13527        54.32854        -0.48322
C         65.87152        55.05913        -0.90652
C         67.16399        57.21903        -0.72709
C         65.94070        56.53593        -0.57971
C         67.14995        58.71394        -0.85155
C         65.93111        59.45731        -0.41848
C         67.22991        61.58054        -0.15500
C         66.00830        60.90370        -0.10198
C         67.26384        63.00801         0.08262
C         66.05480        63.73022         0.28249
C         67.32267        65.81813         0.42929
C         66.09851        65.13851         0.47152
C         67.37818        67.30412         0.49859
C         66.08708        68.08867         0.68129
C         67.42659        70.01276         1.42447
C         66.21521        69.41269         1.29885
C         69.94958        31.42055         0.28896
C         69.85235        32.82579         0.02212
C         68.63748        33.52084         0.05662
C         69.75962        35.67881        -0.39823
C         68.60216        34.96533        -0.18189
C         69.67454        37.09883        -0.91152
C         68.48240        37.83448        -0.36086
C         69.75818        40.00593        -0.47663
C         68.51555        39.28216        -0.27638
C         69.79626        41.40770        -0.33462
C         68.58233        42.15048        -0.03518
C         69.86532        44.27267        -0.01152
C         68.60058        43.53334         0.10058
C         69.82218        45.78545        -0.08203
C         68.50451        46.48490        -0.07959
C         69.78361        48.63283        -0.23032
C         68.47569        47.87912        -0.24029
C         69.67196        50.06647        -0.68075
C         68.40506        50.73773        -0.62439
C         69.63703        52.91902        -0.85219
C         68.37971        52.18823        -0.73994
C         69.67587        54.33513        -0.78435
C         68.43076        55.07972        -0.51991
C         69.66882        57.22653        -0.62793
C         68.38655        56.52422        -0.79216
C         69.68639        58.72864        -0.61108
C         68.45626        59.48502        -1.06686
C         69.68832        61.53406        -0.41806
C         68.47198        60.89408        -0.48360
C         69.79952        62.92360         0.15993
C         68.50249        63.69612         0.10567
C         69.82145        65.78140         0.32939
C         68.53790        65.09192         0.27001
C         69.86681        67.16021         0.84653
C         68.63882        67.96695         0.87019
C         69.94331        70.06218         1.17411
C         68.67303        69.32740         1.14793
C         69.96520        71.46596         1.32982
C         72.39046        31.54046         0.30993
C         71.16179        30.79179         0.40345
C         72.37600        32.85170        -0.02007
C         71.10457        33.52953        -0.47480
C         72.20829        35.75612        -0.92162
C         71.11484        35.03398        -0.17776
C         72.15636        37.09481        -1.12987
C         70.96993        37.86744        -0.85031
C         72.19710        40.01150        -0.87072
C         70.97431        39.26223        -0.74511
C         72.21435        41.37492        -0.81663
C         71.02709        42.13400        -0.54479
C         72.18375        44.32363        -0.86985
C         71.05762        43.54639        -0.48767
C         72.14314        45.70037        -0.97858
C         70.98690        46.48165        -0.68056
C         72.01520        48.61996        -1.39581
C         70.92963        47.86799        -0.86060
C         72.00132        49.99259        -1.41577
C         70.83037        50.74750        -1.05910
C         72.02624        52.92337        -1.34385
C         70.83604        52.20025        -1.11410
C         72.05129        54.30708        -1.29230
C         70.88561        55.04714        -0.99430
C         72.09751        57.23748        -0.94718
C         70.93026        56.50163        -0.86044
C         72.12163        58.66253        -0.92669
C         70.97022        59.41918        -0.83898
C         72.04613        61.64109        -1.08769
C         70.93155        60.86996        -0.80866
C         72.04011        63.05721        -0.93283
C         70.97505        63.71935        -0.36980
C         72.21889        65.90586        -0.18700
C         70.99939        65.13936        -0.04791
C         72.30962        67.21951         0.14554
C         71.20611        67.91854         0.81288
C         72.35252        70.14725         0.77318
C         71.16851        69.39951         0.89750
C         72.34809        71.52992         0.93426
C         71.14776        72.18867         1.21985
O         65.71965        51.26904        -1.87962
O         56.72839        41.92165         2.32525
O         67.73095        54.75494         0.77533
O         70.12877        45.12145         1.19190
O         69.61411        58.02744         0.65515
O         66.68171        43.91039         1.64180
O         60.25221        61.21039        -0.46951
O         47.54371        49.50800         1.89797
O         66.71465        67.96512        -0.64364
O         59.32371        59.12341         2.36189
O         66.18794        59.15821        -1.87832
O         47.89767        57.07996         1.00468
O         58.76993        55.58507         2.58047
O         50.25240        45.48205        -1.06831
O         64.83024        40.56800        -1.31001
O         53.58583        42.79427        -0.75471
O         59.06978        52.63690        -0.82261
O         70.72114        67.27957         2.03941
O         61.92665        58.04849        -1.10748
O         56.45856        56.93043         2.64483
O         57.29736        44.20523        -1.20957
H         56.47254        44.65535        -1.49583
O         48.53079        50.37027        -1.49766
H         49.29063        50.80909        -1.94954
O         71.41198        35.17666         1.24651
H         71.47402        36.13442         1.44524
O         64.70104        48.53051         1.94781
H         65.59675        48.67740         2.31690
O         62.52360        50.04881         2.17728
H         63.32216        49.48316         2.36263
O         70.14170        48.72830         1.20447
H         70.30773        47.81439         1.52516
O         65.86944        54.96266        -2.37207
H         65.12362        55.50285        -2.70905
O         64.67783        45.54955         2.00804
H         65.46830        45.03797         2.31298
O         50.61010        52.53253         1.90289
H         51.26755        52.17420         2.53542
O         63.77352        65.37320        -1.18740
H         63.00066        64.97435        -1.63876
O         38.10638        52.15725         0.42184
H         37.24784        51.70584         0.27381
O         50.79804        46.52360         2.36785
H         51.40933        47.17281         2.77657
O         59.57838        40.85220        -0.94648
H         59.39210        41.63803        -1.50355
O         59.68760        50.08263        -1.38633
H         59.67132        51.04296        -1.63296
O         60.11604        40.47909         2.63934
H         60.11450        39.68905         3.21783
O         59.65345        63.23928         2.55880
H         59.63322        64.20156         2.74702
O         64.32933        35.49809        -1.42850
H         63.47967        35.98181        -1.50621
O         56.04631        52.21322         2.79916
H         56.13248        53.15079         3.08027
O         50.26271        52.55597        -1.74770
H         49.55246        53.00357        -2.26570
O         49.38599        44.54764         2.30443
H         50.15562        44.93222         2.78705
O         65.02966        44.52286        -1.52834
H         64.12998        44.64873        -1.92000
O         61.51650        52.54567         2.02516
H         61.96206        51.74852         2.41074
O         41.77663        48.42121         1.57707
H         40.92768        48.91250         1.56667
O         42.48427        54.47195         1.78335
H         41.67319        54.02557         2.10940
O         51.54945        54.98189        -1.78330
H         51.48157        54.02993        -2.03789
O         71.07109        33.40684        -1.93266
H         71.05945        32.45063        -2.14832
O         57.47660        48.45434         2.58043
H         56.78850        49.03822         2.96659
O         68.63132        59.62013        -2.50239
H         67.73346        59.78396        -2.87613
O         64.69866        65.55019         2.34298
H         65.50097        65.88361         2.79555
O         62.24566        44.26882        -1.69845
H         62.13261        43.33513        -1.98362
O         70.07803        62.73144         1.59601
H         70.25027        63.61785         1.98060
O         61.56438        52.61857        -1.60705
H         62.21045        52.91155        -2.28352
O         69.41372        36.96021        -2.36331
H         68.60518        36.41258        -2.46256
O         47.56605        54.11166        -1.94126
H         46.73010        53.69390        -2.24251
O         65.12554        57.05313         1.56995
H         65.69055        56.25492         1.67388
O         59.88784        35.88541         0.67789
H         59.76937        36.14835        -0.25772
O         52.01749        58.83171         1.89990
H         51.13397        58.42637         2.03930
O         44.93172        53.16607         1.98147
H         44.11958        53.69721         2.18714
O         63.67580        48.03356        -1.52902
H         62.87863        47.64863        -1.95175
O         66.07776        39.39458         1.91875
H         66.88769        38.97103         2.27313
H         37.88855        48.94295        -1.96372
H         36.08954        50.23091        -3.02574
H         37.89593        53.96862        -1.86783
H         36.23188        52.73079        -3.16941
H         39.64546        48.10056        -1.85222
H         39.16977        54.86698        -0.70515
H         41.55208        46.86964        -0.98700
H         41.10858        56.12389        -0.00041
H         44.91905        44.67156         0.35238
H         42.80097        45.91253         0.32554
H         44.92633        58.19016        -0.87537
H         42.80104        56.98020        -0.60734
H         46.63018        43.82963        -0.26136
H         46.70256        59.05214        -1.42552
H         48.81180        42.68217        -0.33589
H         48.79388        60.27465        -1.25705
H         52.30559        40.24325         0.86619
H         50.23034        41.50077         0.97777
H         52.48529        62.49429        -0.68963
H         50.40611        61.27947        -0.94794
H         54.05524        39.33460         0.76267
H         54.13584        63.39408        -0.75993
H         56.16912        38.17543         1.05159
H         56.19160        64.64683        -0.55038
H         60.09329        36.75060         2.53599
H         57.82460        37.27047         1.27414
H         59.80940        66.91688         0.41835
H         57.73114        65.70763         0.07526
H         61.80337        35.21467         1.74248
H         61.44578        67.83835         1.02203
H         63.76710        33.95488         1.08461
H         63.56819        69.08426         0.75016
H         67.36100        31.76297         0.37018
H         65.25346        32.95375         0.25320
H         67.46379        71.02125         1.85793
H         65.31238        69.91429         1.67606
H         69.03587        30.83752         0.47259
H         69.03717        72.01509         1.53529
H         73.33551        31.03591         0.55884
H         71.20687        29.72041         0.64276
H         73.31692        33.41967        -0.06180
H         73.12454        35.20481        -1.17825
H         73.04277        37.59992        -1.54290
H         73.14046        39.47800        -1.04715
H         73.17141        41.89725        -0.94736
H         73.11563        43.81719        -1.15616
H         73.04852        46.21143        -1.33321
H         72.89782        48.09534        -1.78704
H         72.88549        50.51610        -1.80183
H         72.96508        52.39378        -1.55078
H         73.00366        54.82434        -1.46812
H         73.06111        56.72506        -1.07426
H         73.09873        59.15606        -1.02846
H         72.96977        61.16438        -1.44413
H         72.93803        63.60586        -1.25004
H         73.09287        65.42089        -0.64268
H         73.22233        67.77608        -0.11021
H         73.30439        69.63732         0.57075
H         73.28500        72.09682         0.84781
H         71.13560        73.27956         1.35026
