         314
 CSIRO Nanostructure Databank - Neutral Graphene Oxide Data Set
C         30.55866        57.13032         0.46690
C         30.49673        58.52433         0.54047
C         29.45288        59.23273         1.21641
C         30.69431        61.33720         1.84842
C         29.57026        60.49412         1.81603
C         32.87921        52.84168        -0.38860
C         32.84989        54.31653        -0.74957
C         31.70883        55.09118        -0.14905
C         33.05531        57.23760        -0.05805
C         31.74000        56.45336        -0.00019
C         32.83956        58.72843        -0.35557
C         31.60581        59.24474        -0.04008
C         33.12024        61.46826         1.09072
C         31.76972        61.19050         0.93252
C         35.28735        48.50286        -0.46612
C         35.24242        49.92920        -0.47748
C         34.06428        50.66153        -0.34578
C         35.29498        52.76255        -0.90548
C         34.02857        52.09548        -0.48132
C         35.33032        54.23478        -1.06993
C         34.20901        54.97901        -0.36823
C         35.23418        56.98418        -1.41535
C         34.19830        56.45114        -0.70933
C         35.02909        59.27704        -1.30453
C         33.93941        59.67628        -0.51853
C         35.42276        61.50598         0.25391
C         34.13256        60.91261         0.22361
C         37.74065        44.13403        -0.35486
C         37.23555        45.30753         0.06532
C         36.28493        46.25983        -0.59532
C         37.65242        48.38984         0.17280
C         36.44525        47.74222        -0.24121
C         37.75878        49.83548        -0.13345
C         36.54270        50.61984        -0.58803
C         37.72282        52.83402        -0.36057
C         36.57478        52.09365        -0.62120
C         37.82459        54.24280        -0.60115
C         36.66191        54.91571        -1.20668
C         37.89479        57.14184        -1.07847
C         36.63937        56.39131        -1.47813
C         38.06501        58.53015        -1.25318
C         36.26655        59.88149        -1.27932
C         37.88720        61.47138        -0.31303
C         36.54919        60.97928        -0.43052
C         40.27920        40.04338         0.93627
C         40.16497        41.35359         0.41918
C         38.90062        41.95231         0.37887
C         40.08717        44.13238         0.60669
C         38.71122        43.42463         0.58196
C         40.14220        45.59533         0.96850
C         38.90112        46.41597         1.07339
C         40.09329        48.52176         0.89615
C         38.84237        47.74547         0.66193
C         40.14075        49.97628         0.69946
C         38.86073        50.65916         0.46485
C         40.14944        52.88177         0.39380
C         38.86412        52.16176         0.30041
C         40.17882        54.31052         0.15622
C         39.00047        54.98420        -0.33123
C         40.25941        57.12352        -0.34247
C         39.02365        56.41815        -0.55853
C         40.31703        58.56250        -0.39935
C         39.14372        59.27967        -0.72137
C         40.30465        61.40936        -0.33082
C         39.07949        60.73517        -0.53060
C         43.09131        36.08519         1.80260
C         42.88465        37.34130         1.18839
C         41.70172        38.08245         1.40884
C         42.51209        39.92884        -0.02417
C         41.50004        39.35859         0.82881
C         42.50851        41.33517        -0.39622
C         41.35086        42.04585        -0.07319
C         42.41311        44.34653        -0.65990
C         41.21898        43.52048        -0.22085
C         42.36127        45.79536        -0.22351
C         41.35382        46.33102         0.53313
C         42.69443        48.52082         0.77096
C         41.40922        47.75595         0.91488
C         42.61947        50.02138         0.85849
C         41.30628        50.70590         0.81190
C         42.56065        52.85104         0.95481
C         41.29620        52.14632         0.67760
C         42.60281        54.34842         0.81397
C         41.39047        55.04118         0.31028
C         42.78421        57.10187        -0.13263
C         41.44157        56.41247         0.00742
C         42.75563        58.60214         0.01866
C         41.54567        59.28102        -0.17699
C         42.76098        61.42677        -0.17088
C         41.53977        60.72667        -0.22684
C         45.60456        33.32110         1.96474
C         44.43707        34.05436         2.16611
C         45.28776        35.83895         0.70337
C         44.26315        35.32570         1.55295
C         45.07220        37.06889        -0.08493
C         43.81257        37.81397         0.19145
C         45.22231        40.04734        -1.24421
C         43.46483        38.98665        -0.47679
C         45.08272        41.37216        -0.95011
C         43.72442        42.05649        -0.97542
C         45.07446        44.31479        -0.97358
C         43.72813        43.59450        -1.04061
C         45.16470        45.68036        -1.20457
C         43.35981        46.73722        -0.69877
C         44.97139        48.65850        -0.50280
C         43.71987        47.91596        -0.10959
C         45.03231        50.10606        -0.01884
C         43.82141        50.79633         0.48177
C         45.09674        52.85025         0.99529
C         43.83015        52.13335         0.73103
C         45.11380        54.33150         0.93332
C         43.93555        55.00183         0.73141
C         45.16307        57.23318         0.85948
C         43.88749        56.47811         0.69443
C         45.20927        58.64379         0.42093
C         43.98064        59.31337         0.14459
C         45.22870        61.43337        -0.02377
C         43.99238        60.74821        -0.01827
C         46.65120        33.85990         1.22043
C         47.68356        35.80651         0.12693
C         46.52453        35.14052         0.61345
C         47.66123        37.15972        -0.25853
C         46.36397        37.76548        -0.66600
C         47.72520        39.96282        -0.95185
C         46.44874        39.21381        -1.11828
C         47.60517        41.44018        -0.74495
C         46.35697        42.16601        -1.21983
C         47.53996        44.33152        -0.92003
C         46.34346        43.62733        -0.83386
C         47.56931        45.79420        -1.09473
C         46.30193        46.52215        -0.93236
C         47.51397        48.64676        -0.60225
C         46.27069        47.91001        -0.70199
C         47.48507        50.12953        -0.43307
C         46.31493        50.75178         0.19042
C         47.70803        52.79317         1.01699
C         46.38494        52.05344         0.86228
C         47.58916        54.30479         0.94590
C         46.40893        55.02492         1.00167
C         47.61091        57.20908         1.01022
C         46.43159        56.48654         0.99757
C         47.66006        58.64419         0.75201
C         46.42908        59.33161         0.42846
C         47.69670        61.41796         0.13096
C         46.45021        60.75076         0.16266
C         48.85092        37.90766        -0.14595
C         50.09976        40.03776        -0.25520
C         48.94275        39.30585        -0.40335
C         50.20316        41.44955        -0.78209
C         48.87632        42.19055        -0.62910
C         50.14759        44.39427        -0.78068
C         48.84993        43.63875        -0.98501
C         50.11133        45.85930        -0.61482
C         48.88212        46.58678        -0.97329
C         50.01917        48.72098        -0.42284
C         48.77192        48.01980        -0.64862
C         50.05110        50.12516        -0.35881
C         48.79849        50.89517        -0.38284
C         50.05302        52.93538         0.19667
C         48.84922        52.25639         0.18753
C         50.11948        54.33298         0.62294
C         48.88726        54.98379         1.12019
C         50.14954        57.22355         0.98831
C         48.88377        56.50712         1.21081
C         50.13646        58.70701         1.30034
C         48.86512        59.34673         0.77836
C         50.14417        61.41131         0.31309
C         48.90105        60.73939         0.41686
C         51.32024        42.26915        -0.18105
C         52.45200        44.41860         0.16752
C         51.32103        43.64853        -0.23763
C         52.47158        45.82328         0.09389
C         51.24678        46.54910        -0.23337
C         52.47434        48.68408        -0.09130
C         51.25373        47.99578        -0.24788
C         52.52699        50.11295        -0.20530
C         51.28103        50.84195        -0.28585
C         52.48260        53.00571        -0.41844
C         51.25885        52.25177        -0.20419
C         52.49131        54.47185        -0.11659
C         51.27294        55.07688         0.48839
C         52.59120        57.18340         0.99017
C         51.29345        56.50255         0.78555
C         52.61874        58.66224         1.03436
C         51.43717        59.42333         0.95337
C         52.56594        61.55102         0.12797
C         51.41012        60.80944         0.54426
C         53.65712        46.55166         0.31625
C         54.91076        48.66638         0.32887
C         53.70153        47.96110         0.18033
C         54.97760        50.07697         0.18061
C         53.75828        50.78658        -0.11091
C         55.06517        52.95489        -0.02483
C         53.82949        52.22578        -0.35916
C         55.08356        54.35298         0.06200
C         53.82328        55.13860         0.04995
C         55.13185        57.21711         0.55987
C         53.87713        56.46176         0.74507
C         55.13452        58.61961         0.72487
C         53.90904        59.24161         1.12832
C         55.12402        61.56886        -0.05514
C         53.88366        61.25728         0.51955
C         56.19879        50.78093         0.27030
C         57.49103        52.90413         0.31907
C         56.27133        52.20430         0.19228
C         57.53831        54.32213         0.29409
C         56.30399        55.05171         0.24879
C         57.55289        57.20310         0.33186
C         56.32612        56.49077         0.34886
C         57.54855        58.63526         0.32302
C         56.32993        59.37581         0.46857
C         57.55552        61.42522        -0.08758
C         56.32263        60.80001         0.17987
C         58.75825        55.04606         0.32179
C         60.00730        57.17634         0.20268
C         58.78979        56.46245         0.28261
C         60.02026        58.58692         0.09487
C         58.78797        59.31717         0.13637
C         60.02891        61.40575        -0.22336
C         58.79171        60.73356        -0.04080
C         61.23528        59.30660        -0.06637
C         61.22778        60.69231        -0.21993
O         49.70841        43.94561        -2.12664
O         48.97898        55.66497         2.41255
O         44.07253        46.30069        -1.80833
O         40.72408        48.06762         2.15037
O         44.12256        39.30746        -1.65845
O         37.21808        59.26725        -2.09910
O         53.08555        55.25465        -1.21361
O         34.96370        58.15364        -2.13875
O         45.51015        36.92897        -1.47723
O         45.68987        52.18467         2.17223
O         31.39983        60.60189        -0.30372
O         37.68209        45.78491         1.32719
O         48.32821        46.23045        -2.27556
O         53.20621        52.64515        -1.62027
O         53.33490        56.52378         2.10587
O         35.07749        53.40108        -2.24565
O         47.35133        39.44866        -2.26233
O         40.45893        44.52986         1.95694
O         41.31558        44.04374        -1.58052
O         43.04233        49.18687         2.01554
O         37.50820        50.06708        -1.56366
O         44.77468        49.71798        -1.48261
O         38.44157        51.52080         1.57236
O         44.18495        57.07732         1.98294
O         48.09584        41.86255         0.56864
O         53.99064        60.48555         1.71895
O         36.87161        55.44953        -2.56964
O         48.01111        50.83714        -1.63588
O         42.46142        53.70968         2.13690
O         43.52342        42.78263        -2.23562
O         50.47724        41.33013        -2.20860
H         50.36942        42.23218        -2.60007
O         43.19947        56.83984        -1.52086
H         42.52168        57.22579        -2.11586
O         50.04995        58.81227         2.76016
H         50.72798        58.21905         3.14894
O         38.15719        43.44016         1.91777
H         38.86405        43.76636         2.52562
O         33.48983        57.26351         1.36955
H         32.73642        57.60449         1.89936
O         36.44315        46.12616        -2.01142
H         35.97861        46.86809        -2.45071
O         46.45339        42.20594        -2.67101
H         45.57976        42.49664        -3.01972
O         34.44486        54.76254         1.04250
H         34.09625        55.55455         1.52330
O         32.64127        54.41033        -2.18155
H         33.39925        53.94390        -2.61689
O         48.17558        52.52874         2.37807
H         47.38181        52.59124         2.96153
H         29.69591        56.52362         0.78270
H         28.55108        58.65238         1.46695
H         30.75804        62.09497         2.64322
H         28.73439        60.78003         2.47497
H         31.92310        52.33675        -0.17532
H         30.75394        54.56418         0.01383
H         33.44926        62.08106         1.94310
H         34.34148        47.96237        -0.63351
H         33.11885        50.12875        -0.16180
H         35.56511        62.38853         0.89467
H         37.46882        43.70352        -1.32685
H         35.22785        45.95913        -0.31301
H         38.01254        62.48420         0.10282
H         39.41751        39.57420         1.43055
H         38.03593        41.32685         0.65148
H         40.29895        62.50609        -0.24064
H         42.32734        35.68803         2.48602
H         40.91978        37.66472         2.05824
H         42.75723        62.52281        -0.26517
H         45.71622        32.33168         2.42954
H         43.63114        33.65268         2.79623
H         45.23797        62.52414        -0.16618
H         47.59948        33.31342         1.11996
H         48.65984        35.32308         0.28439
H         47.72876        62.49118        -0.10873
H         49.75815        37.37869         0.18370
H         51.01162        39.54460         0.11538
H         50.13026        62.45969        -0.02188
H         52.22085        41.75040         0.18218
H         53.36342        43.88767         0.48024
H         52.40217        62.38049        -0.57594
H         54.58341        46.00761         0.55336
H         55.83287        48.10756         0.54732
H         55.19807        62.42121        -0.74677
H         57.12664        50.21447         0.43825
H         58.42680        52.33741         0.43426
H         57.56314        62.50077        -0.31998
H         59.70914        54.49301         0.33022
H         60.95805        56.62378         0.17570
H         60.03421        62.49597        -0.36445
H         62.18669        58.75578        -0.08021
H         62.17825        61.22833        -0.35163
