         344
 CSIRO Nanostructure Databank - Neutral Graphene Oxide Data Set
C          1.31278         1.97337         0.72307
C          1.27435         3.39667         0.71817
C          2.50611         1.29825         0.71604
C          2.43446         4.14888         0.70728
C          1.19604         6.33572         0.44184
C          1.16459         7.71960         0.48143
C          2.43390         5.60996         0.57847
C          2.35041         8.48761         0.42379
C          1.16892        10.65882         0.68556
C          1.16681        12.03483         0.65276
C          2.36440         9.91119         0.47469
C          2.36099        12.76961         0.41081
C          1.19174        14.98004         0.27438
C          1.22203        16.41477         0.34214
C          2.33964        14.22286         0.36552
C          2.40347        17.11869         0.28313
C          2.48625        18.55143         0.37013
C          3.74995         2.01153         0.74167
C          3.71739         3.46912         0.74879
C          4.96033         1.32264         0.76011
C          4.89577         4.18836         0.85254
C          3.62228         6.32159         0.57834
C          3.60007         7.73204         0.04898
C          4.90768         5.69047         1.04172
C          4.87888         8.50421         0.21116
C          3.58745        10.63753         0.26894
C          3.57123        12.04877         0.24057
C          4.83931         9.91040         0.11724
C          4.80459        12.80613        -0.19866
C          3.62319        14.97117         0.64384
C          3.66110        16.33815        -0.02764
C          4.89002        14.20930         0.33173
C          4.94188        17.05911         0.33120
C          3.68168        19.21571         0.37036
C          4.95648        18.52262         0.31036
C          6.20600         2.00806         0.84127
C          6.16050         3.47119         1.02985
C          7.43304         1.36569         0.77106
C          7.45784         4.25357         0.85161
C          6.16803         6.37342         0.51621
C          6.11421         7.80815         0.24351
C          7.36242         5.69225         0.51103
C          7.30772         8.53225        -0.02358
C          6.06142        10.63096        -0.06903
C          6.10244        12.05731        -0.04554
C          7.27080         9.91596        -0.24250
C          7.32877        12.74175        -0.03359
C          6.07278        14.88002         0.41956
C          6.07821        16.33320         0.55982
C          7.40296        14.16332         0.46454
C          7.37424        17.04469         0.86461
C          6.15370        19.18113         0.22979
C          7.42425        18.39397         0.05163
C          8.67144         2.08033         0.61654
C          8.67111         3.50757         0.50436
C          9.88265         1.37937         0.47908
C          9.84031         4.18219         0.05632
C          8.65961         6.38475         0.33939
C          8.62088         7.86441         0.04307
C          9.86295         5.63762        -0.07911
C          9.81361         8.48085        -0.53982
C          8.46489        10.66392        -0.68615
C          8.54098        12.09401        -0.37995
C          9.77371         9.90234        -0.90279
C          9.79537        12.78592        -0.42738
C          8.53867        14.98138        -0.19967
C          8.60956        16.29836         0.50877
C          9.84988        14.19784        -0.17248
C          9.89514        16.95248         0.88250
C          8.67748        19.12220         0.38112
C          9.87449        18.45271         0.54250
C         11.10246         2.06436         0.21315
C         11.03096         3.46650        -0.11374
C         12.34808         1.42724         0.32372
C         12.22210         4.12267        -0.69061
C         10.99036         6.31934        -0.48806
C         11.00121         7.76487        -0.62769
C         12.15505         5.58185        -1.11514
C         12.23209         8.46094        -0.94796
C         11.03761        10.64356        -0.85744
C         11.01902        12.06598        -0.67769
C         12.22586         9.88388        -0.94957
C         12.25403        12.77746        -0.57428
C         11.07779        14.83122         0.05089
C         11.13485        16.34488         0.20987
C         12.28938        14.10490        -0.14746
C         12.42539        16.96088         0.84711
C         11.12394        19.10514         0.42961
C         12.38860        18.47973         0.51075
C         13.60291         2.24281         0.39839
C         13.54514         3.45841        -0.50526
C         14.85430         1.45843         0.15415
C         14.79537         4.23336        -0.69694
C         13.47912         6.33304        -0.99971
C         13.45648         7.72375        -1.10000
C         14.73298         5.62190        -0.99431
C         14.70636         8.48483        -1.51402
C         13.49873        10.60771        -1.12807
C         13.51564        12.09031        -0.91859
C         14.77590         9.84732        -0.83507
C         14.82354        12.73961        -0.67083
C         13.60235        14.68778         0.32601
C         13.64881        16.19714         0.34913
C         14.86276        14.07252        -0.25810
C         14.88896        16.71328         0.58666
C         13.48901        19.28899         0.16536
C         14.84456        18.89647         0.35834
C         16.02078         2.10710        -0.23428
C         16.01461         3.52655        -0.58543
C         17.26481         1.41545        -0.25390
C         17.24559         4.16858        -0.89124
C         15.96190         6.33605        -1.21672
C         16.00227         7.72401        -1.35761
C         17.19912         5.55635        -1.36968
C         17.23050         8.45846        -1.41950
C         16.02057        10.62344        -1.20189
C         16.02371        12.04602        -1.01888
C         17.21831         9.91063        -1.39868
C         17.22640        12.79773        -1.18150
C         16.09441        14.77939        -0.31712
C         16.12800        16.17935         0.07493
C         17.24124        14.16181        -0.89289
C         17.25043        16.98628        -0.09505
C         16.01417        19.24088        -0.27902
C         17.23820        18.44658        -0.16481
C         18.47857         2.08512        -0.47651
C         18.47714         3.49450        -0.79636
C         19.71606         1.40441        -0.37021
C         19.73489         4.18344        -0.96920
C         18.52158         6.31781        -1.50701
C         18.48225         7.78660        -1.41041
C         19.76239         5.60301        -1.19009
C         19.70109         8.49723        -1.31753
C         18.46402        10.62152        -1.48840
C         18.44003        12.11212        -1.77800
C         19.66787         9.93167        -1.41863
C         19.71832        12.83712        -1.41650
C         18.37774        15.08253        -1.33172
C         18.54844        16.21805        -0.29011
C         19.73402        14.33388        -1.64541
C         19.74266        17.07308        -0.59675
C         18.43331        19.13221        -0.34227
C         19.70916        18.47996        -0.45796
C         20.93380         2.07877        -0.53599
C         20.94733         3.47440        -0.81959
C         22.17348         1.38227        -0.32527
C         22.23145         4.17502        -1.21457
C         20.96151         6.34256        -1.05354
C         20.94761         7.78547        -1.13111
C         22.19547         5.65093        -0.86152
C         22.16240         8.48037        -0.96934
C         20.93861        10.68302        -1.49131
C         20.91243        12.15614        -1.30634
C         22.22356         9.93230        -1.21982
C         22.17118        12.83109        -1.08616
C         20.96844        14.99737        -1.06221
C         20.97020        16.40193        -0.82315
C         22.17789        14.28094        -0.98422
C         22.19727        17.12658        -0.73311
C         20.91188        19.21155        -0.46546
C         22.17354        18.56065        -0.54062
C         23.38906         2.02884        -0.34090
C         23.56642         3.46007        -0.83267
C         24.57224         1.36006         0.07454
C         24.41491         4.22007         0.21034
C         23.36638         6.36520        -0.57830
C         23.36280         7.80128        -0.62755
C         24.56316         5.67806        -0.15916
C         24.57021         8.52104        -0.37903
C         23.39194        10.68850        -0.73895
C         23.34602        12.09585        -0.78047
C         24.57130         9.96276        -0.36351
C         24.53491        12.85533        -0.32879
C         23.39747        15.00152        -0.78635
C         23.41242        16.40027        -0.73751
C         24.70411        14.25422        -0.87334
C         24.70785        17.11613        -0.71062
C         23.36329        19.27316        -0.33370
C         24.67239        18.65351        -0.47273
C         25.75260         2.06307         0.34743
C         25.74948         3.51142         0.37840
C         26.95802         1.37033         0.64829
C         26.90823         4.20431         0.63640
C         25.72280         6.37481         0.07708
C         25.77525         7.81008        -0.08707
C         26.89679         5.71586         0.76553
C         26.99972         8.50781         0.06975
C         25.77191        10.64050        -0.05268
C         25.78033        12.10183         0.04796
C         27.01008         9.94205         0.05154
C         27.06178        12.81934         0.08377
C         25.89166        14.98073        -0.27475
C         25.91822        16.37988        -0.27817
C         27.07014        14.24669         0.05656
C         27.09291        17.08977         0.09736
C         25.87394        19.25524         0.08206
C         27.06788        18.53487         0.23975
C         28.14712         2.05567         0.86207
C         28.16210         3.50236         0.83263
C         29.37992         1.34695         1.08963
C         29.38081         4.17728         0.94952
C         28.22926         6.28402         0.24060
C         28.25822         7.79907         0.22090
C         29.42741         5.68840         1.00312
C         29.45810         8.45179         0.17818
C         28.23189        10.65815         0.14974
C         28.25654        12.08562         0.22156
C         29.53559         9.94276        -0.06076
C         29.48736        12.78383         0.49322
C         28.28141        14.94216         0.34337
C         28.28158        16.36742         0.40020
C         29.48533        14.20352         0.60551
C         29.47613        17.06206         0.78111
C         28.25251        19.19526         0.64753
C         29.44974        18.49086         0.89718
C         30.56684         2.01288         1.16427
C         30.61424         3.44688         1.02941
C         31.83192         4.11512         0.87799
C         30.73216         6.26339         0.51227
C         30.78373         7.71732         0.09014
C         31.86616         5.49796         0.53153
C         31.84997         8.46560         0.85748
C         30.67765        10.61342         0.66172
C         30.67121        12.03008         0.79434
C         31.77323         9.80814         1.09129
C         31.82713        12.75343         1.20867
C         30.67664        14.89730         0.97902
C         30.67346        16.34521         1.07136
C         31.83162        14.13165         1.27843
C         31.82396        17.07368         1.44587
C         30.63301        19.17767         1.28202
C         31.79749        18.46988         1.54383
O          8.90569        10.26201        -2.03461
O         13.51303        11.49055        -2.28022
O         12.81335         3.26663        -1.75937
O         24.83393        12.67511         1.07563
O          8.90663         7.35728         1.41463
O         24.90471        18.01905        -1.80889
O         14.98218        17.88985         1.33718
O         17.83148         5.76255        -2.68332
O          6.93516         3.94575         2.20371
O         21.80987        10.28154        -2.60170
O         25.00848        14.08079        -2.29311
H         24.98935        14.96432        -2.71886
O          7.36586        17.42533         2.27368
H          7.01243        16.66056         2.77678
O         10.00860        16.87252         2.32379
H          9.15789        17.22012         2.68794
O         18.83633        15.54472         0.97488
H         18.90305        16.22802         1.67444
O         29.33308         6.09239         2.41804
H         30.06562         5.64709         2.89463
O         11.86578         5.58444        -2.54859
H         12.28345         4.76810        -2.91185
O         19.95386        14.44418        -3.09772
H         19.54429        13.64323        -3.51111
O          3.68698        16.12697        -1.46548
H          3.69594        17.00562        -1.89856
O         29.84665        10.09668        -1.52503
H         29.03202         9.85352        -2.01683
O          4.63055        12.96646        -1.65157
H          5.35394        13.54300        -1.97957
O          3.50210         7.56006        -1.43321
H          2.61801         7.17273        -1.61464
O         18.31049        12.23931        -3.24672
H         17.45532        11.83016        -3.50354
O         11.09269        16.82890        -1.16429
H         11.74579        16.32132        -1.69044
O         28.34194         5.84455        -1.13262
H         29.20298         6.16380        -1.48242
O         14.56037         8.74632        -2.93646
H         14.42723         7.88980        -3.39379
O          4.96385         5.90118         2.49787
H          5.72378         5.35433         2.81873
O          3.63515        15.21836         2.08528
H          3.40265        14.38031         2.53676
O         13.63351        14.31077         1.75653
H         13.03997        14.94994         2.22713
O          8.17169        15.20314        -1.59021
H          7.99508        16.17009        -1.71109
O         22.17170         4.15344        -2.68713
H         21.35299         4.62328        -2.95741
O         31.16362         7.71843        -1.32543
H         31.00768         8.64250        -1.65041
O          7.47793        17.94080        -1.34920
H          7.72431        18.70900        -1.90624
O          7.77138        14.08517         1.87686
H          7.17488        13.44112         2.31310
O         13.68661         2.79895         1.77222
H         13.74710         2.04340         2.39421
O         14.82070         9.60998         0.59851
H         14.98921        10.46367         1.05031
O         12.43810        16.79108         2.28355
H         13.23749        17.26296         2.60619
O         23.70895         4.16695         1.47652
H         24.24510         4.65978         2.13417
O         24.41599         3.39118        -1.99343
H         23.83697         3.38276        -2.78875
O         17.90333        15.70864        -2.53428
H         18.56973        15.50429        -3.23989
O         26.70176         6.03765         2.16799
H         27.58445         6.01278         2.61397
H          0.36433         1.41808         0.72221
H          0.28987         3.88327         0.71384
H          2.52739         0.19895         0.71206
H          0.24354         5.78985         0.44382
H          0.18703         8.21653         0.55568
H          0.22299        10.13364         0.87359
H          0.22343        12.57281         0.82001
H          0.21041        14.49520         0.16696
H          0.26757        16.95351         0.44583
H          1.54825        19.12189         0.45601
H          4.95924         0.22344         0.71148
H          3.69679        20.31408         0.42978
H          7.45993         0.26733         0.71024
H          6.18996        20.28169         0.21950
H          9.89857         0.28998         0.62936
H          8.65566        20.22332         0.42999
H         12.38699         0.36221         0.60027
H         11.10715        20.15953         0.10584
H         14.88598         0.39046         0.41960
H         13.27945        20.27304        -0.28382
H         17.28006         0.34221        -0.01248
H         16.04448        20.12212        -0.93663
H         19.72074         0.33133        -0.12853
H         18.40984        20.22950        -0.41602
H         22.12752         0.32601        -0.01658
H         20.87915        20.30459        -0.34803
H         24.54958         0.26795         0.21669
H         23.31282        20.31538         0.01464
H         26.95430         0.26971         0.65625
H         25.83245        20.30340         0.41321
H         29.34892         0.24977         1.16126
H         28.24101        20.28937         0.76030
H         31.51176         1.46413         1.28907
H         32.77062         3.54411         0.90457
H         32.82944         5.93841         0.23508
H         32.73990         7.91170         1.19076
H         32.60254        10.28750         1.63315
H         32.75388        12.21396         1.44595
H         32.76066        14.63516         1.57746
H         32.76374        16.55138         1.66812
H         30.61483        20.27332         1.36949
H         32.71055        19.00661         1.83749
