         244
 CSIRO Nanostructure Databank - Neutral Graphene Oxide Data Set
C          1.29328         2.07890         1.14784
C          1.30807         3.37768         1.54382
C          2.49092         1.40224         0.73560
C          2.55984         4.16716         1.56571
C          1.20790         6.40219         1.26875
C          1.10808         7.68330         0.86941
C          2.49693         5.66795         1.33413
C          2.27372         8.42036         0.32253
C          1.19134        10.56425        -0.29970
C          1.18464        11.97955        -0.46629
C          2.27769         9.91233         0.21104
C          2.33387        12.73641        -0.25115
C          1.31808        14.83012        -1.37049
C          1.47014        16.09542        -1.83944
C          2.30276        14.21208        -0.46047
C          2.66402        16.87474        -1.59593
C          2.83099        18.16990        -2.14903
C          3.71506         2.03193         0.74912
C          3.88338         3.41399         1.35359
C          4.91695         1.35607         0.37873
C          4.96081         4.20284         0.61539
C          3.70071         6.33850         0.80532
C          3.59391         7.74375         0.36797
C          4.89076         5.66061         0.52836
C          4.83100         8.54866         0.33474
C          3.51043        10.67377         0.64951
C          3.54222        12.10552         0.16640
C          4.80996         9.93518         0.37097
C          4.77760        12.80829         0.24104
C          3.57704        14.98668        -0.20323
C          3.73430        16.30305        -0.86683
C          4.81157        14.23015         0.11724
C          4.94061        17.00186        -0.73058
C          4.00890        18.87581        -1.97669
C          5.09761        18.31180        -1.25544
C          6.10494         2.05661         0.18983
C          6.05147         3.52134         0.13640
C          7.35213         1.37563         0.04460
C          7.20443         4.22406        -0.47875
C          6.04239         6.40534         0.13040
C          6.05976         7.82346         0.20738
C          7.20951         5.75228        -0.56272
C          7.27881         8.54530         0.13981
C          6.03546        10.66817         0.29312
C          6.03039        12.09521         0.33997
C          7.27330         9.95028         0.16737
C          7.27019        12.81489         0.32155
C          6.02577        14.92173         0.21107
C          6.01290        16.40688         0.08999
C          7.25508        14.22656         0.29101
C          7.26220        17.19350         0.34076
C          6.33312        19.01141        -1.08234
C          7.42072        18.48091        -0.38019
C          8.55088         2.04737        -0.15782
C          8.51531         3.48409        -0.52195
C          9.81310         1.39718        -0.16723
C          9.77794         4.24626        -0.49036
C          8.53767         6.37444        -0.21030
C          8.57403         7.79104         0.29957
C          9.74659         5.67468        -0.38391
C          9.75277         8.57567        -0.21534
C          8.52071        10.68107         0.11065
C          8.52163        12.07502         0.23601
C          9.75953         9.96541        -0.13584
C          9.77927        12.77596         0.21045
C          8.52367        15.03400         0.05503
C          8.47043        16.38946         0.85623
C          9.75487        14.23781         0.46425
C          9.84309        17.19960         0.86352
C          8.67090        19.13789        -0.35804
C          9.83999        18.56071         0.17422
C         11.00939         2.09945        -0.31643
C         11.00552         3.56287        -0.40280
C         12.25389         1.40963        -0.38927
C         12.22639         4.27966        -0.37367
C         10.99495         6.38179        -0.43172
C         10.94554         7.83846        -0.60272
C         12.23156         5.70192        -0.46615
C         12.29172         8.60822        -0.59673
C         11.00860        10.70305        -0.22147
C         10.97985        12.12660        -0.02827
C         12.24257        10.03310        -0.29688
C         12.25916        12.91632        -0.24613
C         11.03845        14.95884         0.66305
C         11.03099        16.41140         0.22977
C         12.33894        14.15380         0.68806
C         12.32656        17.12864         0.48749
C         11.07016        19.21607         0.06708
C         12.34021        18.55828         0.27905
C         13.47029         2.07928        -0.37008
C         13.49088         3.54676        -0.00519
C         14.69632         1.40248        -0.56807
C         14.75499         4.24297        -0.40636
C         13.48403         6.44660        -0.44327
C         13.51934         7.82771        -0.36712
C         14.80884         5.73586        -0.60866
C         14.74979         8.55950        -0.08656
C         13.49984        10.71344        -0.08804
C         13.52447        12.11183        -0.04236
C         14.71969         9.95560         0.01637
C         14.77911        12.81552        -0.00896
C         13.54521        14.99482         0.36185
C         13.52381        16.38033         0.47390
C         14.77604        14.31723        -0.19238
C         14.80160        17.16029         0.66436
C         13.54345        19.22646         0.05265
C         14.82377        18.45834        -0.13434
C         15.92188         2.07872        -0.54367
C         15.93759         3.53209        -0.42976
C         17.15085         1.39838        -0.77310
C         17.21083         4.21739        -0.31305
C         15.91445         6.33943         0.26990
C         15.98311         7.84670         0.13843
C         17.23766         5.64331         0.00464
C         17.19830         8.52530         0.28470
C         15.95785        10.68554         0.49105
C         15.96875        12.13430         0.08520
C         17.24772         9.94620         0.23157
C         17.26083        12.85475        -0.18622
C         16.03631        14.99626         0.28347
C         16.05805        16.35444         0.44122
C         17.28834        14.20021         0.53592
C         17.30290        17.08334         0.45232
C         16.07371        19.21964         0.21227
C         17.26648        18.54329         0.44130
C         18.36498         2.07231        -0.71956
C         18.38104         3.47022        -0.36241
C         19.60650         1.42886        -1.11173
C         19.66408         4.08336         0.01435
C         18.41629         6.30755         0.19373
C         18.46315         7.76124         0.62452
C         19.69035         5.55746         0.27561
C         19.73360         8.48331         0.18913
C         18.48150        10.64744         0.18428
C         18.52075        12.06624         0.10617
C         19.73132         9.90404         0.13725
C         19.73755        12.78438         0.12975
C         18.55541        14.97115         0.24575
C         18.51319        16.38799         0.27410
C         19.76415        14.23971         0.15039
C         19.75091        17.16628         0.08635
C         18.50481        19.24748         0.59924
C         19.73845        18.59364         0.47601
C         20.80386         2.06401        -1.06943
C         20.94435         3.36856        -0.39156
C         22.12755         4.21292        -0.63860
C         20.99825         6.30123         0.13893
C         20.94182         7.78594        -0.00125
C         22.15215         5.53985        -0.39343
C         22.13208         8.50487        -0.23719
C         20.95567        10.61487         0.00741
C         20.97851        12.06499         0.10513
C         22.14564         9.88692        -0.20319
C         22.18371        12.77468         0.15995
C         21.02754        14.91882         0.16684
C         21.07951        16.40436         0.09489
C         22.20497        14.17523         0.19816
C         22.24624        17.16030         0.55613
C         20.97123        19.24959         0.66071
C         22.18300        18.52554         0.73143
O         11.59467         8.27032        -1.84183
O          7.67564         3.65683        -1.74780
O         20.49281         5.88971         1.46564
O         10.21729        14.63501         1.81717
O          2.51031        14.94982         0.80247
O          6.18542        17.19743         1.34274
O          2.67986         5.08507         2.70293
O         20.44243         3.32781         0.98778
O          2.79884         7.81920        -0.92171
O         20.47679        16.90881        -1.15397
O         18.50321         7.71679         2.09226
H         19.29482         7.16686         2.31978
O         10.90697        16.39528        -1.23000
H         11.03603        17.31457        -1.55084
O         15.83695        10.70238         1.96950
H         16.01894         9.79159         2.28648
O         15.55087         6.03014         1.64794
H         16.27054         6.36796         2.22559
O         15.23314         5.97142        -1.98491
H         14.48247         5.75572        -2.57698
O         17.31623        13.89333         1.96379
H         17.28146        14.73906         2.45764
O         17.29942        13.16200        -1.60916
H         17.15118        12.33388        -2.11076
O          4.42780         3.16764         2.68433
H          4.16472         3.94047         3.23658
O         14.89943        18.05482        -1.55394
H         15.08242        18.85929        -2.08375
O         13.53267         3.58655         1.47848
H         14.01741         4.40441         1.73939
O          8.77778         7.66029         1.76627
H          8.73918         8.56429         2.14667
O          3.44956        10.74927         2.12846
H          2.79474        11.44286         2.35896
O         14.82097        17.54491         2.06669
H         14.56167        16.76623         2.60232
O         12.54675        13.65466         2.03111
H         11.68777        13.77005         2.50747
O          8.51156        15.29473        -1.36120
H          9.41821        15.58826        -1.63581
O         10.20517        17.45164         2.22496
H          9.64313        16.84683         2.77362
O         14.70970        14.55575        -1.65297
H         14.84950        15.51789        -1.80546
O         12.20621        13.36846        -1.62135
H         13.08105        13.77695        -1.85174
O          8.18446        16.01974         2.21327
H          7.28730        16.38448         2.42750
O          7.02314         6.11003        -1.97708
H          7.37371         5.34711        -2.49879
H          0.34567         1.52213         1.13693
H          0.37772         3.86823         1.86104
H          2.41921         0.36021         0.39162
H          0.32157         5.89815         1.68004
H          0.14023         8.20375         0.92704
H          0.29005         9.99674        -0.57470
H          0.25343        12.46342        -0.78795
H          0.44273        14.24285        -1.68346
H          0.69827        16.52959        -2.49262
H          2.00165        18.61764        -2.71584
H          4.89725         0.26512         0.23382
H          4.11153        19.88651        -2.39746
H          7.36676         0.28463         0.18884
H          6.44902        19.99258        -1.56763
H          9.84696         0.30600        -0.02789
H          8.75511        20.11253        -0.86453
H         12.24205         0.31202        -0.47624
H         11.08688        20.24729        -0.32042
H         14.68034         0.32268        -0.78125
H         13.52468        20.29886        -0.19877
H         17.13279         0.31973        -0.98921
H         16.06913        20.32046         0.18311
H         19.53777         0.41954        -1.54469
H         18.48400        20.33582         0.76105
H         21.70500         1.58763        -1.48388
H         23.00458         3.73515        -1.10236
H         23.06005         6.09718        -0.66442
H         23.07846         7.97254        -0.39647
H         23.10120        10.40691        -0.34706
H         23.14484        12.24444         0.16072
H         23.17794        14.68523         0.21570
H         23.17793        16.62821         0.79478
H         20.97724        20.32819         0.87377
H         23.09671        19.06747         1.01622
