         244
 CSIRO Nanostructure Databank - Neutral Graphene Oxide Data Set
C          1.24402         2.01107         0.17897
C          1.21449         3.44198         0.17024
C          2.43086         1.32476         0.17611
C          2.36481         4.19450         0.26481
C          1.15519         6.37705         0.21925
C          1.14242         7.75572         0.09529
C          2.36339         5.64371         0.18259
C          2.34035         8.47608        -0.13442
C          1.14252        10.68471        -0.42209
C          1.10108        12.05279        -0.42279
C          2.34550         9.92331        -0.23319
C          2.28388        12.85920        -0.07762
C          1.12772        15.11660         0.04636
C          1.19305        16.45607         0.22331
C          2.32378        14.34816        -0.46027
C          2.43909        17.18110         0.08819
C          2.46416        18.57825        -0.05426
C          3.68265         2.02783         0.21689
C          3.66690         3.49521         0.58740
C          4.87908         1.37149         0.05508
C          4.89706         4.24000         0.12865
C          3.59097         6.35722         0.00907
C          3.56167         7.75209        -0.19349
C          4.85813         5.63379        -0.02249
C          4.80767         8.48110        -0.63002
C          3.58836        10.61039        -0.14914
C          3.57084        12.08082         0.02163
C          4.81453         9.93319        -0.21349
C          4.85868        12.78396        -0.23072
C          3.62191        15.04841        -0.08534
C          3.67419        16.44886         0.07082
C          4.86708        14.30668        -0.21673
C          4.93653        17.17245         0.12045
C          3.66628        19.24491        -0.25068
C          4.92819        18.59661        -0.13351
C          6.13187         2.07669        -0.01518
C          6.11272         3.52483        -0.02820
C          7.33543         1.38255        -0.11109
C          7.32581         4.24047        -0.24334
C          6.09344         6.36486        -0.19415
C          6.08375         7.75729        -0.31983
C          7.32968         5.62362        -0.25748
C          7.36623         8.52775        -0.53153
C          6.06099        10.63032        -0.00005
C          6.06870        12.03330         0.08393
C          7.31495         9.93521         0.00698
C          7.28761        12.75651         0.54653
C          6.13666        14.97611         0.12343
C          6.14308        16.41087         0.26321
C          7.29987        14.22962         0.25120
C          7.38674        16.99295         0.61496
C          6.08174        19.39993        -0.44979
C          7.37670        19.16494         0.02725
C          8.59010         2.04521        -0.24417
C          8.60227         3.51427        -0.59041
C          9.79282         1.36946        -0.18635
C          9.84882         4.22628        -0.10964
C          8.62715         6.35213        -0.52793
C          8.54202         7.75397         0.07838
C          9.85513         5.61217        -0.05125
C          9.85314         8.50508         0.08210
C          8.55266        10.62310         0.14856
C          8.56901        12.03439         0.25340
C          9.82033         9.91159         0.15254
C          9.78875        12.75394         0.17839
C          8.56903        14.88791         0.24786
C          8.59913        16.30519         0.45415
C          9.76912        14.18622         0.10184
C          9.86633        16.96313         0.53667
C          8.60694        19.65915        -0.45762
C          9.86175        19.14152        -0.02833
C         11.05524         2.06707        -0.17708
C         11.06442         3.49105         0.00069
C         12.26960         1.39091        -0.33388
C         12.29981         4.18252         0.16415
C         11.07146         6.33782         0.16916
C         11.06478         7.79205         0.21317
C         12.28328         5.62302         0.27786
C         12.28773         8.51494         0.46440
C         11.04624        10.63978         0.34924
C         11.02976        12.07233         0.27383
C         12.25272         9.93797         0.57903
C         12.25327        12.84256         0.29090
C         11.00007        14.92581        -0.34366
C         11.04946        16.38310         0.09818
C         12.25998        14.18344         0.00693
C         12.26971        17.13080        -0.04185
C         11.11726        19.36300        -0.57864
C         12.28958        18.56555        -0.26797
C         13.51081         2.06650        -0.25866
C         13.51778         3.44197         0.08339
C         14.72602         1.33672        -0.68366
C         14.79428         4.23408         0.01322
C         13.51781         6.37059         0.43088
C         13.50437         7.78772         0.58040
C         14.73031         5.66555         0.43915
C         14.79310         8.44034         1.02514
C         13.47670        10.69938         0.97535
C         13.48109        12.23408         0.93159
C         14.78333         9.96959         1.05680
C         14.79385        12.84756         0.46213
C         13.53813        14.91129        -0.29446
C         13.51546        16.41440        -0.02784
C         14.78439        14.17620         0.14693
C         14.72541        17.10283        -0.00101
C         13.53597        19.20512        -0.38315
C         14.75496        18.52627        -0.16159
C         15.93435         1.53247        -0.08494
C         16.01363         3.59282         0.62951
C         17.29981         1.20801        -0.45618
C         17.24037         4.14450         0.46799
C         16.02309         6.35557         0.31721
C         16.04539         7.85443         0.40181
C         17.28611         5.62487         0.73459
C         17.30066         8.54925         0.67863
C         16.06333        10.70352         0.80740
C         16.05453        12.09798         0.58098
C         17.30056         9.97117         0.74577
C         17.30107        12.77835         0.43322
C         16.03890        14.93803        -0.03120
C         15.99032        16.38658         0.40667
C         17.33470        14.22247         0.14412
C         17.28240        17.11916         0.13663
C         15.99622        19.21276        -0.18664
C         17.23957        18.55536        -0.05261
C         18.41944         1.94880        -0.13213
C         18.51035         3.32479         0.57437
C         19.69589         1.33793        -0.46160
C         19.70113         4.15030         0.06957
C         18.53542         6.33557         0.34826
C         18.59998         7.77799         0.79217
C         19.69906         5.59274         0.04707
C         19.69267         8.53028         0.07634
C         18.53542        10.69538         0.63987
C         18.52642        12.09192         0.55814
C         19.87231         9.98140         0.50830
C         19.84226        12.83901         0.68661
C         18.57588        15.00457         0.37942
C         18.48807        16.45087         0.28425
C         19.78218        14.33400         0.41516
C         19.72941        17.24072         0.40467
C         18.44637        19.28226        -0.16519
C         19.70004        18.66328         0.01713
C         20.86446         2.02649        -0.44310
C         20.87977         3.46957        -0.28211
C         22.06324         4.18022        -0.58286
C         20.90822         6.29606        -0.31526
C         20.87202         7.77723        -0.45617
C         22.07217         5.57465        -0.58929
C         22.10145         8.58692        -0.65413
C         20.79576        10.72799        -0.48998
C         20.98883        12.16410        -0.04703
C         22.07658         9.93075        -0.65711
C         22.11082        12.88433        -0.30295
C         21.05449        15.02422         0.27985
C         21.08567        16.50796         0.39149
C         22.17877        14.29828        -0.03385
C         22.22996        17.29383        -0.06867
C         20.90995        19.35123        -0.14794
C         22.14239        18.65861        -0.21712
O         20.47798        16.98829         1.63711
O          7.42316        18.28472         1.13461
O         16.03982         7.19022        -0.91644
O          9.86904        18.25269         1.07680
O         15.89510         2.28878         1.10999
O          4.94019        13.53171        -1.49681
O         14.04710        10.32476         2.29529
O         19.74580         8.24091        -1.34148
O         16.80006        14.59507        -1.21340
O          2.86873        12.55869         1.22794
O         15.10823         4.27744        -1.44042
H         15.45566         5.17235        -1.65514
O          3.74857         3.51713         2.06330
H          2.96503         3.03233         2.40008
O         15.90190        16.29353         1.87344
H         15.87395        17.20581         2.23219
O         20.13273        10.82678        -1.77107
H         19.92556         9.90311        -2.06063
O          2.23334        14.34525        -1.92071
H          2.37199        15.26382        -2.23329
O         17.26571         5.67610         2.22862
H         17.87523         4.95912         2.52922
O         13.34903        12.70677         2.30735
H         13.81978        12.05495         2.87892
O         14.98033         8.00851         2.41550
H         14.41381         8.59778         2.96703
O          8.68053         3.59307        -2.07103
H          9.45700         3.05836        -2.34591
O         13.63620        14.85884        -1.76665
H         12.74854        15.12384        -2.11782
O         20.55383         9.97200         1.77876
H         20.03169         9.39944         2.38835
O         18.75546         3.06623         1.99601
H         18.02873         2.47884         2.29976
O          7.18592        12.71586         2.04476
H          7.27338        11.77592         2.31555
O          8.18951         7.58006         1.47992
H          8.93884         7.13582         1.92992
O          7.52765         8.71034        -1.97478
H          7.93837         7.88129        -2.33606
O          4.76309         8.50315        -2.11355
H          5.67081         8.77567        -2.40607
O          8.79005         6.41644        -1.98063
H          8.74884         5.47669        -2.30109
O         20.16070        12.74620         2.11732
H         21.05507        13.12737         2.24591
O         10.90943        14.98761        -1.83185
H         10.68598        14.08443        -2.14538
O         18.95155         7.77667         2.22249
H         18.28057         7.18633         2.65516
H          0.29226         1.46559         0.11482
H          0.23933         3.92794         0.02573
H          2.44152         0.22904         0.07891
H          0.20274         5.85404         0.38058
H          0.18584         8.28994         0.17426
H          0.21493        10.14012        -0.65192
H          0.17302        12.56696        -0.71232
H          0.16597        14.59196         0.14258
H          0.28792        17.02868         0.47755
H          1.51714        19.13677        -0.07006
H          4.88699         0.27860        -0.08129
H          3.65392        20.32712        -0.44508
H          7.32801         0.28436        -0.03210
H          5.90736        20.28220        -1.08548
H          9.79921         0.27407        -0.07676
H          8.59581        20.35492        -1.30870
H         12.25769         0.31263        -0.55085
H         11.25927        20.21135        -1.26579
H         14.63744         0.67906        -1.56131
H         13.56297        20.28372        -0.59821
H         17.46370         0.28204        -1.03414
H         15.99188        20.30147        -0.34779
H         19.69591         0.27022        -0.73042
H         18.40549        20.35781        -0.39439
H         21.81150         1.51915        -0.67832
H         22.97445         3.62346        -0.84294
H         23.00081         6.09844        -0.85367
H         23.06007         8.06602        -0.79554
H         23.02109        10.46917        -0.82648
H         22.98823        12.42238        -0.77759
H         23.14223        14.80270        -0.19000
H         23.16918        16.78441        -0.32610
H         20.88891        20.43001        -0.35934
H         23.04294        19.22425        -0.49708
