         424
 CSIRO Nanostructure Databank - Neutral Graphene Oxide Data Set
C          1.30086         2.12567         0.91459
C          1.24225         3.49260         0.62067
C          2.47959         1.42155         0.73185
C          2.36893         4.17227         0.10509
C          1.13673         6.34217        -0.06655
C          1.12561         7.74858        -0.08123
C          2.32701         5.62398        -0.12060
C          2.30256         8.49101        -0.13987
C          1.09181        10.68265         0.14657
C          1.09662        12.07515         0.18049
C          2.28890         9.95539        -0.03031
C          2.28814        12.80331         0.06555
C          1.08434        14.99849        -0.44338
C          1.13993        16.29216        -0.84192
C          2.28812        14.31694         0.16210
C          2.39016        17.02203        -0.87451
C          2.44298        18.40710        -1.12549
C          3.64215         2.07281         0.22142
C          3.56980         3.46577        -0.10051
C          4.84843         1.34686         0.13324
C          4.71350         4.18205        -0.79664
C          3.55831         6.34703        -0.28287
C          3.54978         7.78383        -0.28439
C          4.78079         5.64795        -0.42350
C          4.76848         8.48278        -0.45246
C          3.49865        10.67587        -0.09608
C          3.51248        12.09722        -0.02758
C          4.73989         9.96169        -0.48310
C          4.77413        12.82237        -0.03716
C          3.57610        14.94499        -0.32407
C          3.60243        16.28429        -0.67812
C          4.80593        14.19733        -0.20317
C          4.91030        16.94525        -1.05087
C          3.65034        19.11271        -1.10004
C          4.88795        18.45423        -0.92435
C          6.09355         1.93817        -0.32468
C          6.06233         3.45178        -0.72915
C          7.37529         1.36177         0.04196
C          7.31053         4.19535        -0.52728
C          6.00284         6.34553        -0.43155
C          6.00530         7.78469        -0.45247
C          7.26023         5.63494        -0.44612
C          7.25808         8.48530        -0.38446
C          6.02809        10.71572        -0.50008
C          6.02627        12.03075         0.26509
C          7.34198         9.96455        -0.70082
C          7.31781        12.80040         0.10713
C          6.05299        14.95803        -0.12099
C          6.08113        16.29481        -0.36486
C          7.26718        14.27034         0.45263
C          7.23495        17.13456         0.12932
C          6.10259        19.14273        -0.85636
C          7.32443        18.49786        -0.52586
C          8.56459         2.05828        -0.17820
C          8.53485         3.49823        -0.39962
C          9.82219         1.40502        -0.06409
C          9.77927         4.20451        -0.40890
C          8.45521         6.36380        -0.36205
C          8.45133         7.78475        -0.25689
C          9.72897         5.65935        -0.58015
C          9.68410         8.48989         0.26903
C          8.53981        10.67222        -0.11182
C          8.49595        12.12762        -0.01321
C          9.70748         9.98702         0.09589
C          9.81418        12.83337        -0.18874
C          8.55499        15.01397         0.17523
C          8.53925        16.38409         0.09944
C          9.79603        14.29167         0.17320
C          9.78551        17.19219         0.33573
C          8.55334        19.12886        -0.70022
C          9.80620        18.52052        -0.38702
C         11.04354         2.09849        -0.14924
C         11.02194         3.54525        -0.29470
C         12.27268         1.41216        -0.05938
C         12.25831         4.27009        -0.23057
C         11.04336         6.44190        -0.43519
C         11.00859         7.84374        -0.02966
C         12.26884         5.67911        -0.20975
C         12.18432         8.50535         0.33823
C         10.96353        10.66772         0.41038
C         10.98905        12.08554         0.39513
C         12.14893         9.91743         0.60077
C         12.22857        12.79062         0.50901
C         11.01900        14.97670         0.21877
C         11.05261        16.40535         0.16740
C         12.26132        14.24839         0.32966
C         12.25857        17.07973         0.00171
C         11.02214        19.14471        -0.61090
C         12.27901        18.49119        -0.34247
C         13.52173         2.09217         0.02550
C         13.51294         3.55295        -0.02820
C         14.71969         1.40124         0.17527
C         14.71241         4.24954         0.03748
C         13.47010         6.42547         0.01430
C         13.45101         7.78890         0.29771
C         14.74414         5.71309        -0.33713
C         14.70392         8.48546         0.58355
C         13.39301        10.62508         1.06549
C         13.40805        12.08214         0.69296
C         14.70313         9.89565         0.81286
C         14.69115        12.78722         0.50921
C         13.45343        14.95401         0.39438
C         13.49725        16.36451         0.13856
C         14.71496        14.25888         0.83736
C         14.72854        17.03714         0.01984
C         13.50457        19.12328        -0.52063
C         14.75102        18.43170        -0.34550
C         15.99141         2.10924         0.54378
C         15.96763         3.56648         0.14779
C         17.25181         1.39035         0.14073
C         17.15245         4.27091        -0.00950
C         15.98502         6.41846         0.11797
C         15.92665         7.78565         0.50028
C         17.18842         5.71617         0.08876
C         17.16767         8.40538         0.98399
C         15.90876        10.59196         0.93049
C         15.97053        12.02740         0.61641
C         17.15134         9.90743         1.28017
C         17.24910        12.75228         0.74698
C         15.97211        14.94569         0.39540
C         15.97325        16.30259         0.14351
C         17.27203        14.18601         0.25400
C         17.23677        17.01020        -0.02276
C         15.98013        19.06359        -0.57550
C         17.22532        18.38165        -0.40500
C         18.42556         2.06195        -0.14756
C         18.39145         3.53613        -0.30485
C         19.68746         1.41260        -0.28368
C         19.69617         4.30787        -0.29138
C         18.45121         6.41064         0.28013
C         18.45971         7.76594         0.69127
C         19.67979         5.72711         0.10509
C         19.67941         8.50257         0.78251
C         18.46371        10.67457         1.48309
C         18.42117        12.09714         0.96952
C         19.70670         9.92318         1.01673
C         19.69238        12.82298         0.91772
C         18.40004        14.98082         0.90523
C         18.45736        16.37282         0.29523
C         19.69077        14.19950         0.84441
C         19.66915        17.07366         0.18934
C         18.46788        19.04709        -0.56839
C         19.67496        18.40674        -0.29280
C         20.92029         2.11827        -0.27277
C         20.94364         3.54882        -0.16918
C         22.16401         1.42848        -0.26784
C         22.15112         4.25876        -0.01753
C         20.90489         6.40183         0.29548
C         20.90844         7.80871         0.56154
C         22.14268         5.68281         0.17019
C         22.14968         8.51093         0.63269
C         20.91818        10.62674         0.99382
C         20.94188        12.08925         1.01844
C         22.16687         9.91719         0.85263
C         22.15522        12.78013         1.01547
C         20.93998        14.94792         0.96389
C         20.93425        16.44086         0.64151
C         22.20851        14.20896         0.90941
C         22.21751        17.05185         0.27607
C         20.96357        19.18261        -0.44936
C         22.23336        18.39208        -0.20478
C         23.39156         2.11419        -0.19287
C         23.39629         3.55253        -0.07767
C         24.63622         1.42485        -0.22336
C         24.61179         4.26611        -0.05756
C         23.37117         6.38469         0.26981
C         23.37881         7.79913         0.49028
C         24.60430         5.69244         0.09238
C         24.61564         8.48474         0.61830
C         23.41400        10.59524         0.94314
C         23.43311        12.04880         1.33833
C         24.62548         9.90080         0.83075
C         24.67711        12.77627         0.88999
C         23.41749        14.90854         0.74849
C         23.42384        16.32353         0.44012
C         24.67114        14.17194         0.73780
C         24.66888        16.98587         0.19738
C         23.44424        19.03674        -0.39696
C         24.68180        18.36792        -0.17401
C         25.85855         2.11330        -0.20264
C         25.86064         3.55439        -0.13910
C         27.11210         1.43128        -0.29717
C         27.07376         4.25521        -0.19020
C         25.82702         6.41780         0.14909
C         25.84051         7.76548         0.48458
C         27.07357         5.75158        -0.35934
C         27.12213         8.42344         0.92963
C         25.90131        10.61331         0.83872
C         25.89448        12.04728         0.80994
C         27.11708         9.92196         0.78079
C         27.13308        12.74477         0.73453
C         25.91107        14.87172         0.56692
C         25.90646        16.28770         0.32405
C         27.13726        14.17271         0.64550
C         27.13310        16.97735         0.15934
C         25.91025        19.04518        -0.33458
C         27.13646        18.38251        -0.15069
C         28.31049         2.12722        -0.39454
C         28.29874         3.56871        -0.35999
C         29.57720         1.44117        -0.58391
C         29.50245         4.31041        -0.53609
C         28.36379         6.41243         0.05239
C         28.38554         7.76786         0.41973
C         29.56485         5.69833        -0.24534
C         29.60357         8.48008         0.52556
C         28.36598        10.61564         0.80259
C         28.35531        12.02237         0.79231
C         29.63067         9.88078         0.76097
C         29.59747        12.76618         1.07018
C         28.38779        14.88662         0.57797
C         28.37437        16.28514         0.30965
C         29.61966        14.21802         0.79002
C         29.60991        16.97974         0.16292
C         28.37681        19.07025        -0.26421
C         29.60193        18.41266        -0.10277
C         30.71988         2.11500        -0.88565
C         30.70358         3.58838        -0.97303
C         31.99764         1.39353        -1.26169
C         32.02384         4.34360        -0.95947
C         30.83478         6.36990        -0.13879
C         30.89677         7.70522         0.56114
C         32.01942         5.73174        -0.45582
C         32.11560         8.51951         0.20804
C         30.87993        10.56759         0.82130
C         30.89450        11.99769         1.19331
C         32.10839         9.91638         0.47656
C         32.21418        12.76475         1.25263
C         30.84601        14.91047         0.66224
C         30.82055        16.28587         0.30756
C         32.12656        14.21456         0.79309
C         32.11894        16.97243        -0.04431
C         30.82787        19.13012        -0.12407
C         32.06848        18.48446         0.02370
C         33.26789         2.14745        -0.91128
C         33.27165         3.56502        -0.82712
C         34.45479         1.44509        -0.72795
C         34.47573         4.26695        -0.62393
C         33.28585         6.41833        -0.34252
C         33.30548         7.84497        -0.13214
C         34.48323         5.70902        -0.50315
C         34.54721         8.55522        -0.24934
C         33.34628        10.65456         0.37434
C         33.39057        12.05046         0.62991
C         34.55602         9.98764        -0.01186
C         34.58982        12.76661         0.53697
C         33.31043        14.90842         0.70561
C         33.25231        16.41632         0.80222
C         34.59485        14.22053         0.68495
C         34.54926        17.12169         0.52894
C         33.27454        19.17789         0.09890
C         34.53668        18.49715         0.25592
C         35.69394         2.12256        -0.53655
C         35.70074         3.55274        -0.54340
C         36.91455         1.43181        -0.35189
C         36.93531         4.26602        -0.51098
C         35.73751         6.40939        -0.53605
C         35.74797         7.84918        -0.47406
C         36.93552         5.68894        -0.62416
C         37.01831         8.54042        -0.49526
C         35.76391        10.70414        -0.08807
C         35.81535        12.09346         0.21895
C         36.99787        10.03951        -0.63284
C         37.05676        12.78497         0.26543
C         35.78403        14.91729         0.66313
C         35.79430        16.39270         0.75142
C         37.11306        14.20108         0.78623
C         37.09169        17.13766         0.50405
C         35.76273        19.20305         0.06559
C         37.00375        18.55443         0.07870
C         38.13235         2.12983        -0.21359
C         38.14987         3.55488        -0.34326
C         39.36154         1.44670         0.05435
C         39.40010         4.27643        -0.27267
C         38.21973         6.39302        -0.95609
C         38.21680         7.85792        -0.57542
C         39.44554         5.64975        -0.51191
C         39.49339         8.54686        -0.47823
C         38.28598        10.70781        -0.23597
C         38.28423        12.09492         0.03003
C         39.50630         9.97636        -0.30246
C         39.53482        12.81866         0.02378
C         38.30733        14.97096         0.24122
C         38.30341        16.36255         0.15140
C         39.52658        14.25377         0.01046
C         39.47471        17.08541        -0.23806
C         38.18516        19.20407        -0.31800
C         39.41874        18.51075        -0.42886
C         40.54512         2.14755         0.21625
C         40.59778         3.54989         0.05609
C         41.81359         4.29764         0.24902
C         40.76416         6.33714        -0.74047
C         40.71081         7.83672        -0.50118
C         41.89188         5.62128        -0.04355
C         41.92416         8.54746        -0.39798
C         40.74879        10.66930        -0.19091
C         40.75309        12.11481        -0.11990
C         41.94778         9.92379        -0.24305
C         41.96056        12.85492        -0.25209
C         40.73381        14.96186        -0.24599
C         40.70820        16.39796        -0.41120
C         41.94662        14.22833        -0.34014
C         41.86444        17.14086        -0.75264
C         40.59820        19.20541        -0.78281
C         41.80295        18.52212        -0.93339
O         30.10932        12.32750         2.39902
O         18.98738         4.01395        -1.55893
O          5.25043        10.65717        -1.72611
O         36.63115        16.90108         1.88846
O          6.12137         2.42317        -1.73948
O         17.00047         8.92484         2.35979
O         10.43732         6.17153        -1.76119
O         20.87638        15.97835         2.04273
O         15.36561        12.37722        -0.73318
O         31.30007         4.12232        -2.21888
O         13.28972        10.61703         2.55514
H         14.02516        11.16501         2.90638
O         32.01924         0.07452        -0.71507
H         32.03752         0.14411         0.26109
O          7.63864         9.99547        -2.13340
H          6.76557        10.05800        -2.59394
O         41.03994         6.20942        -2.20815
H         41.20440         5.25673        -2.38109
O         32.57657        12.85143         2.66692
H         31.72823        12.94629         3.16167
O         27.14723         8.17809         2.38584
H         27.91856         8.66147         2.75181
O          6.94684        17.38564         1.55970
H          6.83377        16.49758         1.97609
O         17.56296        14.11785        -1.17072
H         16.84685        13.56942        -1.56940
O         36.91185        10.25889        -2.10525
H         37.58909         9.68319        -2.52263
O         10.05523        12.81685        -1.64738
H          9.86575        11.90656        -1.96475
O         14.72050        14.29631         2.31037
H         14.94403        15.21049         2.58747
O         16.02054         2.12687         2.03831
H         15.16976         2.51539         2.33588
O         18.63410        10.81900         2.92383
H         18.31061         9.98043         3.32811
O          7.09679        14.33504         1.92528
H          7.94280        14.04377         2.33017
O         20.94094        20.32762         0.42548
H         20.90385        20.00230         1.34845
O         38.28962         6.40751        -2.44185
H         39.24977         6.49882        -2.67317
O          5.94517        11.65911         1.67842
H          6.01229        12.49830         2.19021
O          4.33849         4.20315        -2.21280
H          4.67775         3.36319        -2.60201
O         32.41837        16.62307        -1.42772
H         31.71733        17.01005        -1.99278
O          9.55135         8.29898         1.73880
H         10.27353         8.81155         2.16491
O         14.80606         5.73832        -1.81250
H         13.99551         5.29749        -2.14750
O          2.22314        14.60737         1.60966
H          2.23668        15.58339         1.70831
O         18.08780        15.15774         2.31250
H         18.89612        15.53544         2.73060
O         31.07874         7.36064         1.99839
H         31.21251         8.20501         2.48084
O         37.35486        14.11383         2.23894
H         37.28383        15.03850         2.57710
O          9.71908        17.53004         1.77608
H          8.78576        17.80860         1.95374
O          5.10264        16.69577        -2.48896
H          4.31341        17.04982        -2.95123
O         32.92916        16.72416         2.19187
H         33.64849        16.36839         2.75539
O         27.00745         5.96391        -1.82570
H         27.77435         5.49567        -2.22164
O         23.51140        12.04153         2.81308
H         23.46112        12.97393         3.11401
H          0.41042         1.61575         1.30809
H          0.30614         4.03478         0.80824
H          2.53403         0.35110         0.97556
H          0.17433         5.81997         0.02000
H          0.15384         8.25396        -0.00382
H          0.13018        10.16020         0.23572
H          0.14080        12.60168         0.30874
H          0.11624        14.47715        -0.43648
H          0.22858        16.80899        -1.18005
H          1.50142        18.95616        -1.27268
H          4.89195         0.34338         0.58271
H          3.63463        20.21080        -1.16855
H          7.40272         0.34323         0.45578
H          6.11629        20.22602        -1.06058
H          9.83700         0.31516         0.08559
H          8.56528        20.13455        -1.15164
H         12.26278         0.31402         0.01301
H         11.04139        20.15692        -1.04517
H         14.70721         0.30103         0.19969
H         13.53091        20.18095        -0.82444
H         17.26940         0.29473         0.24920
H         15.99472        20.12280        -0.87359
H         19.71591         0.31264        -0.26501
H         18.47859        20.10026        -0.88513
H         22.16560         0.33039        -0.33613
H         21.00381        19.59707        -1.49279
H         24.63603         0.32664        -0.29271
H         23.45346        20.09120        -0.70860
H         27.11646         0.33196        -0.34350
H         25.90496        20.11200        -0.60252
H         29.59142         0.34113        -0.54556
H         28.36818        20.15150        -0.46745
H         31.98767         1.27176        -2.38172
H         30.79702        20.22816        -0.19737
H         34.43846         0.34569        -0.76122
H         33.27602        20.27606         0.02475
H         36.91259         0.33274        -0.30370
H         35.72224        20.26736        -0.20981
H         39.34924         0.35275         0.16214
H         38.15016        20.27417        -0.57112
H         41.47178         1.60615         0.45798
H         42.68752         3.77416         0.66625
H         42.84115         6.14942         0.12267
H         42.87974         8.01015        -0.45873
H         42.92020        10.42740        -0.16781
H         42.92182        12.33178        -0.33850
H         42.89787        14.75649        -0.48703
H         42.82872        16.63425        -0.88968
H         40.55576        20.29337        -0.93446
H         42.71379        19.07427        -1.20412
