         651
 CSIRO Nanostructure Databank - Neutral Graphene Oxide Data Set
C          5.98419        31.72477         1.30224
C          5.96747        33.07502         1.21119
C          8.22969        27.30169         0.47471
C          8.21946        28.73440         0.59366
C          7.16357        29.46506         1.08602
C          8.45579        31.66928         0.87529
C          7.26152        30.92362         1.48918
C          8.43534        33.15307         0.76279
C          7.16870        33.88088         1.04031
C          8.42343        35.99209         0.77427
C          7.18223        35.24490         0.97107
C          8.44971        37.36292         0.96031
C         10.66554        23.04824        -0.12037
C         10.68227        24.43202        -0.06532
C          9.46322        25.18687         0.05548
C         10.69724        27.32976         0.20436
C          9.41272        26.58002         0.22821
C         10.66102        28.76022        -0.06363
C          9.39913        29.44538         0.03764
C         10.72360        31.64745        -0.27839
C          9.43874        30.94460         0.01386
C         10.63632        33.11201        -0.54744
C          9.35126        33.87417        -0.20853
C         10.80792        35.93427         0.11017
C          9.59869        35.28477         0.30687
C         10.96228        37.33092         0.54580
C          9.70694        38.10178         0.99116
C         10.85935        40.27737         0.57635
C          9.73816        39.57922         0.93932
C         10.89444        41.71813         0.61887
C         13.17872        18.70409         0.12755
C         13.15881        20.07442        -0.12268
C         11.95346        20.80337        -0.13968
C         13.20067        23.01978        -0.04564
C         11.89829        22.26398         0.24684
C         13.14614        24.46502        -0.39847
C         11.96441        25.13324        -0.22193
C         13.17695        27.38412        -0.45987
C         11.97871        26.60267        -0.08691
C         13.14166        28.73760        -0.50492
C         11.82386        29.44941        -0.70953
C         13.11099        31.63952        -0.97477
C         11.86542        30.95370        -0.53500
C         13.19094        33.11715        -0.91026
C         11.90946        33.86081        -0.80129
C         13.16955        35.97699        -0.62920
C         11.97222        35.30107        -0.46851
C         13.24115        37.41089        -0.41684
C         12.12284        38.08263         0.05419
C         13.35651        40.23106         0.09806
C         12.01935        39.57559        -0.10377
C         13.34910        41.67573         0.43541
C         12.07260        42.44302         0.46826
C         13.30405        44.63215         0.37182
C         12.12617        43.87007         0.52890
C         13.34231        46.04467         0.38874
C         15.75919        14.40373         0.09168
C         15.70076        15.85479         0.15506
C         14.49856        16.52403         0.18710
C         15.70492        18.72251         0.28524
C         14.42353        17.98123         0.56405
C         15.71058        20.10393         0.03580
C         14.45377        20.75498        -0.52174
C         15.71485        22.95956        -0.67756
C         14.45878        22.25478        -0.27306
C         15.71106        24.45554        -0.81737
C         14.38996        25.16852        -0.84930
C         15.70752        27.37535        -0.62098
C         14.40370        26.69531        -1.00353
C         15.70384        28.76877        -0.53465
C         14.41244        29.51925        -0.30041
C         15.68836        31.62700        -0.88894
C         14.41748        30.87979        -0.94372
C         15.63718        33.03166        -1.32410
C         14.35977        33.77973        -1.13950
C         15.63160        36.03432        -1.38244
C         14.34418        35.27076        -1.21204
C         15.67562        37.46416        -0.96079
C         14.50011        38.13283        -0.62015
C         15.72309        40.32316        -0.59483
C         14.49459        39.55561        -0.26871
C         15.87438        41.71144        -0.05869
C         14.61897        42.44289         0.31043
C         15.83619        44.64653        -0.17436
C         14.54981        43.90159         0.01144
C         15.83733        46.08039         0.20605
C         14.54276        46.80539         0.25839
C         15.82754        48.94362         0.17397
C         14.60056        48.19830         0.30858
C         15.84097        50.34359         0.22349
C         18.20715        10.09088         0.18122
C         18.22115        11.59844         0.03719
C         17.02478        12.28110         0.06518
C         18.22667        14.48043        -0.19516
C         16.94809        13.71877         0.04483
C         18.18916        15.90793         0.29073
C         16.95478        16.58916         0.28489
C         18.16864        18.73206         0.41903
C         16.94186        18.01823         0.37843
C         18.15717        20.17071         0.38618
C         16.91755        20.82774         0.10026
C         18.10415        23.09199         0.09985
C         16.97143        22.23931        -0.35123
C         18.15823        24.53809        -0.25912
C         16.97519        25.22001        -0.58772
C         18.15331        27.38723        -0.34843
C         16.94279        26.65536        -0.57188
C         18.14786        28.83756        -0.35901
C         16.91647        29.52333        -0.50512
C         18.15347        31.71667        -0.67728
C         16.89904        30.97258        -0.67729
C         18.18441        33.10347        -0.91081
C         16.95799        33.78128        -1.39407
C         18.22301        36.00391        -1.27245
C         16.94217        35.28392        -1.50339
C         18.17644        37.47220        -1.08892
C         16.97378        38.13336        -1.02471
C         18.26057        40.34828        -1.15907
C         16.94666        39.61419        -1.07429
C         18.28953        41.82204        -0.96549
C         17.11608        42.48180        -0.33078
C         18.34372        44.62770        -0.33402
C         17.13859        43.95280        -0.22533
C         18.36884        46.08639        -0.33896
C         17.13573        46.81576         0.05108
C         18.24080        48.98804        -0.37945
C         17.08185        48.27983        -0.07152
C         18.27391        50.40969        -0.27681
C         17.04694        51.08277         0.07411
C         18.27198        53.19736         0.26145
C         17.06253        52.47311         0.29403
C         18.30589        54.56700         0.60600
C         20.83163         5.88827        -0.26164
C         20.79100         7.31107        -0.31490
C         19.57319         8.02286        -0.12874
C         20.74072        10.16021        -0.18009
C         19.53513         9.41253        -0.07781
C         20.72703        11.60880        -0.02678
C         19.48478        12.30667         0.04107
C         20.67603        14.41853         0.37040
C         19.48328        13.72121         0.15416
C         20.64108        15.84043         0.86916
C         19.38716        16.59867         0.52171
C         20.64187        18.72519         0.60561
C         19.40820        18.02261         0.54785
C         20.67426        20.20276         0.30443
C         19.35740        20.90105         0.49108
C         20.57325        23.16976         0.75420
C         19.31321        22.37286         0.62215
C         20.63953        24.57273         0.26019
C         19.38451        25.25381        -0.08534
C         20.60040        27.39054         0.15114
C         19.35740        26.65970        -0.17817
C         20.58028        28.88578         0.18457
C         19.35314        29.60077        -0.21436
C         20.61925        31.74150        -0.36999
C         19.38237        31.00407        -0.40323
C         20.63717        33.13345        -0.48751
C         19.40971        33.86017        -0.74342
C         20.68829        35.99405        -0.81517
C         19.45187        35.25802        -0.90160
C         20.72577        37.40027        -0.96157
C         19.48906        38.18037        -1.37550
C         20.77251        40.34534        -0.98423
C         19.49487        39.57588        -0.74324
C         20.78198        41.76146        -0.96148
C         19.57726        42.51693        -0.77158
C         20.85505        44.61370        -0.62766
C         19.57559        43.88791        -0.55822
C         20.82079        46.12655        -0.69824
C         19.50474        46.79287        -0.63789
C         20.73258        49.01718        -1.05657
C         19.44976        48.26079        -0.83829
C         20.74597        50.47741        -0.75361
C         19.49396        51.13846        -0.40754
C         20.71099        53.27367        -0.10876
C         19.49941        52.52829        -0.09480
C         20.75553        54.60715         0.34777
C         19.52408        55.26040         0.71130
C         20.77193        57.20533         1.52054
C         19.55917        56.58562         1.21979
C         20.74908        58.54510         2.22363
C         23.34146         3.13159         0.09748
C         22.09991         3.77916        -0.10538
C         23.26141         5.85603        -0.79925
C         22.02937         5.15674        -0.38200
C         23.24837         7.34979        -0.84232
C         21.99032         8.06183        -0.49507
C         23.22730        10.22309        -0.50497
C         21.95728         9.46253        -0.40366
C         23.22444        11.69248        -0.21695
C         21.92996        12.35016         0.03104
C         23.16379        14.47483         0.41638
C         21.92136        13.73958         0.30718
C         23.14349        15.90365         0.53865
C         21.91263        16.60270         0.62265
C         23.13218        18.72243         0.75824
C         21.88604        18.01673         0.67232
C         23.11296        20.15345         1.10232
C         21.81591        20.90780         1.02288
C         23.12457        23.10346         0.65642
C         21.83906        22.41490         0.96209
C         23.12558        24.59394         0.58270
C         21.85951        25.23330         0.25019
C         23.18788        27.41419        -0.03795
C         21.86382        26.66109        -0.26176
C         23.18211        28.88638         0.24073
C         21.88710        29.63157         0.21170
C         23.17600        31.74454        -0.16064
C         21.92030        30.97337        -0.48443
C         23.14533        33.11750        -0.22940
C         21.89916        33.85822        -0.44743
C         23.21112        35.95480        -0.86082
C         21.90649        35.24236        -0.61115
C         23.15961        37.45368        -0.73954
C         21.97004        38.14713        -0.88494
C         23.21061        40.35560        -1.03047
C         21.98230        39.62497        -1.00005
C         23.25415        41.75590        -1.15848
C         22.01248        42.48736        -1.13346
C         23.23398        44.58629        -1.67705
C         22.02979        43.88386        -1.10083
C         23.22093        46.12090        -1.54681
C         22.00595        46.86719        -1.18867
C         23.24850        48.99023        -1.10319
C         22.02022        48.25946        -1.12319
C         23.19968        50.47693        -1.17787
C         21.91913        51.18724        -0.90209
C         23.23024        53.44033        -0.54728
C         21.91686        52.65523        -0.68637
C         23.24325        54.67164         0.25524
C         22.00954        55.29162         0.58439
C         23.26157        57.15057         1.80253
C         21.99047        56.55307         1.25197
C         23.23445        58.66095         1.83308
C         22.02381        59.33239         2.03541
C         23.20234        61.46263         2.08154
C         22.00718        60.73375         2.14335
C         24.54552         3.79442         0.00499
C         25.82798         5.96174        -0.34840
C         24.62195         5.14296        -0.55359
C         25.83395         7.33860        -0.41718
C         24.56860         8.07280        -0.69429
C         25.73885        10.21392         0.11216
C         24.48211         9.47057        -0.18540
C         25.71082        11.69377         0.16674
C         24.47112        12.37951         0.17863
C         25.62952        14.53730         0.44403
C         24.41484        13.79674         0.37168
C         25.61767        15.93483         0.45686
C         24.37653        16.63325         0.51726
C         25.61445        18.79157         0.66650
C         24.35803        18.05654         0.65749
C         25.60693        20.22659         0.93844
C         24.37346        20.88387         1.13961
C         25.54416        23.11620         1.43691
C         24.37819        22.34547         0.91783
C         25.52017        24.61019         1.28467
C         24.34311        25.25204         0.62957
C         25.71216        27.43937         0.53129
C         24.46993        26.67687         0.25969
C         25.76890        28.86243        -0.02459
C         24.45407        29.62969         0.06452
C         25.74459        31.73067        -0.15265
C         24.42507        30.99964         0.02049
C         25.67822        33.20134         0.19798
C         24.37653        33.88028         0.10296
C         25.67689        36.07795        -0.10326
C         24.37668        35.37144        -0.08652
C         25.70813        37.46421        -0.34757
C         24.48378        38.15238        -0.94666
C         25.75083        40.33000        -0.79237
C         24.41555        39.61980        -0.49967
C         25.70002        41.83835        -0.49664
C         24.48554        42.53272        -1.06501
C         25.76692        44.66834        -1.04034
C         24.51864        43.90815        -1.20956
C         25.78194        46.13059        -1.07851
C         24.54410        46.88390        -1.36426
C         25.71261        48.99568        -0.74835
C         24.48483        48.32177        -1.04090
C         25.66542        50.43940        -0.46714
C         24.49851        51.22208        -0.98838
C         25.79625        53.38927        -0.39396
C         24.52572        52.71458        -0.77321
C         25.75073        54.73442         0.21412
C         24.50247        55.31700         0.57824
C         25.72695        57.33355         1.27009
C         24.51044        56.59694         1.17210
C         25.69254        58.70811         1.62674
C         24.45853        59.39306         1.79626
C         24.41664        60.80735         1.92713
C         27.02697         8.11744        -0.22017
C         28.21608        10.28115         0.00053
C         27.03248         9.50868        -0.06142
C         28.18628        11.68916         0.15088
C         26.93078        12.37286         0.26021
C         28.06025        14.54653        -0.20779
C         26.95931        13.84102         0.58038
C         28.05881        16.03154         0.07255
C         26.87262        16.68086         0.34198
C         28.02978        18.89855         0.16305
C         26.80719        18.12820         0.41845
C         28.04566        20.39853         0.57129
C         26.80397        20.96920         1.06383
C         28.10129        23.07332         1.79565
C         26.76931        22.27789         1.83170
C         28.08263        24.60013         1.79808
C         26.81159        25.38318         1.48487
C         28.10967        27.50777         1.02471
C         26.85857        26.80370         0.99525
C         28.14464        28.92632         0.82067
C         26.94209        29.63400         0.52632
C         28.10362        31.76418         0.77102
C         26.93166        31.03569         0.49232
C         28.07122        33.25704         0.96160
C         26.82020        33.93007         0.43002
C         28.09129        36.07241         0.30631
C         26.84475        35.37681         0.28980
C         28.11482        37.47150         0.10241
C         26.92234        38.16945        -0.17447
C         28.19034        40.43608        -0.11435
C         26.88634        39.67580         0.02550
C         28.21690        41.78336        -0.36913
C         27.00122        42.48545        -0.96333
C         28.23810        44.66389        -0.73038
C         26.94478        43.98104        -0.77373
C         28.23600        46.16077        -0.74236
C         26.93609        46.85880        -0.80534
C         28.18048        49.01951        -0.46169
C         26.93354        48.30252        -0.65789
C         28.21278        50.38313        -0.22456
C         26.96256        51.15099        -0.12055
C         28.24601        53.26786        -0.05808
C         27.04161        52.61553        -0.20531
C         28.27394        54.78438        -0.06888
C         26.97301        55.40940         0.40978
C         26.95473        56.71268         0.90532
C         29.39311        12.46756         0.17059
C         30.57285        14.63018         0.12165
C         29.38988        13.86175         0.07171
C         30.58292        16.03669         0.01413
C         29.30883        16.76848        -0.28057
C         30.50183        18.92155         0.14892
C         29.32283        18.20667         0.10778
C         30.51162        20.33835         0.47347
C         29.35649        21.00227         0.83729
C         30.67351        23.13043         1.32095
C         29.38047        22.37053         1.42525
C         30.66579        24.59422         1.34986
C         29.42329        25.30762         1.66798
C         30.64018        27.42187         0.84227
C         29.36971        26.81140         1.32185
C         30.62749        28.94939         0.77417
C         29.35801        29.66706         0.94226
C         30.57513        31.84551         0.94562
C         29.34393        31.09113         0.94242
C         30.60790        33.22165         0.62224
C         29.35355        33.95156         0.55158
C         30.59009        36.05695         0.11945
C         29.33526        35.32004         0.41178
C         30.61391        37.48802         0.60179
C         29.42659        38.23214        -0.05216
C         30.69829        40.34765         0.18486
C         29.36743        39.68647         0.47203
C         30.70616        41.81475        -0.03901
C         29.43987        42.56304        -0.19962
C         30.67758        44.72087        -0.13754
C         29.45670        43.94149        -0.28054
C         30.69313        46.09891        -0.19184
C         29.39972        46.87740        -0.10115
C         30.72713        49.00273        -0.20708
C         29.48900        48.28303        -0.69932
C         30.69051        50.38414        -0.02926
C         29.46454        51.11607        -0.09167
C         29.45208        52.51022         0.03859
C         31.76732        16.78425         0.07801
C         32.99426        18.91146         0.06989
C         31.78208        18.20730         0.06799
C         33.06051        20.33007         0.12663
C         31.76377        21.11095         0.12327
C         33.12786        23.20388         0.60096
C         31.92022        22.41002         0.89874
C         33.11887        24.55554         0.82901
C         31.88658        25.29366         1.14095
C         33.19982        27.45661         1.14532
C         31.89551        26.70282         1.04658
C         33.16947        28.94346         0.87492
C         31.89034        29.64105         1.14502
C         33.12952        31.87102         1.12443
C         31.83361        31.14486         1.25249
C         33.09829        33.27102         0.68348
C         31.85864        33.89730         0.41578
C         33.19571        36.06710        -0.14591
C         31.87300        35.30812        -0.02296
C         33.11696        37.54629         0.20915
C         31.94477        38.20481         0.41327
C         33.21058        40.40742         0.29598
C         31.95059        39.68741         0.75293
C         33.22010        41.78964         0.16697
C         31.95592        42.54481         0.30586
C         33.23516        44.72223        -0.06638
C         31.95058        44.02743         0.17527
C         33.17996        46.13344        -0.15937
C         31.94893        46.83379        -0.14102
C         31.91803        48.25125        -0.08899
C         34.24819        21.03981         0.01965
C         35.52380        23.14787         0.00520
C         34.32997        22.47864         0.16495
C         35.65717        24.57864         0.46214
C         34.33021        25.30155         0.39012
C         35.60543        27.52243         0.27045
C         34.33395        26.78309         0.41602
C         35.59032        28.91806         0.28974
C         34.34739        29.61368         0.65821
C         35.53673        31.81084         0.26678
C         34.40685        31.08102         0.84020
C         35.53810        33.23297         0.29261
C         34.33547        33.94272         0.53686
C         35.62554        36.12081         0.30095
C         34.32749        35.43804         0.67031
C         35.62148        37.51710         0.21374
C         34.40098        38.25532         0.23330
C         35.67190        40.37919        -0.06842
C         34.42533        39.66517         0.18150
C         35.63038        41.80769        -0.21239
C         34.43987        42.52849        -0.07597
C         34.40801        43.96536        -0.16303
C         36.79225        25.38879        -0.10985
C         37.99317        27.55054        -0.27543
C         36.79567        26.78520        -0.07094
C         38.00049        28.94194        -0.30730
C         36.75003        29.65967        -0.12910
C         37.63989        31.87517        -0.89082
C         36.63106        31.08674        -0.26532
C         37.84003        33.22701        -0.61223
C         36.74392        33.95753        -0.05264
C         38.01051        36.06179        -0.40917
C         36.79343        35.36780         0.00273
C         38.06015        37.43909        -0.36417
C         36.94700        38.23988         0.26287
C         36.86226        39.67529        -0.16225
C         39.31213        29.61939        -0.32775
C         40.59061        31.79602        -0.86674
C         39.52450        30.81096        -0.95701
C         40.37083        33.14245        -0.97128
C         39.11371        33.88649        -0.87920
C         39.15718        35.26649        -0.79174
O         17.75246        35.69675        -2.66119
O         29.22207        16.79017        -1.88083
O         30.63442        28.13978        -0.44184
O         28.94642        22.49465         2.83186
O         19.85810        48.68140        -2.19667
O         27.29002        25.19812         2.85451
O         27.88989        19.94903        -0.83402
O         14.99030        24.64799        -2.09726
O         30.89157        40.85179        -1.15334
O         14.14747        22.73155         1.07761
O         31.77105        30.28921         2.45092
O         22.44240        53.48585        -1.77974
O         28.54244        45.44220        -1.96791
O         20.46719        28.07000         1.41942
O         14.15646        42.04674         1.63092
O         31.86890        43.36835         1.51261
O         13.69689        31.04506        -2.18675
O         23.32680        11.14619        -1.62220
O         10.67864        37.56027         1.96983
O          9.13849        32.51382         1.87554
O         34.06547        31.57008         2.19083
O         21.14850        45.44742         0.58491
O         31.06036        35.69167        -1.21783
O         25.10667        23.96344         2.54462
O         16.88568        41.81723         0.99724
O         11.61188        26.94231         1.32457
O         24.08075        34.82048         1.22153
O         21.17035        23.03035         2.09841
O         24.06594        27.03249        -1.13302
O         38.47795        31.24332        -1.80570
O         23.98383         5.24738        -1.88216
O         25.33603        53.37906        -1.81086
O         22.20224        20.39705         2.30303
O         24.90443         9.60870         1.20381
O         23.94300        46.66891        -2.69292
O         16.52320        22.37393        -1.75500
O         23.91667        22.58258        -0.47494
O          8.93952        30.27088        -1.17956
O         11.02822        33.47064        -1.92477
O         15.00483        44.27268        -1.33739
O         31.60383        22.47182         2.30731
O         22.55365        29.41062         1.47921
O         18.27436        41.23041        -2.31310
O         26.02241        31.59568        -1.55180
O         25.99116        50.73772         0.93358
O         31.54433        21.45028        -1.23412
O         24.03011        50.91407        -2.32418
O         18.27576        22.87668         1.54469
O         15.98530        40.17139        -2.03003
O         29.56650        26.34098         2.69266
O         14.73832        35.80647        -2.52404
O         34.03094        26.06133        -0.82734
O         23.96219         7.90765        -2.00128
O         16.35427        33.20313        -2.59485
O         16.66641        46.33752         1.38239
O         25.59946        42.06509         0.94326
H         24.72119        41.71441         1.22286
O         14.50994        20.57900        -1.96355
H         15.30961        21.06195        -2.28969
O         17.18156         9.51001        -0.63512
H         17.43419         9.62309        -1.57413
O         23.54219        35.66550        -2.28125
H         22.73960        35.85216        -2.81551
O         27.34482        13.95569         1.98770
H         26.69457        13.45414         2.52281
O         11.76939        22.14410         1.70790
H         12.68956        22.12536         2.06826
O         30.39510        37.36251         2.02453
H         30.30759        38.28216         2.38823
O         37.30127        38.29893         1.71354
H         37.27154        37.37649         2.04861
O         35.95525        24.49836         1.90681
H         36.75632        23.94481         2.02061
O         23.13509        44.30328        -3.10708
H         23.70638        44.96427        -3.56438
O         26.53570        21.89612         3.20282
H         26.37658        22.72340         3.71080
O         30.38646        17.44127        -2.38126
H         30.13322        18.39849        -2.40718
O         14.27384        26.98363        -2.42854
H         14.74572        26.26672        -2.91572
O         31.88454        39.80901         2.19923
H         32.67822        39.37422         2.57594
O         20.56410        15.70245         2.34761
H         21.45828        15.45812         2.66914
O         19.55750        38.34976        -2.81367
H         19.13490        37.57285        -3.24050
O         33.61333        35.97146        -1.52423
H         32.81216        36.11135        -2.07810
O         29.68312        38.32352        -1.46578
H         29.88304        37.42528        -1.80883
O         34.03803        35.72798         2.06823
H         34.57280        35.12729         2.62841
O         11.52504        29.26436        -2.14755
H         10.68421        29.74800        -2.32780
O         18.31075        14.62484        -1.66419
H         18.26414        13.72419        -2.05021
O         21.03207        20.35645        -1.12553
H         20.38657        19.84243        -1.65644
O         29.21485        39.69388         1.90980
H         28.25615        39.53001         2.10512
O         29.07419        47.00081         1.30663
H         29.84247        47.40038         1.76612
O         14.31477        17.96895         2.05111
H         15.10508        17.50210         2.39918
O         23.30250        56.71833         3.22227
H         24.12504        57.08634         3.61063
O         26.07810        28.81081        -1.45662
H         26.10290        29.77435        -1.74799
O         22.00814        30.59957        -1.90280
H         22.31573        31.37989        -2.41114
O         26.08633        40.22100        -2.17324
H         25.86147        39.32364        -2.51269
O         21.68198        26.56514        -1.70336
H         22.57511        26.42454        -2.09930
O         27.11630        42.38883        -2.40263
H         27.94905        42.83012        -2.67202
O         24.13995        39.62598         0.92838
H         24.90472        39.20665         1.39692
O         24.66524        38.08520        -2.39631
H         24.53779        37.13463        -2.65335
O         28.52473        55.23589        -1.41343
H         27.78232        54.93265        -1.97760
O          7.46501        30.87136         2.93198
H          8.03486        31.64395         3.16178
O          8.58311        34.00486        -1.42797
H          9.23209        34.10157        -2.16425
O         27.77847        14.38706        -1.61908
H         28.35532        15.01707        -2.11165
O         29.64054        48.12008        -2.13126
H         29.73032        49.00781        -2.53516
O         27.99642        33.43739         2.42178
H         27.94518        34.40068         2.60131
O         14.39832        29.82911         1.14015
H         14.39103        28.98365         1.63850
O         11.71750        39.77323        -1.53789
H         12.46310        39.40441        -2.06029
O         19.36293        39.35283         0.68665
H         19.40726        40.21562         1.15093
O         33.57715        27.36172         2.56087
H         32.95788        27.91380         3.08588
O         19.60588        59.30663         1.82574
H         19.68178        59.49972         0.86904
O         26.61759        39.76703         1.48071
H         26.44461        40.73268         1.66111
H          5.03294        31.18299         1.41601
H          5.00306        33.60684         1.21446
H          7.29263        26.75130         0.64759
H          6.28122        28.92634         1.46580
H          6.25703        35.81633         1.14159
H          7.50816        37.91252         1.11071
H          9.70115        22.52023        -0.06585
H          8.51855        24.62212         0.06750
H          8.85200        40.12396         1.30165
H          9.95360        42.25409         0.81943
H         12.22241        18.18756         0.31116
H         11.02445        20.23754         0.04555
H         11.17775        44.40748         0.68549
H         12.39953        46.59188         0.54358
H         14.81012        13.84769         0.14490
H         13.55820        15.95411         0.13513
H         13.66727        48.77018         0.42396
H         14.90841        50.89043         0.42708
H         17.91584         9.86286         1.24649
H         16.08802        11.70636         0.12886
H         16.13037        52.99099         0.56350
H         17.36858        55.07836         0.87020
H         19.89775         5.34388        -0.05579
H         18.63614         7.45822        -0.01576
H         18.61745        57.09986         1.46123
H         20.62992        58.35023         3.32582
H         23.33091         2.09096         0.45241
H         21.17160         3.23223         0.11319
H         23.17764        62.55744         2.17300
H         21.04726        61.24806         2.29110
H         25.46875         3.31771         0.36552
H         26.74984         5.43793        -0.05151
H         26.63224        59.27888         1.65081
H         25.35633        61.37682         1.89447
H         27.99025         7.58459        -0.22454
H         29.18813         9.77666        -0.10663
H         29.12520        55.15264         0.55749
H         27.89153        57.28242         0.99138
H         30.35632        11.93623         0.23124
H         31.53052        14.11286         0.29447
H         31.61780        50.92766         0.20846
H         30.40544        53.04370         0.16488
H         32.72745        16.25186         0.16690
H         33.93588        18.33927         0.03455
H         34.11637        46.70571        -0.24372
H         32.86454        48.78944         0.07656
H         35.18926        20.49178        -0.15134
H         36.43203        22.59079        -0.27551
H         36.57511        42.34573        -0.38371
H         35.36192        44.48891        -0.33150
H         37.73280        24.86439        -0.34485
H         38.94262        27.00915        -0.40187
H         38.99099        37.96044        -0.63577
H         37.79710        40.20921        -0.39200
H         40.12479        29.14729         0.24471
H         41.62507        31.44386        -0.72984
H         41.26770        33.78447        -0.95924
H         40.11078        35.78999        -0.96240
