         276
 CSIRO Nanostructure Databank - Neutral Graphene Oxide Data Set
C        -10.97487         0.67201         0.33343
C         -9.76151         1.49359        -0.07815
C         -8.48313         0.76590         0.40198
C         -7.20266         1.47270        -0.00395
C         -6.15030         0.77815        -0.81289
C         -4.94542         1.55089        -1.27680
C         -3.64899         0.77231        -1.24153
C         -2.43328         1.43074        -0.67938
C         -1.15977         0.64632        -0.74453
C          0.07845         1.35047        -0.42010
C          1.27157         0.68588        -0.29150
C          2.50255         1.27852         0.33425
C          3.83632         0.82003        -0.31008
C          5.04023         1.41905         0.43544
C          6.34061         0.76915         0.04369
C          7.52123         1.45630         0.67261
C          8.72118         0.73581         0.69547
C          9.98771         1.34316         0.45317
C         11.16215         0.57915         0.23749
C         -9.71801         2.92937         0.39297
C         -8.54249         3.64496         0.33874
C         -7.17900         2.99263         0.21920
C         -6.37636         3.68431        -0.90696
C         -4.98289         3.03108        -1.10668
C         -3.76765         3.77332        -0.53570
C         -2.47010         2.92713        -0.52466
C         -1.15972         3.63572        -0.71681
C          0.09993         2.84522        -0.52341
C          1.35192         3.58376        -0.09119
C          2.45454         2.78394         0.54700
C          3.69000         3.52969         0.94344
C          5.02227         2.81017         0.99883
C          6.27503         3.64859         1.39783
C          7.65054         2.90807         1.05409
C          8.56550         3.49301        -0.08547
C          9.97181         2.77654        -0.06055
C         -8.53310         5.07082         0.43410
C         -7.43630         5.87152         0.00472
C         -6.28150         5.19417        -0.68584
C         -4.97404         5.93382        -0.76487
C         -3.68719         5.17598        -1.20593
C         -2.39311         5.92851        -0.86106
C         -1.13738         5.14020        -0.62085
C          0.00084         5.78403         0.13017
C          1.30723         5.05649         0.21867
C          2.46694         5.80357         0.86051
C          3.74840         5.03846         0.88844
C          4.98800         5.53896         0.16595
C          6.28393         5.12586         0.90009
C          7.54261         5.67346         0.27825
C          8.67281         4.99386         0.02686
C         -7.42397         7.24950         0.16466
C         -6.17790         8.06973        -0.13926
C         -4.98871         7.13285         0.21634
C         -3.65882         7.83313         0.44679
C         -2.42164         7.25115        -0.13456
C         -1.16208         8.10211        -0.29130
C          0.00409         7.26363         0.26915
C          1.23471         8.09099         0.52905
C          2.51526         7.30375         0.62299
C          3.73873         7.87319        -0.01855
C          4.98612         7.03565        -0.15176
C          6.22713         7.81547         0.15876
C          7.25304         6.99823         0.93151
C         -6.08696         9.40409         0.57236
C         -4.93098         9.97427         0.93809
C         -3.64395         9.21011         1.13675
C         -2.33352         9.96968         0.94058
C         -1.19043         9.41286         0.49037
C          0.20924         9.92493         0.75816
C          1.30448         9.42194        -0.17001
C          2.47098        10.00600        -0.52654
C          3.75699         9.21320        -0.74646
C          4.98824         9.94481        -0.20379
C          6.08014         9.29658         0.24886
C        -10.95048        -0.65227         0.56655
C         -9.67153        -1.47681         0.66688
C         -8.58490        -0.69245        -0.06446
C         -7.57827        -1.36235        -0.94432
C         -6.29798        -0.64040        -1.30106
C         -5.01617        -1.39942        -1.52845
C         -3.66629        -0.71219        -1.44044
C         -2.43545        -1.49517        -1.11508
C         -1.20465        -0.73687        -0.85779
C          0.05883        -1.50677        -0.70631
C          1.33803        -0.78712        -0.42781
C          2.64361        -1.34320        -1.01784
C          3.87794        -0.69430        -0.39008
C          5.04651        -1.39487        -0.08615
C          6.25425        -0.73529         0.29025
C          7.39688        -1.41209         0.75851
C          8.53255        -0.64500         1.05883
C         10.34393        -1.72361         0.80103
C         11.30980        -0.81154         0.27420
C         -9.75005        -2.91552         0.20355
C         -8.76066        -3.56579        -0.43152
C         -7.60747        -2.89537        -1.18310
C         -6.25537        -3.50272        -0.76285
C         -5.02689        -2.90460        -1.41121
C         -3.72106        -3.64346        -1.36699
C         -2.45413        -2.87183        -1.16998
C         -1.19838        -3.64087        -0.93160
C          0.08866        -2.92154        -1.20670
C          1.39482        -3.66745        -1.25412
C          2.68590        -2.88406        -1.06499
C          3.89261        -3.62067        -0.58293
C          4.99151        -2.87475         0.12514
C          6.16379        -3.59900         0.72189
C          7.46634        -2.89587         1.14631
C          8.73059        -3.65557         0.65336
C         10.00459        -2.99984         0.38748
C         -8.76456        -5.06841        -0.64972
C         -7.46867        -5.69564        -0.13913
C         -6.22493        -4.85984        -0.14307
C         -4.96555        -5.67486        -0.28364
C         -3.75839        -5.11800        -0.98833
C         -2.45397        -5.92337        -1.14309
C         -1.17841        -5.12754        -0.90230
C          0.10854        -5.88982        -1.16505
C          1.39796        -5.14928        -0.99506
C          2.50260        -5.80550        -0.52568
C          3.81114        -5.10938        -0.40093
C          4.99240        -5.81043         0.16839
C          6.20620        -5.11836         0.76821
C          7.44565        -5.80179         0.16153
C          8.69755        -5.01074         0.45411
C         -7.41613        -7.01028         0.16719
C         -6.22414        -7.64878         0.84853
C         -4.90177        -6.97671         0.46683
C         -3.64720        -7.76621         0.33523
C         -2.39289        -7.12430        -0.19589
C         -1.12520        -7.91213        -0.16828
C          0.07107        -7.38377        -0.92712
C          1.35231        -8.13252        -0.69885
C          2.56313        -7.30077        -0.40154
C          3.64410        -7.95532         0.40855
C          4.90424        -7.21119         0.67517
C          6.20649        -7.92573         0.79004
C          7.38872        -7.27073         0.58277
C         -6.12656        -9.16059         0.74360
C         -4.98429        -9.86249         0.65597
C         -3.64140        -9.27746         0.26950
C         -2.39252        -9.79973         1.04099
C         -1.11750        -9.30654         0.36357
C          0.01372       -10.03838         0.35802
C          1.27174        -9.63319        -0.38456
C          2.54856       -10.17148         0.23619
C          3.66909        -9.44009         0.48108
C          4.92926       -10.04501         0.89847
C          6.09964        -9.35950         1.02514
O          0.78567         8.91926         1.73050
O          5.93348         7.32647        -1.20803
O         -6.14035        -3.66147         0.69324
O          0.69077        -3.24182        -2.47780
O         -0.03259        -6.84178        -2.26232
O         -3.98262        -7.10296         1.59899
O         -7.81370        -3.13593        -2.53118
O         -4.06586         4.06491         0.84569
H         -3.86096         3.25631         1.37378
O         -8.76012        -0.74196        -1.52109
O          1.16824       -10.29799        -1.67580
H          1.76736        -9.81781        -2.29094
O          3.49673         8.00889         1.42293
O         -3.38917         0.19363        -2.55570
O          2.36953        -7.92154        -1.72167
O          1.35252         0.91498         2.38346
H          1.64392         1.66581         2.96058
O         -2.54150         2.04838         0.65482
O         -6.08270         0.79968         0.67070
O          3.91753         8.94230        -2.15225
H          3.88527         9.79035        -2.63983
O         -0.35123         6.41464         1.39684
O         -1.45425        -6.95029         0.90840
O         -9.35881        -1.60178         2.07441
H         -9.24481        -0.68727         2.43122
O         -5.82226        -0.89597        -2.63734
O         -6.88687         4.35392         2.18065
H         -6.17184         5.01685         1.94003
O          4.84338        -5.74550        -1.27983
O          0.66740        -1.49665         0.65025
O         -6.48191         3.13329         1.53013
O         -4.93230         2.43995        -2.42986
O          7.52424        -2.95030         2.58276
H          6.62007        -2.76240         2.91842
O          7.91183         3.17179        -1.32142
H          8.30158         3.70493        -2.04412
O         -4.77849        -5.86714        -1.72942
O          6.18443         3.74004         2.82876
H          5.65662         2.97792         3.15703
O         -6.44675        -7.39314         2.26427
H         -5.55784        -7.37665         2.68981
O          2.71050         3.11749         1.94446
O          4.93408         1.62343         1.87004
O          8.44857         2.96302         2.25298
O         -0.38396         3.19418        -1.86872
O         -4.46147        -3.47309        -2.62195
O          3.90050        -7.35814         1.73059
O         10.96353         3.59521         0.62807
H          7.86331         3.35142         2.95828
O         -9.88517        -5.69784        -0.04447
H         -9.77149        -5.66778         0.92768
O          3.95994         1.13309        -1.67964
O         -1.18709        -4.38062         0.34511
O         -8.50646         0.86090         1.84552
H         -7.57634         0.81630         2.16289
O          6.47793         6.19575         1.94343
O          3.14833         5.53260         2.12052
O          9.51589        -1.20106         1.83927
O          3.74282        -3.28597        -1.98894
O         -2.78178         6.96038         1.25667
O         -5.91256         5.96126        -1.87786
O          4.94989         4.81786        -1.08291
H          5.38601         5.37583        -1.76600
O         -3.73728         5.00778        -2.61642
H         -2.83704         5.18084        -2.98072
O         -0.89623         8.41054        -1.61541
O         11.16153         3.05613         1.96376
H         10.24738         3.11948         2.35810
O         -3.43539        -9.60530        -1.12636
H         -3.15014       -10.54328        -1.17055
O          5.03426        -3.16557         1.57552
O          1.78082         4.55771        -1.08212
O          2.59559        -0.94629        -2.40501
H          3.05945        -0.06362        -2.48499
O          2.56539         0.59745         1.66026
O          6.54876         0.89525        -1.38537
H          5.63655         1.04024        -1.79874
O         -3.64881         8.94838         2.57097
H         -2.91837         8.31041         2.74236
O         -1.39933         5.80877        -1.90222
O         -2.42993        -6.37329        -2.50034
H         -3.35507        -6.55291        -2.78347
O         -7.16737         3.45457        -2.07560
H         -6.63637         3.71589        -2.85984
O         -9.77832         1.64965        -1.51192
H         -9.59130         0.77328        -1.92872
O          6.24697        -5.45935         2.16862
H          5.53967        -4.95225         2.62329
O          7.45857        -5.75897        -1.28748
H          6.55499        -5.93131        -1.64374
O         -5.32259         6.56503         1.52047
H         -4.46418         6.40160         1.98052
O         -6.17576         8.47161        -1.52314
H         -6.28374         7.66657        -2.08669
O         -2.38230       -11.22429         1.06032
H         -3.01609       -11.53699         1.73627
H         12.19655        -1.23752        -0.21954
H         12.02226         1.14204        -0.15697
H         10.31682         2.75906        -1.13278
H          9.64233         5.49464        -0.11375
H          8.08570         7.58001         1.38674
H          6.92808         9.86807         0.65912
H          4.95889        11.04521        -0.15484
H          2.51344        11.09384        -0.70076
H          0.26477        10.96938         1.14034
H         -2.28104        10.93446         1.47430
H         -4.94242        11.00244         1.33255
H         -7.00583        10.01178         0.56315
H         -8.31022         7.74647         0.59209
H         -9.44546         5.58118         0.78385
H        -10.66747         3.47652         0.51636
H        -11.94441         1.19643         0.32921
H        -11.89455        -1.16837         0.80463
H        -10.57189        -3.51127         0.63552
H         -8.82986        -5.24382        -1.75775
H         -8.34251        -7.60344         0.10408
H         -7.06512        -9.70659         0.93214
H         -5.03698       -10.96391         0.68428
H         -2.42525        -9.40682         2.09607
H         -0.00935       -11.05502         0.77938
H          2.59929       -11.26774         0.33373
H          4.92829       -11.13360         1.06061
H          7.01938        -9.90785         1.27826
H          8.33040        -7.84162         0.60256
H          9.64359        -5.50957         0.18489
H         10.69658        -3.53007        -0.28578
