         349
 CSIRO Nanostructure Databank - Neutral Graphene Oxide Data Set
C          2.74659         2.79789        -4.78381
C          2.42985         4.02705        -4.25230
C          3.92647         2.09352        -4.44048
C          3.39046         4.73671        -3.40213
C          2.03438         6.90351        -3.12482
C          1.87142         8.12969        -2.55131
C          2.97418         5.92774        -2.57513
C          2.80382         8.66902        -1.59106
C          1.51755        10.80700        -1.33786
C          1.46622        12.15160        -1.01172
C          2.70633        10.05381        -1.17496
C          2.58995        12.83595        -0.48772
C          1.62867        15.10374        -0.92430
C          1.68269        16.51599        -0.82250
C          2.57690        14.27891        -0.32559
C          2.72633        17.17275        -0.18240
C          2.82538        18.61933        -0.14123
C          4.81642         2.57559        -3.46423
C          4.61287         3.95731        -2.96866
C          5.90907         1.81957        -3.00260
C          5.28339         4.33760        -1.68763
C          3.99698         6.48503        -1.53931
C          3.93571         7.91788        -1.23386
C          5.24531         5.76133        -1.29003
C          5.09555         8.55240        -0.67817
C          3.83836        10.69141        -0.59760
C          3.77879        12.07893        -0.23421
C          5.05453         9.95408        -0.41681
C          4.96315        12.71343         0.24550
C          3.65535        14.92571         0.43624
C          3.79821        16.40046         0.41132
C          4.91309        14.09544         0.74127
C          4.89916        17.02447         0.94820
C          3.80659        19.24360         0.54630
C          4.82750        18.48077         1.34867
C          6.77388         2.24121        -1.94498
C          6.37884         3.46771        -1.17997
C          7.88690         1.51598        -1.56705
C          7.37297         4.11573        -0.21771
C          6.35005         6.37969        -0.65902
C          6.29592         7.82184        -0.43002
C          7.48339         5.62204        -0.28597
C          7.45795         8.50175        -0.00968
C          6.24473        10.62373        -0.01540
C          6.20242        12.04591         0.23446
C          7.44172         9.90008         0.15627
C          7.41812        12.77925         0.39950
C          6.16163        14.83870         0.89688
C          6.09515        16.24568         1.45570
C          7.35074        14.20613         0.60159
C          7.38349        17.02927         1.26356
C          6.16988        19.16618         1.40356
C          7.35568        18.48648         1.44513
C          8.63482         1.93264        -0.31540
C          8.69795         3.43515        -0.35089
C          9.99120         1.35439        -0.04346
C          9.85983         4.11557        -0.51174
C          8.70555         6.23715         0.29279
C          8.70828         7.75432         0.30669
C         10.02556         5.47279         0.11423
C          9.99776         8.47347         0.12039
C          8.72362        10.59588         0.55844
C          8.67089        12.09991         0.37806
C          9.87848         9.95798        -0.23472
C          9.88042        12.79533         0.43881
C          8.58505        15.00194         0.52360
C          8.55135        16.42302         0.92762
C          9.89312        14.26223         0.47848
C          9.85895        17.17762         0.77202
C          8.62200        19.17607         1.61788
C          9.82957        18.55338         1.40342
C         11.06237         2.10383         0.39599
C         11.08894         3.60021         0.18867
C         12.24875         1.40473         0.77075
C         12.44375         4.11002        -0.33400
C         11.18414         6.31881        -0.46656
C         11.15471         7.77975        -0.03404
C         12.51801         5.63211        -0.18335
C         12.42644         8.52902        -0.17305
C         11.22682        10.76304        -0.17870
C         11.14186        12.11596         0.49609
C         12.35761         9.92598         0.36940
C         12.30384        12.78981         0.85217
C         11.11468        14.94334         0.90220
C         11.00701        16.35700         1.40378
C         12.29616        14.22840         1.04480
C         12.31499        17.09093         1.30933
C         11.09207        19.17703         1.67052
C         12.30014        18.49025         1.56340
C         13.51244         2.01323         0.82941
C         13.65211         3.39579         0.28155
C         14.64214         1.30880         1.24622
C         14.86620         4.17545         0.65176
C         13.68995         6.32026         0.02836
C         13.73301         7.80517        -0.16235
C         14.89850         5.65424         0.51271
C         15.00375         8.64531         0.10674
C         13.52288        10.56012         1.05574
C         13.51909        12.05912         1.39061
C         14.82573         9.76963         1.18957
C         14.81725        12.80359         1.17615
C         13.55021        14.94922         1.14504
C         13.50767        16.36770         1.10831
C         14.80667        14.22089         1.15959
C         14.74163        17.12746         0.82899
C         13.62896        19.15870         1.83835
C         14.67448        18.65488         0.81845
C         15.88038         1.99429         1.64006
C         15.91199         3.51911         1.50120
C         17.16305         1.31051         1.76151
C         17.21577         4.19657         1.57660
C         16.04149         6.33441         0.86852
C         16.19090         7.78177         0.55328
C         17.22294         5.64717         1.41091
C         17.35038         8.52951         1.10698
C         16.06567        10.66615         1.16898
C         16.04921        12.09456         1.22627
C         17.29282        10.00877         1.25139
C         17.29328        12.81289         1.32231
C         16.04277        14.92820         1.22550
C         16.03468        16.38617         0.99613
C         17.28981        14.24981         1.34509
C         17.22403        17.17270         1.41183
C         16.02549        19.30810         0.96251
C         17.22337        18.63285         1.13360
C         18.35899         2.01317         1.93466
C         18.33769         3.46968         1.92138
C         19.62374         1.35294         2.03522
C         19.60687         4.16774         2.16671
C         18.35208         6.35012         1.77043
C         18.34584         7.83456         2.00075
C         19.60584         5.66601         2.12228
C         19.69338         8.49634         1.84188
C         18.49120        10.70690         1.50886
C         18.52720        12.11720         1.48956
C         19.67400         9.98194         2.07898
C         19.80674        12.81686         1.55918
C         18.53308        14.95310         1.42737
C         18.52170        16.42418         1.56258
C         19.79540        14.27235         1.45213
C         19.75750        17.18989         1.37985
C         18.47834        19.28711         1.08391
C         19.71139        18.57832         1.14131
C         20.86474         2.04439         1.98223
C         20.87128         3.47157         1.92679
C         22.12818         1.39096         1.98226
C         22.04457         4.20225         1.65991
C         20.85097         6.33983         1.70231
C         20.84785         7.78737         1.63732
C         21.99766         5.63736         1.44477
C         22.14930         8.45871         1.55914
C         20.98359        10.66428         1.80095
C         21.01624        12.09244         1.66992
C         22.10173         9.84285         1.94508
C         22.32524        12.80318         1.47230
C         21.00345        15.00385         1.41040
C         21.02927        16.47843         1.44867
C         22.29620        14.30016         1.32171
C         22.34406        17.25779         1.11145
C         20.90530        19.24746         0.71169
C         22.13735        18.63039         0.54195
C         23.32126         2.11600         1.83850
C         23.29001         3.52549         1.60169
C         24.59712         1.43656         1.83659
C         24.48594         4.26019         1.24564
C         23.13122         6.32888         0.71822
C         23.30484         7.80970         1.10161
C         24.42514         5.55872         0.80311
C         24.51158         8.47737         0.59127
C         23.81536        10.81886         1.16406
C         23.44509        12.09719         0.77997
C         24.59676         9.89421         0.43332
C         24.36445        12.81402        -0.11817
C         23.43656        14.99490         0.64514
C         23.50458        16.40164         0.70006
C         24.53566        14.27375         0.11815
C         24.72984        16.98323         0.34238
C         23.05190        19.28370        -0.36610
C         24.40876        18.99936        -0.42814
C         25.77442         2.08154         1.56039
C         25.83841         3.60195         1.43142
C         27.01960         1.35113         1.48278
C         26.82350         4.02712         0.36230
C         25.55650         6.21583         0.09191
C         25.58023         7.68798         0.01765
C         26.79630         5.40473        -0.23898
C         26.73070         8.28806        -0.58094
C         25.39231        10.44652        -0.73820
C         25.43988        12.00836        -0.78364
C         26.72447         9.72396        -0.80668
C         26.76845        12.67535        -0.84092
C         25.70259        14.92000        -0.35626
C         25.77073        16.32176        -0.31810
C         27.00757        14.15527        -0.49706
C         26.93109        17.11813        -0.91043
C         25.32453        19.17140        -1.48583
C         26.50641        18.40804        -1.67297
C         28.06277         1.89462         0.75970
C         27.75376         3.10443         0.01118
C         29.42952         1.41701         0.78574
C         29.54845         4.17227        -0.50617
C         28.05652         6.17365        -0.54953
C         27.94762         7.57793        -0.77106
C         29.33812         5.57851        -0.56837
C         29.16801         8.23416        -1.42471
C         27.86484        10.42605        -1.09232
C         27.83621        11.84311        -0.79136
C         29.10325         9.77402        -1.60047
C         29.60782        12.90237        -1.51922
C         28.00047        14.86506        -1.45465
C         27.81815        16.19484        -1.76169
C         29.16867        14.14939        -2.01700
C         28.55510        16.78597        -2.90329
C         27.40256        18.94514        -2.60519
C         28.50838        18.24177        -3.13603
C         30.55389         2.18751         0.58373
C         30.59683         3.58084         0.20161
C         31.64151         4.47969         0.67685
C         30.65572         6.30969        -0.69631
C         30.49842         7.80117        -0.82831
C         31.65412         5.78606         0.31900
C         31.64901         8.56060        -1.08432
C         30.38808        10.53987        -1.92705
C         30.48397        12.03214        -2.16804
C         31.63984         9.82250        -1.66510
C         31.22255        12.55992        -3.24002
C         29.98375        14.66923        -3.05658
C         29.67704        16.01141        -3.59725
C         31.02590        13.89320        -3.60314
C         30.70501        16.79801        -4.29222
C         29.42098        18.84859        -3.99402
C         30.53418        18.13624        -4.51937
O         15.50212        16.68327        -0.35232
O         13.10924         8.24660        -1.42851
O         29.05658        12.37827        -0.34372
O          5.03150         3.37096        -0.59238
O         28.33050        16.06828        -4.17378
O          4.71935         4.96841        -4.01891
O         15.51557         2.94614         2.75878
O         17.39122         8.04557        -0.27834
O         12.43858         9.91338         1.82244
O         22.73225        13.66148         2.59729
O         19.62776         4.98052         3.41748
O          8.57710         6.97575         1.54740
O         29.45369        10.06555        -3.00350
O         10.68646         4.65771         1.25946
O         25.75078         5.58352        -1.25295
O         24.33276        12.53523        -1.59641
O          2.80778         5.68750        -1.15621
O         23.29931        10.38464         2.39540
O         28.57897         3.35430        -1.09073
O          3.89540        14.35488         1.77551
O          9.28347        14.83780        -0.78117
O         24.93680        18.32004         0.68805
O         17.68987        16.85104         2.75340
O         14.79026         3.48465        -0.65921
O         21.93841        17.06262         2.47657
O          8.99323        10.33932         1.95816
H          8.18417        10.53221         2.47525
O         29.19426         7.62360        -2.75916
H         29.41441         8.36005        -3.38725
O          6.87454         3.88301         1.14183
H          5.88903         3.84934         1.05914
O         14.80999         9.08261         2.45612
H         14.52869         9.71414         3.15110
O         12.46001         3.82858        -1.74854
H         13.40387         3.84310        -2.02983
O          9.42827         9.94633        -1.60664
H         10.19163         9.68521        -2.16872
O         27.54793        14.21827         0.84940
H         28.39578        13.71637         0.84541
O         27.77555        17.57346         0.17854
H         27.19093        18.04166         0.81466
O         10.12746        17.37920        -0.62991
H          9.93393        16.52307        -1.08742
O         11.61932        11.07164        -1.54056
H         11.00556        11.75316        -1.88897
O          4.35479        18.46734         2.74530
H          4.91882        17.80276         3.21237
O         24.70643        10.01890        -1.94683
H         24.17622        10.79320        -2.25513
O          7.84285         1.45695         0.81533
H          7.47586         2.24978         1.28673
O         31.19167         5.89746        -2.00676
H         30.55423         6.26462        -2.67006
O          5.88489        16.09511         2.90724
H          5.11540        15.48170         2.99926
O         22.73094         6.32489        -0.69082
H         23.53800         6.44245        -1.23887
O         19.52398        10.12543         3.54942
H         19.54414        11.08608         3.75146
O         15.34438         9.32096        -1.10728
H         16.25305         9.03098        -1.36211
O         17.87953         8.02857         3.36014
H         18.63756         7.91179         3.97071
O         10.99274         6.38443        -1.90201
H         11.76161         6.88500        -2.26407
O         10.66191        16.24065         2.82354
H         11.44438        15.89157         3.30078
O         13.32784        12.11535         2.84657
H         12.60233        11.47896         3.04986
O         14.04520        18.80208         3.15960
H         14.92629        19.19800         3.32455
O         26.34936         4.09815         2.71418
H         25.73574         3.79412         3.41602
O         14.15912        19.04064        -0.48019
H         14.65029        18.51306        -1.14795
H          2.02797         2.30876        -5.45725
H          1.43981         4.46977        -4.43127
H          4.09615         1.09630        -4.87111
H          1.45570         6.63457        -4.02057
H          1.10836         8.80314        -2.96629
H          0.61330        10.32311        -1.73127
H          0.52475        12.69628        -1.16668
H          0.80914        14.66141        -1.50766
H          0.88805        17.10840        -1.29830
H          2.06959        19.20361        -0.68803
H          6.09949         0.83950        -3.46612
H          3.84505        20.34286         0.58069
H          8.16799         0.60915        -2.12435
H          6.17043        20.26056         1.52598
H         10.06653         0.25657         0.00816
H          8.59705        20.21586         1.98054
H         12.16800         0.33189         1.00282
H         11.10170        20.23426         1.97968
H         14.54752         0.23474         1.46924
H         13.53079        20.27668         1.75393
H         17.18917         0.22158         1.60770
H         16.06205        20.38921         0.75456
H         19.63572         0.25344         2.07555
H         18.50390        20.36810         0.88252
H         22.17318         0.29739         2.09215
H         20.78781        20.27338         0.33084
H         24.60197         0.34555         1.98548
H         22.62230        19.99025        -1.09240
H         27.11530         0.37697         1.98587
H         25.08852        19.91946        -2.25939
H         29.58257         0.40417         1.19151
H         27.21303        19.96156        -2.98547
H         31.51864         1.73413         0.86585
H         32.40922         4.07969         1.35605
H         32.46051         6.44950         0.66458
H         32.62438         8.11547        -0.83349
H         32.58643        10.36687        -1.79083
H         31.93400        11.93346        -3.79471
H         31.62929        14.30859        -4.42144
H         31.63837        16.30804        -4.60251
H         29.32647        19.92410        -4.20140
H         31.29917        18.69378        -5.07847
