         244
 CSIRO Nanostructure Databank - Neutral Graphene Oxide Data Set
C          1.14417         2.26835        -0.11387
C          1.15950         3.47502        -0.75673
C          2.34202         1.60009         0.24130
C          2.43643         4.15415        -1.16094
C          1.26615         6.38008        -0.68763
C          1.27639         7.75271        -0.50997
C          2.46626         5.65583        -0.83495
C          2.48745         8.48337        -0.45640
C          1.27639        10.66193        -0.26150
C          1.26254        12.02517        -0.11677
C          2.49457         9.91923        -0.29732
C          2.47043        12.77376         0.05466
C          1.24620        14.96821         0.15712
C          1.23129        16.32323         0.24982
C          2.43876        14.16632         0.28378
C          2.40281        17.17035         0.69430
C          2.48173        18.48749        -0.03575
C          3.59505         2.19950        -0.00757
C          3.65936         3.45318        -0.60676
C          4.83594         1.41555         0.37136
C          4.95218         4.11418        -0.81209
C          3.68283         6.35998        -0.78113
C          3.71677         7.76933        -0.56806
C          4.96259         5.63961        -0.93854
C          4.97296         8.48247        -0.49893
C          3.72554        10.61851        -0.19461
C          3.72435        12.04498         0.01154
C          4.96518         9.90044        -0.29989
C          4.95149        12.73869         0.10711
C          3.70007        14.86205         0.56299
C          3.72086        16.39548         0.67660
C          4.96188        14.16325         0.28692
C          4.95730        17.04979         0.22881
C          3.64818        19.10369        -0.30972
C          4.94149        18.45899        -0.12952
C          6.14860         2.11530         0.09298
C          6.18635         3.46047        -0.35426
C          7.34102         1.43825         0.32153
C          7.40419         4.17584        -0.39404
C          6.22966         6.34225        -0.68318
C          6.21338         7.78261        -0.57871
C          7.40691         5.60579        -0.58698
C          7.45877         8.48517        -0.47886
C          6.20225        10.61361        -0.21322
C          6.20306        12.02895        -0.01849
C          7.45082         9.92628        -0.30718
C          7.42695        12.72623         0.06434
C          6.14916        14.89661         0.26647
C          6.13302        16.31720         0.12734
C          7.44257        14.16734         0.49106
C          7.36726        16.97575        -0.44395
C          6.12088        19.15357        -0.29603
C          7.40187        18.48423        -0.31623
C          8.59215         2.09869         0.20037
C          8.62348         3.48817        -0.09067
C          9.82258         1.40533         0.42798
C          9.87257         4.19430         0.00679
C          8.72601         6.30643        -0.74863
C          8.67706         7.77560        -0.45630
C          9.90374         5.60366        -0.13123
C          9.90865         8.44847        -0.21724
C          8.66283        10.64322        -0.24468
C          8.66206        12.05065        -0.07052
C          9.95894         9.91557        -0.52768
C          9.90682        12.80705        -0.08192
C          8.67819        14.93032         0.09173
C          8.64350        16.28669        -0.03136
C          9.92638        14.19366         0.00596
C          9.88113        17.11769         0.14884
C          8.58264        19.15006        -0.47641
C          9.87027        18.39055        -0.70965
C         11.03394         2.06750         0.44639
C         11.07325         3.49095         0.29817
C         12.30021         1.28829         0.71091
C         12.30930         4.21309         0.39395
C         11.07259         6.32256         0.17215
C         11.06081         7.76386         0.15054
C         12.30154         5.62481         0.40047
C         12.22939         8.48504         0.78459
C         11.16728        10.60214         0.04445
C         11.17511        12.05539        -0.24441
C         12.28028         9.95386         0.45018
C         12.48044        12.76287        -0.23608
C         11.15455        14.96063        -0.13289
C         11.15555        16.33933        -0.04278
C         12.43791        14.25520        -0.31205
C         12.38150        17.10528         0.03260
C         11.12339        19.18702        -0.46994
C         12.32724        18.58022        -0.08074
C         13.57002         2.06557         0.44962
C         13.56012         3.49708         0.41070
C         14.75841         1.37407         0.31771
C         14.77970         4.21455         0.31621
C         13.54597         6.36553         0.49289
C         13.54963         7.77084         0.59286
C         14.77951         5.65379         0.38916
C         14.77734         8.49625         0.74749
C         13.51331        10.70801         0.90566
C         13.68830        12.07606         0.27263
C         14.78575         9.91148         0.80903
C         14.89488        12.77485         0.42260
C         13.69001        15.01960        -0.01501
C         13.58160        16.46472         0.23308
C         14.85607        14.26114         0.52510
C         14.86798        17.23608         0.24190
C         13.49640        19.32221         0.15462
C         14.70157        18.67779         0.79422
C         16.00057         2.05979         0.15723
C         16.01022         3.48738         0.19939
C         17.20452         1.36065        -0.08529
C         17.25298         4.17329         0.10966
C         16.00732         6.38029         0.46155
C         16.01228         7.74827         0.75028
C         17.26897         5.67788        -0.00270
C         17.30122         8.38809         1.27980
C         16.03371        10.67348         1.03554
C         16.11298        12.13160         0.76321
C         17.30717         9.92311         1.26835
C         17.37344        12.83729         0.89538
C         16.08068        15.01216         0.92605
C         16.04385        16.51250         0.88346
C         17.39666        14.32004         0.89910
C         17.30719        17.29485         0.91626
C         15.99855        19.39346         0.48335
C         17.20916        18.71083         0.43383
C         18.41773         2.04899        -0.23812
C         18.43840         3.47118        -0.07333
C         19.61421         1.38306        -0.68073
C         19.79674         4.13933         0.00534
C         18.55720         6.25022         0.63166
C         18.47695         7.76525         0.53426
C         19.75005         5.64141        -0.05879
C         19.67948         8.53464         0.11068
C         18.60857        10.66410         1.10949
C         18.57495        12.14171         1.00795
C         19.82604         9.94779         0.58298
C         19.93333        12.81960         1.11156
C         18.55841        15.04472         0.89854
C         18.65895        16.58434         1.02086
C         19.87291        14.34592         0.89747
C         19.66851        17.16678         0.04197
C         18.36271        19.28560        -0.13611
C         19.51983        18.50732        -0.42675
C         20.72828         2.10054        -1.08661
C         20.80635         3.50010        -0.90644
C         21.86268         4.29237        -1.40148
C         20.83107         6.37335        -0.53832
C         20.88678         7.81802        -0.36668
C         21.90038         5.66109        -1.19846
C         21.98403         8.60119        -0.71257
C         20.96028        10.73808         0.03660
C         20.97571        12.13425         0.21121
C         21.99852        10.00200        -0.58003
C         22.08250        12.89726        -0.28780
C         21.02859        15.07142         0.24609
C         20.80997        16.43504        -0.32232
C         22.14324        14.25480        -0.27123
C         21.76322        17.00620        -1.18876
C         20.52345        19.07265        -1.25656
C         21.62098        18.32043        -1.64502
O         13.31037        14.71946        -1.40355
O          5.05830         4.77650        -2.13410
O         19.62993        10.11063         2.02004
O         20.88562        15.02703         1.71263
O         11.90385        12.24587        -1.53190
O          3.81410        15.56815         1.87597
O         16.52101        17.08022         2.14762
O         16.57440        10.41909         2.43139
O         18.53860         8.30567        -0.81673
O         15.11955        14.56548         1.94995
O          2.49661         4.07262        -2.62592
H          3.40367         4.37970        -2.87795
O          9.84873        17.58468         1.52950
H          9.79881        16.80101         2.11653
O         13.27992        10.95260         2.35788
H         14.11700        11.31040         2.73008
O          4.80202         0.13566        -0.28125
H          4.79303         0.28758        -1.24856
O         17.36796         5.96814        -1.42547
H         16.50980         5.74686        -1.84341
O          7.29703        16.72795        -1.89370
H          8.15057        17.06347        -2.26865
O         18.61737         5.82087         2.01128
H         18.09331         6.45115         2.56857
O         12.30541         0.84582         2.08690
H         12.32976         1.64011         2.65931
O          7.57159        14.11183         1.97149
H          6.73016        13.74994         2.32470
O         11.96643         8.43453         2.23484
H         12.43796         9.20723         2.63362
O         14.43328        18.66515         2.21669
H         15.18035        18.18698         2.65195
O         20.29857         3.83873         1.36547
H         19.75655         4.38838         1.98521
O         15.25649        17.34237        -1.16353
H         14.45638        17.56141        -1.68723
O         19.15668        16.87363         2.34632
H         18.40948        16.72608         2.96769
O          9.86517        17.93699        -2.11196
H          9.96030        18.72872        -2.68251
O          9.00348         6.23006        -2.21150
H          8.34811         6.80568        -2.66182
O         20.40086        12.61003         2.46752
H         20.97154        13.38320         2.68819
O         10.13083         9.97237        -1.98875
H         10.65979        10.77533        -2.20197
O          2.11559        17.51636         2.08300
H          2.47107        16.77167         2.62293
O         17.37677         8.01350         2.68073
H         16.94629         8.74159         3.19182
H          0.18217         1.78568         0.11286
H          0.20973         3.91281        -1.09430
H          2.30220         0.60456         0.70294
H          0.29966         5.86087        -0.72251
H          0.31303         8.26871        -0.41012
H          0.31539        10.14145        -0.36270
H          0.29452        12.54247        -0.09581
H          0.30243        14.46139        -0.09179
H          0.27270        16.85051         0.12820
H          1.53032        19.00941        -0.21955
H          4.79229         1.19816         1.47457
H          3.64498        20.11495        -0.74508
H          7.31413         0.37977         0.61773
H          6.09124        20.24137        -0.46335
H          9.79409         0.31952         0.60202
H          8.59706        20.25197        -0.49812
H         12.29910         0.35606         0.08869
H         11.09133        20.28143        -0.59291
H         14.75476         0.27411         0.33389
H         13.46572        20.41879         0.05909
H         17.18160         0.26517        -0.18512
H         15.97440        20.44875         0.16817
H         19.58556         0.29249        -0.82089
H         18.31558        20.31885        -0.51115
H         21.56180         1.57765        -1.57993
H         22.67035         3.80965        -1.97233
H         22.75338         6.22742        -1.59576
H         22.88481         8.12653        -1.12574
H         22.89726        10.52139        -0.93712
H         22.93300        12.35953        -0.72956
H         23.04104        14.75187        -0.66219
H         22.64697        16.43432        -1.49877
H         20.40543        20.10811        -1.60614
H         22.38590        18.75484        -2.30317
