         651
 CSIRO Nanostructure Databank - Neutral Graphene Oxide Data Set
C          5.87214        31.64380         0.69151
C          5.84563        32.96806         0.43882
C          8.38669        27.43368         1.52151
C          8.34916        28.75296         0.99903
C          7.18376        29.48995         1.08143
C          8.32215        31.45575        -0.07210
C          7.04014        30.78377         0.40474
C          8.29086        32.92458        -0.34550
C          6.99297        33.70625        -0.13442
C          8.27110        35.88454        -0.05898
C          7.07787        35.15311         0.06316
C          8.26512        37.26425         0.18816
C         10.80856        23.21746         1.86923
C         10.78996        24.59141         2.08496
C          9.58736        25.33735         1.94386
C         10.83631        27.39267         1.29015
C          9.58383        26.69882         1.58798
C         10.86233        28.66284         0.77147
C          9.57700        29.27226         0.24338
C         10.78726        31.49377         0.31634
C          9.61161        30.79052         0.22195
C         10.75041        33.01006         0.45315
C          9.59350        33.66604        -0.29868
C         10.82638        35.86745         0.04950
C          9.56226        35.16379        -0.26948
C         10.76744        37.33871         0.01828
C          9.50876        38.03863         0.51184
C         10.69960        40.22590         0.26471
C          9.54003        39.49489         0.10554
C         10.74147        41.64347         0.12076
C         13.33635        19.15448         0.26738
C         13.32210        20.65261         0.49943
C         12.05200        21.26131         1.06214
C         13.29056        23.11937         2.20427
C         12.03336        22.48140         1.69873
C         13.33750        24.60598         2.59841
C         12.04450        25.35733         2.29837
C         13.37823        27.27818         1.20276
C         12.08131        26.76934         1.79344
C         13.36861        28.77719         1.01021
C         12.11151        29.41827         0.68897
C         13.29427        31.56817         0.26535
C         12.05226        30.79813         0.44625
C         13.24799        33.05425         0.21175
C         12.06489        33.73055         0.21039
C         13.28638        35.93717         0.21846
C         12.02642        35.19630         0.13556
C         13.29102        37.34999         0.29387
C         12.03512        38.10370         0.14178
C         13.23117        40.24914         0.53216
C         11.94028        39.49329         0.77010
C         13.17767        41.63882         0.41154
C         11.94221        42.37453         0.24949
C         13.14157        44.57284         0.28189
C         11.97336        43.79696         0.09913
C         13.23522        45.94880         0.04964
C         15.76622        15.00143        -0.87087
C         15.75900        16.34899        -0.40800
C         14.54463        17.06963        -0.28052
C         15.84773        19.17202         0.10322
C         14.51132        18.44968         0.07196
C         15.80231        20.34128         1.05160
C         14.53640        21.05791         1.30841
C         15.84276        23.21020         1.89697
C         14.58208        22.42587         1.92990
C         15.85712        24.56773         2.17154
C         14.61277        25.32533         2.15725
C         15.82264        27.47590         1.88003
C         14.62161        26.67955         1.84546
C         15.78032        28.82788         1.53194
C         14.56982        29.47851         1.08993
C         15.75662        31.77345         0.96409
C         14.60471        30.89094         0.63740
C         15.73829        33.09741         0.63802
C         14.56351        33.75686        -0.07685
C         15.72479        35.98533         0.29512
C         14.52268        35.25427         0.17547
C         15.71426        37.36459         0.55760
C         14.48768        38.07528         0.51354
C         15.72331        40.22416         0.56201
C         14.46216        39.52883         0.55047
C         15.73049        41.69709         0.38234
C         14.42807        42.41173         0.30414
C         15.62772        44.58096         1.03751
C         14.36335        43.84691         0.72177
C         15.60079        46.08684         0.97836
C         14.42324        46.72386         0.30630
C         15.63357        48.95672         0.41283
C         14.48125        48.06302         0.00572
C         15.71483        50.18534        -0.44286
C         18.20523        11.28929        -2.90275
C         18.19692        12.43546        -2.19824
C         16.95678        12.83366        -1.41524
C         18.18709        14.88848        -0.64452
C         16.95361        14.29082        -1.00875
C         18.20264        16.16280        -0.06480
C         17.01016        16.93062         0.00754
C         18.20553        18.88642         0.93563
C         17.04763        18.29605         0.43991
C         18.24007        20.30959         1.23629
C         17.08056        21.04070         1.28421
C         18.38281        23.22508         1.54390
C         17.06202        22.50722         1.44725
C         18.40138        24.54311         2.20624
C         17.13675        25.28781         2.41885
C         18.34775        27.60642         2.05993
C         17.10249        26.86545         2.35946
C         18.28309        28.92439         1.56694
C         16.99060        29.65437         1.91792
C         18.29209        31.75536         1.08884
C         16.99654        31.11127         1.47368
C         18.17522        33.02645         0.27142
C         17.01128        33.91497         0.78975
C         18.28818        35.97969         0.39898
C         17.01332        35.24932         0.01179
C         18.27789        37.42127         0.61677
C         16.96162        38.07114         1.02944
C         18.15871        40.31154         0.95930
C         16.91259        39.55462         0.77458
C         18.16211        41.75425         0.75648
C         16.95679        42.47639         0.69208
C         18.17273        44.59089         1.13136
C         16.91895        43.86536         0.88832
C         18.20420        46.12223         1.22395
C         16.90390        46.86383         1.06745
C         18.16066        48.82649         0.17552
C         16.95220        48.21530         0.47816
C         18.17837        50.16048        -0.39754
C         16.90951        50.77473        -0.77862
C         18.12241        52.67980        -1.77994
C         16.93740        52.02354        -1.49615
C         18.13240        53.98694        -2.36784
C         20.63664         7.41686        -4.66816
C         20.60714         8.82064        -4.43607
C         19.42674         9.47777        -4.14721
C         20.66056        11.67077        -3.60386
C         19.36046        10.88575        -3.73857
C         20.71022        12.72169        -2.56134
C         19.38656        13.38155        -2.20306
C         20.72741        14.88596        -0.66436
C         19.45302        14.09157        -0.84314
C         20.75045        16.06879         0.09595
C         19.45898        16.67175         0.52746
C         20.74862        18.76650         1.16007
C         19.45258        18.09837         1.07661
C         20.80938        20.14234         1.63236
C         19.50451        20.95054         1.66465
C         20.84622        23.01983         1.86266
C         19.61072        22.40910         1.66684
C         20.89071        24.45024         2.08926
C         19.64482        25.00450         2.56562
C         20.81016        27.46945         1.65765
C         19.66246        27.10667         2.33963
C         20.68764        28.70711         0.78984
C         19.47139        29.54608         1.14206
C         20.73567        31.59388         0.67489
C         19.52733        30.94741         0.92626
C         20.76457        33.03767         0.34987
C         19.49138        33.80924         0.19122
C         20.73356        35.93644         0.84948
C         19.45771        35.27636         0.45874
C         20.79314        37.46183         0.95550
C         19.45529        38.11491         0.65369
C         20.71486        40.32968         0.50044
C         19.49419        39.57976         0.86733
C         20.70784        41.70814         0.54912
C         19.42857        42.43684         0.56430
C         20.71486        44.64064         0.84179
C         19.43085        43.94135         0.67766
C         20.67468        46.06062         0.83232
C         19.46801        46.78874         0.84319
C         20.63488        48.87301         0.20615
C         19.43703        48.16224         0.41074
C         20.64196        50.19725        -0.29480
C         19.38011        50.82462        -0.63224
C         20.57305        52.75439        -1.58694
C         19.39268        52.10189        -1.33671
C         20.61852        53.89367        -2.57085
C         19.31768        54.66217        -2.64317
C         20.53985        56.69621        -3.31934
C         19.33469        56.00248        -3.08915
C         20.52423        58.08737        -3.60262
C         23.01496         4.56166        -4.99705
C         21.82472         5.30012        -4.97236
C         23.11852         7.39894        -4.69471
C         21.83873         6.70481        -4.79845
C         23.15098         8.76797        -4.49653
C         21.89616         9.55426        -4.48324
C         23.23658        11.61643        -3.60807
C         21.93339        11.00390        -4.05382
C         23.19746        12.77772        -2.65315
C         21.89498        13.21583        -2.08246
C         23.17771        14.84822        -0.68830
C         21.93691        14.31959        -1.12372
C         23.20341        16.04628         0.08071
C         21.98258        16.68224         0.41421
C         23.25883        18.75624         1.07369
C         21.99974        17.94003         1.26088
C         23.27599        20.15177         1.28585
C         22.07409        20.88391         1.55589
C         23.29084        23.03865         1.65591
C         22.07491        22.27966         1.72494
C         23.28067        24.46971         1.66523
C         22.04918        25.21596         1.86440
C         23.21618        27.30232         1.19292
C         22.05319        26.68614         1.64769
C         23.23282        28.70101         0.60531
C         21.97382        29.49297         0.84794
C         23.25226        31.61433         1.05583
C         21.97795        30.85767         0.77456
C         23.21355        33.04528         0.58033
C         22.05329        33.74176         0.50056
C         23.29402        35.97425         0.54809
C         22.02733        35.21352         0.69071
C         23.29315        37.42419         0.34119
C         21.96702        38.09641         0.20005
C         23.18941        40.38617        -0.19898
C         21.91869        39.59665         0.01957
C         23.12700        41.84548         0.04077
C         21.91797        42.48951         0.43523
C         23.20724        44.58919         0.82440
C         21.90796        43.89603         0.65771
C         23.20970        46.10476         0.80603
C         21.92258        46.76121         0.35224
C         23.18632        48.86979         0.08996
C         21.93319        48.24541         0.67081
C         23.11163        50.17206        -0.43921
C         21.88010        50.85065        -0.57203
C         23.09665        52.93521        -1.44134
C         21.83027        52.33430        -0.87807
C         23.10479        54.17464        -2.05904
C         21.84752        54.76773        -2.48462
C         23.05969        56.70066        -3.41023
C         21.80251        56.02260        -3.04802
C         22.99867        58.19114        -3.78293
C         21.69138        58.86386        -3.69346
C         22.88147        61.00160        -3.68531
C         21.68551        60.27630        -3.68598
C         24.24423         5.18485        -4.84449
C         25.57735         7.20666        -4.49404
C         24.34352         6.60593        -4.70122
C         25.72739         8.65380        -4.43932
C         24.42568         9.50690        -4.43490
C         25.67211        11.30429        -3.24424
C         24.48898        10.81840        -3.74093
C         25.73626        12.68163        -2.60127
C         24.44718        13.16041        -1.95299
C         25.62767        14.53827        -0.17224
C         24.42837        14.17710        -1.03783
C         25.71355        16.01425         0.13921
C         24.47417        16.69139         0.41317
C         25.73179        18.74981         1.03727
C         24.46147        18.03494         0.84610
C         25.71006        20.21913         1.00906
C         24.51879        20.89885         1.21197
C         25.71115        23.06302         1.48509
C         24.50800        22.33943         1.43141
C         25.72897        24.47517         1.52666
C         24.50487        25.16208         1.50033
C         25.76957        27.32940         1.13351
C         24.48880        26.54154         0.91519
C         25.77197        28.73683         0.96601
C         24.53101        29.45883         0.84909
C         25.77678        31.56168         0.76558
C         24.53531        30.84762         0.80225
C         25.77760        33.03368         0.51543
C         24.48199        33.77750         0.45064
C         25.76029        35.92369         0.53375
C         24.45687        35.25134         0.56348
C         25.77159        37.42284         0.43547
C         24.47425        38.13526         0.28611
C         25.82367        40.27183         0.33513
C         24.56511        39.58845        -0.03447
C         26.09038        41.60277        -0.02728
C         24.24872        42.67176        -0.20844
C         25.70677        44.61862         0.43941
C         24.43946        43.94139         0.36063
C         25.68575        46.04126         0.57062
C         24.47799        46.78107         0.51332
C         25.66046        48.88702        -0.05984
C         24.42659        48.17836         0.19488
C         25.64498        50.17054        -0.56913
C         24.35345        50.75971        -1.06931
C         25.65436        52.97135        -1.36539
C         24.34913        52.27891        -1.04660
C         25.60297        54.28067        -2.02651
C         24.36142        54.87770        -2.31645
C         25.51672        56.90851        -3.16725
C         24.34051        56.15598        -2.96172
C         25.45706        58.27450        -3.49644
C         24.23683        58.96833        -3.64329
C         24.13310        60.37403        -3.64296
C         26.92413         9.26331        -3.86677
C         28.17089        11.15881        -2.98877
C         26.92808        10.56523        -3.39234
C         28.23116        12.32134        -2.21596
C         26.93765        12.83298        -1.69211
C         28.22257        14.63807        -0.47426
C         26.94261        13.91425        -0.65224
C         28.21612        15.96776        -0.03574
C         26.95441        16.62041         0.29683
C         28.22644        18.81870         0.33277
C         27.02357        18.00602         0.78961
C         28.26400        20.20447         0.93255
C         26.98066        20.94170         0.86895
C         28.22966        23.01009         1.78060
C         26.98422        22.39970         1.18414
C         28.21766        24.52089         1.61881
C         27.00183        25.19698         1.46673
C         28.24096        27.32821         1.25350
C         26.98908        26.62650         1.29829
C         28.25227        28.74559         1.10852
C         27.02262        29.45678         0.98093
C         28.27575        31.63210         0.68962
C         26.99244        30.88489         0.82133
C         28.33198        33.16219         0.76735
C         26.97960        33.81261         0.90101
C         28.07325        35.91587         1.60343
C         26.92686        35.16270         1.05106
C         28.12068        37.41549         1.45559
C         26.95717        38.14978         0.90243
C         28.15760        40.25013         1.15612
C         26.95078        39.55368         0.90263
C         28.14710        41.74170         1.38800
C         27.07384        42.43595         0.53543
C         28.17583        44.59599         0.76713
C         26.98557        43.87501         0.51023
C         28.22698        46.04988         0.78183
C         26.92326        46.83937         0.93521
C         28.20200        48.81486        -0.32767
C         26.95775        48.24057         0.29963
C         28.02659        49.94451        -1.31580
C         26.85847        50.82436        -1.02268
C         28.04734        52.72847        -2.05441
C         26.86554        52.14840        -1.50654
C         28.00391        54.10362        -2.47338
C         26.83917        54.85296        -2.46940
C         26.87954        56.30423        -2.89460
C         29.42987        12.85726        -1.72316
C         30.67901        14.68049        -0.65579
C         29.45363        14.03569        -0.92055
C         30.71638        15.99352        -0.12751
C         29.47039        16.67069         0.10104
C         30.71704        18.70749         0.67877
C         29.50971        18.04201         0.45932
C         30.70597        20.09561         1.18939
C         29.43280        20.85841         1.14759
C         30.74953        22.98289         1.69346
C         29.48114        22.37630         1.13379
C         30.73613        24.47981         1.82935
C         29.45773        25.22546         1.60256
C         30.78519        27.28619         1.06563
C         29.46919        26.59976         1.36849
C         30.72778        28.77709         1.27965
C         29.53259        29.44082         1.17707
C         30.70825        31.68123         1.48195
C         29.54840        30.91230         0.98017
C         30.55222        32.99636         1.94802
C         29.36470        33.71387         1.72915
C         30.68418        35.94279         1.77729
C         29.35101        35.18513         1.89654
C         30.65250        37.37013         1.34866
C         29.45118        38.05938         1.32922
C         30.69189        40.19627         0.70651
C         29.39770        39.48435         0.94839
C         30.72840        41.66722         0.80085
C         29.51245        42.40898         1.19072
C         30.65593        44.43508         0.17007
C         29.48126        43.88982         0.92206
C         30.63086        45.85031        -0.28766
C         29.51173        46.72380         0.17868
C         30.56281        48.55694        -1.13368
C         29.43463        48.02344        -0.44927
C         30.49495        49.89683        -1.65232
C         29.30844        50.63234        -1.68959
C         29.24454        51.97418        -2.12623
C         31.94065        16.69371         0.05142
C         33.19781        18.78802         0.51691
C         31.97047        18.04142         0.45955
C         33.24689        20.15671         0.80593
C         32.01969        20.84255         1.26786
C         33.18021        23.04115         1.19705
C         32.02290        22.31668         1.35894
C         33.16452        24.49723         1.31402
C         32.02156        25.17906         1.62362
C         33.27157        27.38745         1.55725
C         31.96383        26.67123         1.82696
C         33.29463        28.79602         1.62701
C         32.02402        29.50222         1.29777
C         33.19872        31.67448         1.97362
C         32.01277        31.00576         1.39276
C         32.97378        32.89758         2.48977
C         31.75124        33.75369         2.49352
C         33.23805        35.81306         1.31523
C         31.89496        35.01594         1.51001
C         33.18897        37.28450         0.94679
C         31.91073        38.05776         1.04481
C         33.15855        40.10722         0.26401
C         31.93983        39.40975         0.81316
C         33.19731        41.58716         0.60640
C         31.92699        42.35690         0.55892
C         33.14949        44.41369        -0.14426
C         31.95074        43.74171         0.28298
C         33.08276        45.77352        -0.61930
C         31.90011        46.51612        -0.67009
C         31.80167        47.85106        -1.12289
C         34.42631        20.93587         0.71668
C         35.64012        23.06416         0.90114
C         34.43449        22.33600         0.92198
C         35.67793        24.47783         1.00579
C         34.39034        25.25360         0.85544
C         35.69303        27.37152         1.39094
C         34.46555        26.67600         1.37434
C         35.72687        28.75895         1.69248
C         34.52128        29.49484         1.76486
C         35.77407        31.75073         1.74014
C         34.53666        30.95705         2.22942
C         35.92028        33.11561         1.78048
C         34.85227        34.02262         2.16900
C         35.74984        35.88244         0.92133
C         34.60085        35.22499         1.55014
C         35.68600        37.27938         0.62200
C         34.47574        38.03642         0.78785
C         35.66539        40.10001         0.12666
C         34.46266        39.39726         0.52146
C         35.62479        41.48220        -0.16710
C         34.50277        42.32656         0.22012
C         34.36722        43.71656        -0.19173
C         36.87085        25.18085         1.02169
C         38.13173        27.26071         1.04732
C         36.92973        26.61785         1.14390
C         38.33827        28.70979         1.37571
C         37.04355        29.46784         1.73596
C         38.14946        31.61072         0.81655
C         37.03183        30.96111         1.55536
C         38.16442        32.97254         0.64302
C         37.20357        33.83191         1.41786
C         38.08201        35.81761         0.15585
C         36.96418        35.19122         0.78708
C         38.02758        37.18382        -0.13904
C         36.86399        37.94791         0.14709
C         36.84077        39.34308        -0.07685
C         39.16049        29.41723         0.32149
C         40.15686        31.44346        -0.64509
C         39.15264        30.77826         0.16471
C         40.20146        32.79759        -0.75557
C         39.20240        33.63102        -0.12539
C         39.20170        35.00749        -0.26409
O         17.05384        26.12738         3.60289
O         27.72210        36.78313         2.73749
O         21.93233        10.66098        -5.46275
O         29.80093        43.40285         2.26036
O         26.58728        18.21883         2.15087
O         11.78986        39.31843         2.17036
O         17.79705        31.87799         2.46267
O         17.68410        23.17075         0.25310
O         25.27180        42.17615        -1.01359
O         27.27194        49.55532        -2.48769
O         19.74060        11.93904        -4.70937
O         23.97435        39.94392        -1.32031
O         25.21388        33.38246        -0.79388
O         26.08290        36.56709        -0.74990
O         19.35686        16.89902         1.97125
O         21.36678        35.36017         2.05331
O         33.17845        36.25924        -0.10688
O         14.18871        31.01069        -0.78072
O         37.32208        30.34410         2.88333
O         20.04293        20.34362         2.88986
O         19.76046        26.14823         3.35841
O          7.47213        30.71703        -1.01005
O         23.06567        57.15137        -4.80579
O         26.87485        12.47529        -0.27733
O         27.00378        21.97117        -0.21561
O         30.02943        35.73729         3.05257
O         20.23005        33.40645        -1.00609
O         32.23057        30.34518         0.09600
O         29.27557        46.62168         1.62086
O         25.23898         9.38580        -5.62664
O         14.75824        44.04620         2.11544
O         34.07637        42.00004         1.62946
O          9.81109        34.39615        -1.52216
O         15.01322        20.05151         2.25466
O         19.32357        43.33897        -0.64582
O         31.42239        20.22310         2.47149
O         11.95912        26.50671         3.21191
O         30.24179        44.78209        -1.21832
O         30.68804        23.59057         3.02223
O         25.09286        52.93485         0.01699
O         28.06075        19.02793        -1.05583
O         23.24337        45.37890         2.05923
O         21.61897        38.66209        -1.08729
O         29.88992        39.72459        -0.46039
O         18.93279        39.94269         2.18007
O         15.17729        42.13819        -0.92862
O         13.94231        22.33579         3.26126
O         29.11842        31.17930        -0.43054
O         18.28661        45.28846         2.41104
O         27.82422        49.15514         1.05828
O         15.99560        46.74848         2.22242
O         23.33481        12.99731        -4.11993
O         34.00844        33.54938         3.18813
O          7.45557        33.26396        -1.46852
O         11.38364        37.96342        -1.16312
O         31.66038        34.37402         0.23836
H         31.93319        34.99862        -0.47482
O         31.66393        26.89286         3.23389
H         32.28040        26.35548         3.77405
O         34.20855        25.39247        -0.59434
H         34.96896        25.90303        -0.94383
O         19.14650        14.37684        -3.22706
H         19.24032        13.91536        -4.09343
O         13.49757        21.29599        -0.80826
H         12.78355        20.98215        -1.40159
O         27.74675        41.93231         2.77279
H         28.25686        42.70800         3.11149
O         29.52994        22.76103        -0.26339
H         28.71439        22.39922        -0.69714
O         17.83762        32.55455        -1.04648
H         17.92732        33.32156        -1.66175
O         19.48702        13.02706         0.15329
H         19.57746        13.44179         1.03737
O         28.17861        22.67482         3.18240
H         29.02043        22.99515         3.59058
O         24.49744        26.25361        -0.53332
H         24.21426        27.08886        -0.99199
O          9.44164        28.82086        -1.13373
H          8.65918        29.29616        -1.50678
O         17.19408        34.34145         2.14747
H         17.26076        33.54203         2.72300
O         34.67508        30.85929         3.67040
H         34.73959        31.77542         4.02132
O         26.77432        47.06019         2.36023
H         27.54213        47.61151         2.63489
O         25.98952        13.62471        -3.68390
H         25.18528        13.61197        -4.25964
O         23.20459        28.51207        -0.86681
H         22.27941        28.21458        -1.07969
O         13.45151        24.65593         4.04182
H         13.95527        23.85487         4.32198
O         14.81233        33.57712        -1.51195
H         14.76059        32.60136        -1.67809
O         16.96419        37.92273         2.48918
H         17.69833        38.48821         2.83061
O         25.32290        13.93508         1.12115
H         25.64514        13.00484         1.08061
O         39.20280        28.69077         2.55327
H         38.90559        29.44150         3.12297
O         20.50426        28.24473        -0.61471
H         20.17572        29.01361        -1.12986
O         23.27581        31.77288         2.52736
H         22.43820        32.20590         2.80029
O         17.08313        35.04291        -1.41786
H         16.22612        34.62657        -1.70656
O         21.73101        52.97033         0.45933
H         20.88513        52.67766         0.86205
O         10.39494        33.25496         1.85599
H         11.13040        32.94066         2.42325
O         16.09498        19.69430        -1.22935
H         16.07275        18.94387        -1.85891
O         15.34869        49.40328         1.78554
H         15.38496        48.59055         2.34814
O         24.31206        50.38432        -2.48754
H         25.20661        50.04495        -2.74104
O         15.77489        12.49051        -2.14057
H         15.81207        12.93143        -3.01391
O         20.76033        53.24090        -3.88897
H         19.95141        52.70636        -4.03983
O          9.53616        38.00245         1.96799
H         10.37315        38.51259         2.26557
O         16.93084        29.66523         3.37263
H         17.54456        30.36968         3.68173
O         21.03233        37.82310         2.34029
H         21.11606        36.98554         2.85634
O         31.55984        34.10769         3.86247
H         32.44407        34.25418         4.26275
O         22.01699        17.49315         2.66529
H         21.12722        17.10354         2.84691
O         32.97164        40.09573        -1.18795
H         32.76062        39.17932        -1.46721
O         31.06758        27.08580        -0.34328
H         30.39553        27.56809        -0.86911
O         37.87072        34.13190         2.69312
H         38.13859        33.27710         3.09379
O         27.73105        56.47945        -4.03546
H         27.29907        56.05982        -4.80758
O         21.99715        48.38581         2.11088
H         22.11344        49.33335         2.32965
O         21.91282        46.66428        -1.10066
H         21.68919        45.74452        -1.35701
O         13.36652        26.71393        -0.15787
H         13.99442        27.22591        -0.71059
O         28.80426        33.66378        -0.51872
H         29.28515        32.91204        -0.94948
H          5.00775        31.16665         1.17814
H          4.96056        33.55658         0.72521
H          7.45593        26.98428         1.89998
H          6.31822        29.08105         1.62560
H          6.16803        35.68429         0.38341
H          7.29741        37.74472         0.40513
H          9.86333        22.71140         1.61827
H          8.62524        24.80546         2.00075
H          8.61431        39.98954        -0.23267
H          9.79891        42.18967        -0.04663
H         12.37329        18.62580         0.17745
H         11.09188        20.84001         0.71985
H         11.03314        44.31101        -0.15277
H         12.35330        46.48750        -0.32925
H         14.81620        14.51657        -1.14051
H         13.59659        16.54143        -0.46534
H         13.59846        48.54647        -0.44082
H         14.77134        50.67421        -0.73016
H         17.31958        10.63413        -2.89384
H         16.93555        12.22593        -0.46774
H         15.97947        52.48325        -1.78222
H         17.16861        54.48929        -2.54370
H         19.68318         6.86870        -4.70087
H         18.50112         8.88682        -4.06762
H         18.37912        56.53716        -3.20407
H         19.54853        58.59565        -3.64622
H         22.97021         3.47102        -5.12445
H         20.85819         4.78542        -5.06859
H         22.83717        62.09965        -3.67653
H         20.72441        60.80956        -3.65627
H         25.16933         4.59115        -4.85115
H         26.46536         6.58026        -4.32100
H         26.39807        58.84371        -3.52915
H         25.04690        60.98283        -3.58687
H         27.84673         8.66546        -3.81716
H         29.10342        10.63860        -3.25514
H         28.92776        54.56871        -2.84850
H         27.35985        56.88807        -2.05908
H         30.38663        12.42277        -2.05071
H         31.61796        14.18924        -0.95199
H         31.42903        50.36153        -2.00390
H         30.16008        52.46565        -2.49001
H         32.88565        16.17433        -0.16797
H         34.12971        18.27266         0.23620
H         34.01840        46.24271        -0.95959
H         32.70456        48.36510        -1.48419
H         35.37443        20.43672         0.46242
H         36.59166        22.51641         0.81275
H         36.48277        41.94594        -0.67603
H         35.22024        44.17829        -0.71134
H         37.82464        24.63178         0.98490
H         39.04382        26.67302         0.86234
H         38.89522        37.67899        -0.59910
H         37.75447        39.84700        -0.42435
H         39.94814        28.82944        -0.17482
H         40.91334        30.81912        -1.14231
H         40.98955        33.28274        -1.34968
H         40.01570        35.49515        -0.82132
