         651
 CSIRO Nanostructure Databank - Neutral Graphene Oxide Data Set
C          6.14218        31.87784         2.13664
C          6.10137        33.20707         1.83384
C          8.24903        27.47535         1.38738
C          8.54071        28.85663         2.02516
C          7.32042        29.71021         2.19355
C          8.44452        31.65367         1.21643
C          7.30391        31.04441         1.86435
C          8.29891        33.00849         0.68345
C          7.18689        33.86672         1.15141
C          8.34172        35.91821         0.35947
C          7.21659        35.22681         0.93082
C          8.39456        37.29963         0.38268
C         10.66787        23.09801         1.73434
C         10.66748        24.46712         1.49357
C          9.49204        25.27580         1.46830
C         10.74936        27.35654         1.09480
C          9.53112        26.66400         1.31803
C         10.82191        28.77938         1.02636
C          9.67656        29.55213         1.30798
C         10.82060        31.58903         0.43497
C          9.62954        30.93363         0.97528
C         10.80021        32.93435         0.08910
C          9.52226        33.66183         0.08068
C         10.82167        35.87328        -0.36681
C          9.52078        35.14973        -0.12150
C         10.83874        37.39552        -0.44692
C          9.57276        38.05338         0.08565
C         10.82074        40.15524         0.05566
C          9.58760        39.42627         0.19550
C         10.83475        41.53270        -0.05814
C         13.18343        18.82083         1.29917
C         13.15510        20.21198         1.51443
C         11.92502        20.95401         1.65928
C         13.13401        23.09026         1.86815
C         11.90160        22.35395         1.75303
C         13.20198        24.46718         1.59668
C         11.95420        25.10755         1.14104
C         13.27698        27.29317         0.93908
C         11.98250        26.59728         0.87862
C         13.29015        28.70140         0.65562
C         12.06179        29.43359         0.66368
C         13.29136        31.47747         0.13081
C         12.06402        30.82904         0.40296
C         13.32503        32.89830        -0.26574
C         12.02655        33.65606        -0.34528
C         13.30369        35.78352         0.01795
C         12.09789        35.13486        -0.20952
C         13.23549        37.18795         0.62594
C         12.08408        38.04183         0.11197
C         13.33573        40.16490         0.46015
C         12.06803        39.40028         0.18776
C         13.31045        41.55799        -0.15070
C         12.05906        42.26622        -0.22909
C         13.26662        44.35891        -0.68307
C         12.05713        43.64087        -0.47273
C         13.28373        45.75124        -0.84120
C         15.73518        14.60555         0.18806
C         15.65964        15.94452         0.69815
C         14.46829        16.63839         0.82972
C         15.66101        18.71781         1.68581
C         14.47381        18.14466         0.91311
C         15.64740        20.20800         1.80452
C         14.38318        20.93270         1.62012
C         15.65247        23.09211         2.30453
C         14.37869        22.33429         2.04167
C         15.55740        24.61749         2.47962
C         14.41051        25.21166         1.66092
C         15.74831        27.23627         1.04115
C         14.43897        26.57564         1.26361
C         15.79204        28.62930         0.46833
C         14.51425        29.37684         0.39414
C         15.74305        31.47164        -0.25537
C         14.50487        30.75868         0.13690
C         15.78811        32.92391        -0.21743
C         14.59484        33.65516        -0.13003
C         15.82348        35.80415         0.01741
C         14.56222        35.07265        -0.02113
C         15.80925        37.17843         0.22992
C         14.60328        37.96491         0.68680
C         15.81889        40.12281         0.01318
C         14.52500        39.32107        -0.06132
C         15.75889        41.48795        -0.23438
C         14.50952        42.20901        -0.40730
C         15.69870        44.31019        -1.01935
C         14.52075        43.63236        -0.71704
C         15.73815        45.73753        -1.25126
C         14.48241        46.46918        -1.07897
C         15.67570        48.60138        -1.34248
C         14.48608        47.86930        -1.11713
C         15.71321        49.97481        -1.14998
C         18.19034        10.76347        -1.72211
C         18.09625        12.13836        -1.41148
C         16.96036        12.67935        -0.81677
C         18.13512        14.78558        -0.36981
C         16.91879        14.03351        -0.33387
C         18.18937        16.00109         0.44908
C         16.94640        16.58253         1.08347
C         18.11537        18.86210         0.98834
C         17.03006        18.00757         1.68332
C         18.18915        20.28495         1.49252
C         16.90432        20.98996         1.57561
C         18.22549        23.14575         1.96802
C         16.92349        22.48248         1.78680
C         18.24142        24.56180         2.52112
C         16.92304        25.34370         2.33369
C         18.24698        27.42572         1.48945
C         16.96327        26.72767         1.74599
C         18.25326        28.76945         1.02460
C         17.06308        29.38520         0.55792
C         18.32876        31.51408         0.07847
C         17.10024        30.70650        -0.03214
C         18.33661        32.87509        -0.16272
C         17.07501        33.61406        -0.60989
C         18.29195        35.73648        -0.23675
C         17.07786        35.08286        -0.22617
C         18.33124        37.19347         0.03444
C         17.06121        37.95552         0.28539
C         18.29886        40.11443        -0.04054
C         17.07703        39.43265         0.09198
C         18.31258        41.59084        -0.08525
C         16.99446        42.29002        -0.23261
C         18.22055        44.19425        -1.52372
C         16.96235        43.54632        -1.04453
C         18.11853        45.60885        -2.11182
C         16.91566        46.39618        -1.58245
C         18.17901        48.60895        -1.57756
C         16.88105        47.88425        -1.91630
C         18.18359        49.94812        -1.29639
C         16.94118        50.70921        -1.19191
C         18.20421        52.84756        -1.09452
C         16.97861        52.09008        -1.07387
C         18.18914        54.24413        -1.04094
C         20.64738         6.77155        -3.07648
C         20.56801         8.15339        -2.99654
C         19.39931         8.77810        -2.49976
C         20.60758        10.91620        -2.33624
C         19.36242        10.15565        -2.22543
C         20.57776        12.30065        -1.78450
C         19.23523        13.04079        -1.84451
C         20.52017        15.00886        -0.95713
C         19.31406        14.32101        -1.03070
C         20.60391        16.31908        -0.29091
C         19.38072        16.87131         0.31887
C         20.63264        18.77378         1.26697
C         19.44670        18.15163         1.05622
C         20.64960        20.26393         1.33158
C         19.36477        20.98839         1.52236
C         20.69048        23.10103         1.89348
C         19.39578        22.43025         1.76676
C         20.70397        24.58380         1.64944
C         19.44903        25.33261         2.02089
C         20.73668        27.42261         1.78678
C         19.44326        26.69279         1.75602
C         20.76913        28.86396         1.31831
C         19.51060        29.49002         0.85176
C         20.82528        31.44135         0.02033
C         19.54296        30.78881         0.37839
C         20.81151        32.90788        -0.12269
C         19.60231        33.58827        -0.17063
C         20.76900        35.74129        -0.37417
C         19.57174        35.03861        -0.32153
C         20.76174        37.17752        -0.68815
C         19.46389        37.96748        -0.51965
C         20.73784        40.06392        -0.63050
C         19.52818        39.42093        -0.33305
C         20.86254        41.54010        -0.62077
C         19.57140        42.33242        -0.45280
C         20.73046        44.30153        -1.39809
C         19.53005        43.64688        -1.09558
C         20.71693        45.68621        -1.77724
C         19.44505        46.38155        -2.04848
C         20.74313        48.53069        -1.54683
C         19.45098        47.89491        -1.83262
C         20.75992        49.95819        -1.16740
C         19.44558        50.69017        -1.06002
C         20.66938        52.87336        -1.25401
C         19.46170        52.16174        -1.18655
C         20.65347        54.27175        -1.03346
C         19.40260        54.97993        -0.95577
C         20.60097        57.10582        -0.59731
C         19.39494        56.38154        -0.81534
C         20.59040        58.49230        -0.40736
C         23.18071         4.02550        -3.42587
C         21.95247         4.67761        -3.29085
C         23.06437         6.84017        -3.55871
C         21.88230         6.08814        -3.34085
C         22.99217         8.30346        -3.77190
C         21.65545         9.02921        -3.57771
C         22.99433        11.17479        -2.99122
C         21.74221        10.37393        -2.88052
C         23.11471        12.43953        -2.18325
C         21.83909        13.09376        -1.73811
C         23.00610        15.43679        -1.65980
C         21.69029        14.61289        -1.83771
C         23.00678        16.61664        -0.75693
C         21.94001        16.70202         0.30770
C         23.21011        18.84569         1.21518
C         21.93515        18.05252         1.07410
C         23.21353        20.25271         1.84836
C         21.93017        21.00534         1.51883
C         23.16890        23.06284         2.40269
C         21.88261        22.43497         1.89033
C         23.19644        24.57285         2.21166
C         21.99642        25.28129         1.99569
C         23.22568        27.40609         1.85130
C         22.01046        26.68250         1.85796
C         23.25183        28.79722         1.44892
C         22.08015        29.43829         0.99943
C         23.44606        31.46910         0.28758
C         22.13819        30.71626         0.27352
C         23.42732        32.95818         0.09247
C         22.10315        33.63085        -0.19070
C         23.21062        35.81441         0.04499
C         22.04568        35.10689        -0.12868
C         23.20197        37.27223        -0.13593
C         21.98430        37.94505        -0.61691
C         23.19937        40.00988        -1.17768
C         21.94441        39.32112        -0.80149
C         23.25389        41.47290        -1.33753
C         22.02824        42.21169        -1.21217
C         23.21690        44.31739        -1.71047
C         22.00347        43.60525        -1.39403
C         23.18973        45.70100        -1.84282
C         21.92518        46.39253        -1.83982
C         23.17417        48.56941        -1.89360
C         21.92574        47.83715        -1.80167
C         22.96965        49.97798        -2.10943
C         21.94255        50.72191        -1.59617
C         23.23095        52.91036        -1.19353
C         21.95925        52.23633        -1.75525
C         23.15224        54.23865        -0.75332
C         21.87978        54.97920        -0.79052
C         23.08657        57.07380        -0.28275
C         21.83006        56.34328        -0.52834
C         23.07837        58.53426        -0.03006
C         21.75730        59.26783         0.14016
C         23.10528        61.30381        -0.16586
C         21.96063        60.65811        -0.43092
C         24.35504         4.75889        -3.55889
C         25.54061         6.92439        -3.58068
C         24.32215         6.17831        -3.60944
C         25.55848         8.32097        -3.49778
C         24.30058         9.06808        -3.75223
C         25.56871        11.18824        -3.09232
C         24.29259        10.54303        -3.45418
C         25.60179        12.70024        -3.00652
C         24.36451        13.24720        -2.28133
C         25.67257        15.25429        -1.60044
C         24.35582        14.73977        -2.02864
C         25.86457        16.61860        -1.30292
C         24.03218        17.54218        -0.72452
C         25.60389        19.12441         0.40767
C         24.33407        18.49113         0.30623
C         25.66696        20.42166         1.04947
C         24.43763        21.07351         1.46344
C         25.70021        23.05198         2.14308
C         24.42584        22.39148         1.86154
C         25.69103        24.58336         2.43423
C         24.40890        25.29021         2.26027
C         25.68793        27.42125         2.10149
C         24.44742        26.69862         2.05442
C         25.66177        28.82620         1.90867
C         24.50913        29.47535         1.46001
C         25.79161        31.70086         1.36059
C         24.64267        30.85030         0.92259
C         25.67603        33.15352         1.22350
C         24.56242        33.73730         0.67637
C         25.74123        35.93772         0.56703
C         24.40244        35.23948         0.79703
C         25.78914        37.23867        -0.10558
C         24.51109        37.96646        -0.29632
C         25.73233        40.06068        -0.97522
C         24.50162        39.27834        -1.00858
C         25.72547        41.42160        -1.31106
C         24.46879        42.11242        -1.52691
C         25.74634        44.28469        -1.59299
C         24.49517        43.54154        -2.00539
C         25.75896        45.73149        -1.84165
C         24.45096        46.48313        -2.02367
C         25.69998        48.66542        -1.62052
C         24.45070        47.96680        -1.86352
C         25.75407        50.09754        -1.36919
C         24.76512        51.00908        -1.77462
C         25.63105        52.83089        -0.44879
C         24.50918        52.24805        -1.13118
C         25.53964        54.20272        -0.06617
C         24.32586        54.88191        -0.23965
C         25.47230        57.01532         0.69727
C         24.23414        56.27392         0.22071
C         25.43320        58.50464         0.74155
C         24.29382        59.19844         0.51982
C         24.17815        60.69944         0.70974
C         26.74008         9.03235        -3.22646
C         28.01258        11.10664        -2.77498
C         26.75683        10.44660        -3.04450
C         28.05659        12.43012        -2.36855
C         26.83964        13.19294        -2.28128
C         28.06961        14.90898        -0.96761
C         26.82289        14.40334        -1.59516
C         28.09245        16.29990        -0.34727
C         26.90360        17.15034        -0.53159
C         28.10538        19.08224         0.35034
C         26.86053        18.48432         0.00960
C         28.14079        20.44429         0.83439
C         26.89718        21.11716         1.14119
C         28.15288        23.15901         1.83398
C         26.94757        22.44342         1.68515
C         28.14158        24.55991         2.16365
C         26.95561        25.28966         2.25613
C         28.15914        27.44240         2.25809
C         26.95803        26.74089         2.23632
C         28.18038        28.90905         2.35040
C         26.85729        29.63332         2.20619
C         28.08322        31.80261         2.47798
C         26.87626        31.08412         1.91680
C         28.10373        33.31326         2.11952
C         26.74461        34.04153         1.87800
C         28.13639        36.15984         1.11639
C         26.86679        35.37422         1.10419
C         28.16439        37.56205         0.49861
C         26.96465        37.88858        -0.36753
C         28.26889        40.00058        -1.03547
C         26.97041        39.26466        -0.92887
C         28.15139        41.47225        -0.75990
C         26.93801        42.18095        -1.19160
C         28.16769        44.36144        -1.05439
C         26.92586        43.61073        -1.24893
C         28.14176        45.79585        -1.16314
C         26.94837        46.50115        -1.45390
C         28.09405        48.56202        -0.82237
C         26.91368        47.91266        -1.37420
C         27.85355        49.81117        -0.20663
C         26.80827        50.67784        -0.57845
C         28.05569        52.81712         0.05178
C         26.83305        52.08145        -0.26454
C         27.97576        54.19328         0.29034
C         26.74491        54.91343         0.33466
C         26.72872        56.27992         0.60580
C         29.30920        13.09729        -2.04903
C         30.61548        15.09944        -1.29876
C         29.33963        14.30213        -1.42145
C         30.62174        16.14365        -0.15525
C         29.36652        17.00194        -0.13934
C         30.65734        19.09497         0.23498
C         29.34670        18.34243         0.16653
C         30.63178        20.32818         1.13473
C         29.35142        21.12032         1.04825
C         30.61308        23.18800         1.47880
C         29.39874        22.49697         1.47040
C         30.69114        24.54206         2.04636
C         29.42423        25.26137         2.40047
C         30.58049        27.44653         1.65169
C         29.48448        26.78531         2.54779
C         30.65580        28.94307         1.90665
C         29.44080        29.67525         2.11713
C         30.68615        31.83391         2.35742
C         29.39404        31.07025         2.14512
C         30.69316        33.24512         1.77071
C         29.41461        34.00318         1.83482
C         30.71238        36.02029         0.88965
C         29.43458        35.44728         1.38194
C         30.68605        37.34609         0.28977
C         29.50782        37.98135        -0.03907
C         30.73950        40.14637        -0.40276
C         29.59943        39.26250        -0.85302
C         30.69927        41.53010        -0.45716
C         29.41692        42.26190        -0.46289
C         30.61808        44.41261        -0.88473
C         29.38529        43.70997        -0.74846
C         30.53940        45.74885        -1.27403
C         29.37107        46.53614        -1.09665
C         30.64336        48.66897        -0.46804
C         29.39501        47.93918        -0.80075
C         30.71361        50.08220        -0.31099
C         29.64439        50.90456         0.10508
C         29.37995        52.25352        -0.08552
C         31.87631        16.96937        -0.29020
C         33.12149        19.02351         0.58941
C         31.87487        18.20900         0.59171
C         33.10344        20.42720         0.67453
C         31.87937        21.11873         0.85132
C         33.13423        23.16654         1.43026
C         31.85038        22.61725         0.82361
C         33.17395        24.56848         1.95148
C         31.92505        25.35774         1.88484
C         33.17023        27.46961         1.73206
C         31.91258        26.72166         1.79206
C         33.16904        28.89397         1.72263
C         31.90510        29.64280         1.85625
C         33.18463        31.78461         2.09927
C         31.91584        31.03888         1.97886
C         33.16380        33.27083         1.85734
C         31.86372        33.91695         1.51951
C         33.15968        35.93043         0.65599
C         31.89044        35.30478         1.03540
C         33.14696        37.31265         0.23620
C         31.96319        38.02231         0.05589
C         33.17986        40.19362        -0.24882
C         31.96641        39.44936        -0.17715
C         33.20931        41.58006        -0.35114
C         31.93677        42.31046        -0.25353
C         33.26419        44.51612        -0.48932
C         31.92226        43.81849        -0.45594
C         33.36838        45.93311        -0.27095
C         32.37122        46.81942        -0.71024
C         31.92694        48.05059        -0.22966
C         34.34098        21.16994         0.61042
C         35.57979        23.26343         0.96044
C         34.39403        22.51395         0.97519
C         35.65652        24.61262         1.41217
C         34.49195        25.29590         2.11906
C         35.61925        27.46434         1.68436
C         34.40274        26.77059         1.76543
C         35.63033        28.86828         1.63404
C         34.41501        29.57401         1.70727
C         35.71644        31.77125         1.52720
C         34.48183        31.03905         1.93484
C         35.69283        33.14200         1.30538
C         34.45681        33.94637         1.45096
C         35.61551        35.79991         0.17280
C         34.37348        35.24744         0.75541
C         35.64638        37.27961        -0.19483
C         34.45409        38.07174         0.29028
C         35.74439        40.16767        -0.52172
C         34.41976        39.41695        -0.39301
C         35.67425        41.62385        -0.44527
C         34.45741        42.30517        -0.42235
C         34.41689        43.74392        -0.38982
C         36.83365        25.30902         1.33297
C         38.07140        27.44218         1.19734
C         36.93222        26.71493         1.84629
C         38.09165        28.79875         1.13958
C         36.96593        29.57824         1.79713
C         38.10940        31.65501         0.90922
C         36.92880        31.02606         1.37693
C         38.14858        33.04931         0.72117
C         36.99562        33.89528         1.18611
C         38.10282        35.82444         0.03484
C         36.90527        35.16591         0.39325
C         38.12301        37.21521        -0.25615
C         36.94763        37.99614        -0.24538
C         36.96517        39.39295        -0.27204
C         39.23761        29.49288         0.61770
C         40.48003        31.55160         0.12264
C         39.28828        30.86742         0.56556
C         40.50900        32.90451        -0.01215
C         39.33023        33.70002         0.25013
C         39.32939        35.07778         0.02319
O         21.29699        12.49155        -0.52274
O         25.23576        46.07511        -3.20746
O         23.46903        11.35077        -4.37646
O         19.51495        47.28826        -3.18611
O         12.65227        33.12280        -1.56162
O         17.48411        43.23586        -2.40159
O         16.46002        30.83614        -1.35690
O         28.66235        50.19734         0.84851
O          8.50519        33.04089        -0.77916
O         16.71652        21.92309         0.44168
O         21.13675         9.39931        -4.95314
O         23.36920        58.02735        -1.38350
O         23.95448        50.65129        -2.85762
O         22.80907        17.87535         2.23845
O         23.04020        33.26430        -1.28659
O         15.44975        19.31133         2.98430
O          9.98568        35.39590        -1.49136
O         24.10028        12.42747        -1.09615
O         23.26310        20.16050         3.25168
O         31.65885        46.33712        -1.83047
O         33.98861        31.40576         3.27147
O         24.46693        30.83670        -0.55571
O         23.63659        15.58865        -2.97038
O         28.52409        41.81780         0.62108
O         17.67432        42.28863         1.05519
O         27.94266        15.08198         0.50429
O         16.84990        26.52217         3.20249
O         23.67247         8.70457        -5.01867
O         19.89395        37.51448        -1.82761
O         19.78359        17.26009        -1.07125
O         31.78724        43.23879         0.89445
O         27.64379        39.51708        -2.25647
O         33.92342        34.02704         2.83955
O         30.19607        24.59519         3.45747
O         11.94715        25.61641        -0.23188
O         24.49100        56.43052         1.65308
O         17.96760        37.54712         1.40623
O         33.06197        23.40888         2.86617
O         35.40443        36.31320        -1.22211
O         25.74285        23.60109         3.49816
O         23.83361        39.28660        -2.31165
O         28.78600        36.26430         2.42916
O         15.06085        22.39647         3.43270
O         20.52179        42.20201         0.65264
O         15.94596        27.43775        -0.39969
O         23.81119        38.02819         1.00734
O         21.42860        20.77458         0.16110
O         20.18068        50.25122         0.15659
O         21.51804        30.69778        -1.05768
O         17.81516        15.69381         1.84269
O         20.67848        28.51655         2.76419
O         28.84551        33.96406         3.19553
O         35.01615        39.53572        -1.68435
O         24.93205        17.53566        -1.80240
O         27.41670        29.33769         3.52563
O         30.77887        32.03850         3.81863
H         31.08925        31.19765         4.21913
O         15.14932        24.86432         3.84578
H         14.84985        24.00026         4.22141
O         24.03863        35.50196         2.18505
H         24.03823        36.48196         2.29659
O         14.29909        38.99530        -1.44602
H         14.10588        39.81930        -1.94011
O         23.80743        60.94912         2.08718
H         24.44845        60.48572         2.66568
O         30.89418        19.60645        -1.10886
H         31.02170        18.82824        -1.69503
O         34.68738        38.37897         1.69803
H         34.52477        37.56906         2.22813
O         30.80497        15.78769        -2.54495
H         31.55478        16.40987        -2.40809
O         21.08942         8.18994        -5.73185
H         21.99335         8.16017        -6.13681
O         31.85354        23.03656        -0.58462
H         31.30014        22.40087        -1.08803
O         21.50320        59.40265         1.56912
H         22.16320        60.04582         1.93250
O         18.43442        24.42949         3.95824
H         18.11993        25.26841         4.36579
O         30.04236        38.83758        -2.17867
H         29.23035        38.73638        -2.73234
O          9.01802        28.53045         3.37391
H          9.19864        29.37321         3.84053
O         37.31943        34.31087         2.57967
H         37.24678        33.51246         3.14714
O         17.86015        45.45880        -3.53316
H         17.35864        44.61496        -3.64286
O         21.24282        14.87326        -3.20166
H         22.00568        15.26438        -3.69586
O         17.10893        33.57124        -2.07231
H         16.96712        32.63074        -2.33247
O         29.81773        27.10566         3.91198
H         30.08439        26.26513         4.35408
O         17.71605        18.93855        -0.39655
H         18.43680        19.35467        -0.91562
O         21.95833        52.52345        -3.18727
H         22.74553        52.06888        -3.56846
O         23.13904        22.76965         3.82269
H         23.22964        21.76656         3.88746
O         30.61807        15.38469         1.10594
H         29.68649        15.06881         1.23545
O         18.95737        13.37549        -3.22302
H         19.63483        14.03497        -3.51367
O         12.83645        36.89412         1.99834
H         13.27402        37.58008         2.56223
O         37.19746        26.68180         3.29251
H         36.44159        26.18019         3.69514
O         20.67312        24.62627         0.16115
H         20.71134        25.56415        -0.12485
O         30.69740        19.88882         2.52025
H         30.71135        20.68230         3.09638
O         26.25043        34.37191         3.18708
H         27.02629        34.66633         3.71679
O         14.89881        38.28752         2.07469
H         15.63478        37.71892         2.38673
O         10.88151        37.73687        -1.86576
H         10.33976        37.05825        -2.33327
O         31.80177        17.65088         1.93099
H         31.32482        16.77982         1.89095
O          7.69875        27.61792         0.07869
H          8.39744        27.94770        -0.52334
O         22.18016        15.64285         1.26533
H         22.69443        16.04444         2.00880
O         27.95938        38.51379         1.60040
H         28.37250        38.10522         2.39940
O         37.24518        29.56697         3.23059
H         37.29609        28.61481         3.50258
O         27.95459        31.74937         3.91434
H         28.75251        32.20468         4.27694
O         17.48621        17.89573         3.03339
H         16.84100        17.37333         3.55207
O         24.55530        43.44710        -3.47273
H         24.72945        44.36429        -3.80348
O         13.44695        40.37859         1.88629
H         14.33940        40.74023         2.07233
O         25.63022        13.21692        -4.36074
H         24.92899        12.74171        -4.86451
O         14.74945        18.58172        -0.47443
H         14.03153        18.23857        -1.04734
O         34.81003        25.26964         3.54647
H         34.45493        24.41657         3.89183
O         30.11809        27.24581         0.28183
H         30.77616        27.64369        -0.32599
O         16.72899        47.97743        -3.36485
H         17.42642        47.40022        -3.76462
H          5.28525        31.40634         2.63954
H          5.21960        33.80571         2.10651
H          7.48999        26.94459         2.01319
H          6.43982        29.25350         2.67015
H          6.37273        35.84119         1.28148
H          7.51428        37.85417         0.74556
H          9.71624        22.56085         1.86403
H          8.52081        24.79030         1.64950
H          8.66307        39.97896         0.42371
H          9.88386        42.08501        -0.09529
H         12.23749        18.26388         1.22312
H         10.97267        20.40599         1.60309
H         11.10207        44.18635        -0.49629
H         12.33928        46.31124        -0.76811
H         14.79634        14.04087         0.08163
H         13.52813        16.14145         0.53988
H         13.55935        48.41498        -0.88095
H         14.78896        50.50942        -0.88080
H         17.31217        10.12288        -1.54348
H         16.09496        12.02690        -0.62101
H         16.03178        52.64522        -0.99431
H         17.22971        54.78049        -1.00276
H         19.76846         6.16918        -2.79943
H         18.52532         8.15551        -2.25470
H         18.43504        56.91894        -0.81168
H         19.62456        59.01850        -0.46657
H         23.22163         2.92791        -3.39575
H         21.03022         4.09819        -3.14430
H         23.27354        62.32103        -0.55045
H         21.17669        61.12418        -1.04701
H         25.32494         4.24515        -3.61865
H         26.48858         6.37386        -3.48658
H         26.35298        59.03103         1.04581
H         25.17068        61.19053         0.50825
H         27.68252         8.47505        -3.12188
H         28.93796        10.51475        -2.82332
H         28.90499        54.74563         0.49536
H         27.67889        56.82250         0.72163
H         30.24695        12.62064        -2.37274
H         31.48075        14.39666        -1.12860
H         31.69624        50.55393        -0.46649
H         30.19103        52.92637        -0.40096
H         32.78880        16.35020        -0.16789
H         34.08897        18.49902         0.63207
H         34.22876        46.30613         0.30516
H         32.60049        48.59836         0.44760
H         35.26419        20.64439         0.32673
H         36.49982        22.79327         0.58094
H         36.61144        42.18841        -0.33191
H         35.38243        44.26965        -0.33509
H         37.72899        24.83103         0.90612
H         38.92143        26.85779         0.81189
H         39.09480        37.70986        -0.40035
H         37.92875        39.92236        -0.21874
H         40.10012        28.89784         0.28067
H         41.37208        30.94832        -0.10037
H         41.42268        33.41562        -0.34822
H         40.25604        35.58172        -0.28773
