         276
 CSIRO Nanostructure Databank - Neutral Graphene Oxide Data Set
C        -11.15743         0.82994        -0.48515
C         -9.82040         1.54855        -0.54082
C         -8.83424         0.80526         0.36502
C         -7.49151         1.51948         0.31187
C         -6.20839         0.77628         0.41328
C         -5.00810         1.45492         1.08809
C         -3.61996         0.74192         0.83157
C         -2.49524         1.36805         1.77284
C         -1.11982         0.71360         1.53233
C          0.14480         1.44999         1.27457
C          1.42146         0.69303         1.65783
C          2.65103         1.56053         1.72211
C          4.00508         0.98918         1.66574
C          5.05184         1.44718         0.94914
C          6.31011         0.63169         0.99367
C          7.60369         1.35001         0.99646
C          8.87924         0.59273         0.73530
C         10.18209         1.37315         0.88112
C         11.33072         0.62172         0.22590
C         -9.82240         3.03433        -0.23142
C         -8.75104         3.69340         0.25539
C         -7.51862         2.97215         0.78329
C         -6.19142         3.69025         0.47948
C         -4.91437         2.93040         0.65703
C         -3.69814         3.68098         1.11583
C         -2.48280         2.93125         1.61263
C         -1.13362         3.66996         1.86732
C          0.12776         2.95105         1.35913
C          1.38514         3.82283         1.53703
C          2.67503         3.02558         1.41971
C          3.88704         3.61392         0.78490
C          4.95461         2.72824         0.15540
C          6.33256         3.41500        -0.00086
C          7.59624         2.75982         0.47442
C          8.86689         3.53421         0.57726
C         10.04458         2.86943         0.60087
C         -8.76908         5.19832         0.47946
C         -7.45340         5.82674         0.05094
C         -6.20262         5.18978         0.58149
C         -4.90781         5.94106         0.61204
C         -3.62604         5.15186         0.81271
C         -2.48336         5.77471         1.20661
C         -1.14421         5.16625         1.40442
C          0.06820         5.86504         0.76875
C          1.28478         4.95421         0.46062
C          2.61404         5.67479         0.25926
C          3.78760         4.99446         0.27206
C          5.06170         5.65916        -0.12507
C          6.33960         4.90513        -0.25859
C          7.68609         5.64834        -0.29582
C          8.71584         5.04859         0.69192
C         -7.36714         6.92015        -0.72641
C         -6.00516         7.38405        -1.18323
C         -4.97134         7.38232        -0.01376
C         -3.65359         7.87778        -0.59336
C         -2.50534         7.68375         0.06827
C         -1.19979         7.85887        -0.59783
C         -0.00109         7.05313        -0.21561
C          1.30750         7.69903        -0.64316
C          2.59729         7.00188        -0.40605
C          3.89341         7.80995        -0.47493
C          5.05303         7.11447         0.27088
C          6.34738         7.83483        -0.01816
C          7.52004         7.16274        -0.14842
C         -6.00531         8.73958        -1.85531
C         -4.84899         9.33036        -2.19022
C         -3.54012         8.61294        -1.92957
C         -2.30397         9.51146        -1.95711
C         -1.13988         9.12493        -1.38952
C          0.18010         9.84882        -1.59392
C          1.36589         9.18028        -0.90315
C          2.50203         9.87618        -0.66697
C          3.69947         9.24928         0.03281
C          5.03638         9.95441        -0.11003
C          6.22073         9.29465        -0.09860
C        -11.18593        -0.51971        -0.43431
C         -9.94876        -1.30819        -0.35192
C         -8.78323        -0.65431        -0.03605
C         -7.52232        -1.42094         0.06456
C         -6.24487        -0.71698         0.38783
C         -4.93200        -1.32217        -0.08418
C         -3.78161        -0.80376         0.77509
C         -2.92933        -1.68580         1.35001
C         -1.00780        -0.61714         1.73365
C          0.14088        -1.52589         1.43741
C          1.47325        -0.85139         1.53540
C          2.69165        -1.57772         1.02762
C          3.94418        -1.20763         1.43029
C          5.20528        -1.72292         0.84605
C          6.16244        -0.68978         0.23480
C          7.46307        -1.31173        -0.30424
C          8.80277        -0.73152         0.04958
C          9.98079        -1.28114        -0.75285
C         11.26629        -0.61368        -0.30185
C         -9.95164        -2.76218        -0.48831
C         -8.78935        -3.48043        -0.61866
C         -7.52050        -2.65808        -0.82582
C         -6.23488        -3.47587        -0.78022
C         -5.07851        -2.83302        -0.04151
C         -3.92878        -3.67962         0.35463
C         -2.71332        -3.15891         1.10784
C         -1.33753        -3.59563         0.52136
C         -0.06067        -2.70833         0.43700
C          1.24407        -3.64433         0.45334
C          2.55513        -2.84888         0.31343
C          3.68575        -3.49031        -0.13680
C          5.04690        -2.96629         0.05903
C          6.17595        -3.49469        -0.77841
C          7.46830        -2.73861        -0.76209
C          8.75035        -3.50339        -0.81559
C          9.93133        -2.81128        -0.74914
C         -8.75386        -4.93822        -0.59700
C         -7.60766        -5.68006        -0.66897
C         -6.31524        -4.97124        -0.80652
C         -5.06899        -5.76416        -0.55882
C         -3.82564        -4.97730        -0.34585
C         -2.52837        -5.64985        -0.28075
C         -1.29652        -4.87783         0.04755
C         -0.15318        -5.48400        -0.69683
C          1.13190        -4.75043        -0.63551
C          2.37942        -5.49636        -1.02331
C          3.66941        -4.80428        -0.81859
C          4.88874        -5.61594        -0.58309
C          6.19165        -4.99651        -0.88744
C          7.50781        -5.70701        -0.96488
C          8.66657        -4.96071        -0.95381
C         -7.57423        -7.21697        -0.64850
C         -6.40437        -7.82476         0.21833
C         -5.06220        -7.20772        -0.15548
C         -3.76360        -7.75095         0.36344
C         -2.51771        -7.13288        -0.13938
C         -1.37888        -7.76683        -0.53922
C         -0.26221        -6.96446        -1.20793
C          1.08374        -7.76114        -1.12123
C          2.38852        -7.00129        -1.03557
C          3.56984        -7.68833        -0.48392
C          4.71843        -6.92101        -0.17044
C          6.57208        -8.01679        -0.68261
C          7.49585        -7.16137        -1.22962
C         -6.30490        -9.34070         0.17518
C         -5.21486       -10.07415        -0.11762
C         -3.93303        -9.60096        -0.73602
C         -2.65443        -9.84410        -0.19436
C         -1.40875        -9.27575        -0.83836
C         -0.07326        -9.86579        -0.41548
C          1.10115        -9.17848        -0.63189
C          2.39736        -9.81648        -0.55290
C          3.61708        -9.12274        -0.54876
C          4.87129        -9.84251        -0.80352
C          6.13830        -9.36378        -1.02820
O          3.07398        -4.88201        -2.15891
O          3.77527         3.59843         2.24231
O         -2.47526         7.16338         1.36683
O          4.13654        -0.20519         2.38118
O          1.29773        -4.30505         1.66193
O         -6.94565        -1.45837         1.42119
O          7.16379         2.68587        -0.95545
O         -2.07669        -1.25873         2.36813
O          1.93910         6.91707        -1.73095
O         -2.99853        -5.04854        -1.55378
O         -6.69155         1.26919        -0.87470
O         -5.75009         5.82025         1.82626
O          5.54837         5.28731        -1.44514
O         -6.04688        -4.16733        -2.04195
O          0.11382         2.27396         0.07219
O          0.91747        -1.63447         2.65839
O          5.63439        -2.96618         1.46010
O         -4.92278        -6.82516        -1.55158
O          5.82958        -7.53408         0.41859
O         -5.06718        -3.51280         1.25704
O          8.97758        -0.66523         1.49310
O         -5.38822         3.26564        -0.66874
O          0.25436        -4.52628        -1.76180
O          1.91994        -7.59881        -2.28834
O         -0.73759        -6.99880        -2.50695
O         -0.78903         6.67785        -1.39478
O          5.91572        -4.08302        -2.05854
O         -3.47681         3.46259         2.55153
O          7.00205         0.88910         2.25055
O          1.90825         1.21161         2.93224
O         -0.25798         6.07054         2.15106
O          7.37566        -1.61752        -1.73427
O         -5.41793         8.28643         1.00039
H         -5.78133         7.73890         1.73631
O         -9.34185         0.86884         1.71244
H         -8.70707         0.41464         2.30551
O         -2.83730         1.12361         3.14925
H         -2.33589         1.77001         3.69615
O          9.86151        -0.85838        -2.13536
H          8.99475        -1.18425        -2.47813
O         -3.82790        -8.13691         1.66657
H         -2.93280        -8.26659         2.04334
O         -5.52690         6.37574        -2.12818
H         -6.20900         6.25480        -2.82117
O          8.24199         5.32573         2.01299
H          8.85511         4.92316         2.66167
O         10.50555         1.35172         2.30401
H         10.24744         0.46235         2.63754
O         -4.74101        -0.93424        -1.46429
H         -5.60412        -0.99676        -1.93713
O          1.02075         4.35197        -0.81720
H          1.07880         5.05661        -1.50535
O          0.07364        11.21936        -1.19440
H         -0.28238        11.25369        -0.28336
O         -7.63850         2.99015         2.22556
H         -6.86187         2.50073         2.60176
O         -5.36034         1.41590         2.48703
H         -4.52829         1.53637         3.02424
O          4.30112         7.91483        -1.84793
H          3.55882         7.58565        -2.40712
O         -1.50605        -9.42987        -2.27573
H         -1.08655        -8.59771        -2.68157
O          4.46641         2.44163        -1.16641
H          5.18140         1.96506        -1.64452
O         -7.56161        -2.08681        -2.16418
H         -7.36005        -2.82030        -2.79036
O         -7.47599        -7.70103        -1.98230
H         -6.61935        -7.38762        -2.35736
O         -3.31787         7.66667        -3.00413
H         -4.00749         6.96266        -2.90794
O         -3.19537         1.13019        -0.48264
H         -3.74083         0.64861        -1.15149
O          1.41053         4.40505         2.84581
H          2.35446         4.44968         3.13104
O         -0.12294        -2.04665        -0.82882
H         -0.17990        -2.74542        -1.53252
O         -9.33206         1.40828        -1.90137
H         -9.99819         1.79114        -2.50800
O         -2.75380        -3.81656         2.40125
H         -2.28288        -3.22570         3.03233
O         -6.70457        -7.45970         1.58073
H         -6.01035        -7.82665         2.16853
O         -4.07941        -9.21570        -2.00476
H         -3.17397        -9.11593        -2.42126
O          3.34733         9.23291         1.45324
H          3.31062        10.16208         1.76348
O          5.41532        -0.25077        -0.93809
H          5.76625        -0.74461        -1.72092
O         -1.04563         3.64364         3.30488
H         -0.24909         4.17064         3.56206
O         -9.86951         5.81409        -0.18013
H         -9.78857         5.64589        -1.14079
O          8.24529         5.44141        -1.60814
H          7.50346         5.51128        -2.24960
O          4.84003         7.08606         1.69578
H          4.53979         7.97985         1.98758
H         12.20133        -1.09732        -0.62800
H         12.32666         1.05971         0.40273
H         10.98293         3.44677         0.64694
H          9.71453         5.54182         0.52742
H          8.44180         7.74208        -0.32782
H          7.15230         9.87566        -0.19631
H          5.03397        11.05364        -0.19113
H          2.52000        10.95357        -0.90176
H          0.40208         9.85788        -2.69537
H         -2.33511        10.41563        -2.58561
H         -4.84123        10.31082        -2.69156
H         -6.97057         9.23209        -2.05493
H         -8.27628         7.42092        -1.09668
H         -8.89666         5.37848         1.58032
H        -10.70761         3.61974        -0.53610
H        -12.09083         1.40574        -0.58447
H        -12.14365        -1.06122        -0.47223
H        -10.91945        -3.28575        -0.43485
H         -9.71934        -5.45480        -0.47110
H         -8.53708        -7.59387        -0.22186
H         -7.18988        -9.87277         0.56017
H         -5.28330       -11.16746         0.01398
H         -2.59091       -10.20174         0.84494
H         -0.03298       -10.91804        -0.09395
H          2.41864       -10.91763        -0.54777
H          4.71635       -10.90872        -1.04125
H          6.87617       -10.05773        -1.46193
H          8.20174        -7.54046        -1.98516
H          9.62703        -5.49148        -1.04539
H         10.88186        -3.36381        -0.82159
