         404
 CSIRO Nanostructure Databank - Neutral Graphene Oxide Data Set
C          1.30811         2.07879        -2.10079
C          1.19194         3.43119        -1.88750
C          2.49663         1.35657        -1.81457
C          2.24891         4.16966        -1.19810
C          1.06847         6.36741        -0.88683
C          1.08836         7.74457        -0.61389
C          2.23640         5.65666        -1.11863
C          2.30386         8.47707        -0.52495
C          1.16540        10.39062         0.56834
C          1.19776        11.63825         1.17296
C          2.31687         9.87303        -0.05680
C          2.36033        12.41254         1.10320
C          1.17772        15.48934         0.96316
C          1.17023        16.71787         0.30544
C          2.35108        14.72806         1.00232
C          2.37572        17.24490        -0.18980
C          2.42603        18.58259        -0.71914
C          3.65813         2.00515        -1.38686
C          3.57276         3.42903        -1.00531
C          4.91001         1.35265        -1.26552
C          4.83793         4.17620        -0.88247
C          3.49982         6.39648        -1.15882
C          3.50286         7.82161        -0.82452
C          4.83911         5.64647        -1.04139
C          4.77936         8.55652        -0.89096
C          3.49783        10.66130        -0.09901
C          3.52635        11.98750         0.43000
C          4.75312        10.05490        -0.59240
C          4.73831        12.82364         0.30144
C          3.55492        15.12114         0.37518
C          3.57913        16.47487        -0.10660
C          4.74585        14.28371         0.29403
C          4.81677        17.11398        -0.40003
C          3.61298        19.17991        -1.02844
C          4.85725        18.48731        -0.81693
C          6.07556         2.03864        -0.87479
C          6.01336         3.48394        -0.71425
C          7.32686         1.36238        -0.80755
C          7.23498         4.22493        -0.33520
C          6.04760         6.41353        -0.65391
C          6.04622         7.82746        -0.66109
C          7.24605         5.70553        -0.44149
C          7.23558         8.54201        -0.35459
C          6.01519        10.71640        -0.20975
C          5.94155        12.12708         0.04032
C          7.22447         9.98412        -0.18441
C          7.19971        12.86326        -0.08762
C          5.97475        14.98946         0.10251
C          6.02315        16.40355        -0.17057
C          7.22405        14.30418         0.12283
C          7.26677        17.08276        -0.28867
C          6.08643        19.13345        -0.96889
C          7.30702        18.46499        -0.67957
C          8.54655         2.01950        -0.58080
C          8.53086         3.46383        -0.25260
C          9.79651         1.37613        -0.62895
C          9.79490         4.21130        -0.35177
C          8.45938         6.40939        -0.31861
C          8.46237         7.82327        -0.22059
C          9.73400         5.67578        -0.46366
C          9.69627         8.50952         0.13485
C          8.46596        10.62719         0.17967
C          8.51968        12.09460         0.04954
C          9.63487         9.92192         0.44311
C          9.68206        12.86127         0.48295
C          8.45515        14.97705         0.19283
C          8.48961        16.40749         0.01320
C          9.66908        14.24300         0.44765
C          9.70703        17.10755        -0.00695
C          8.55164        19.12473        -0.78201
C          9.75997        18.47031        -0.44343
C         11.01685         2.07979        -0.44729
C         11.00171         3.53592        -0.35497
C         12.24923         1.40584        -0.43361
C         12.26004         4.24466        -0.18798
C         11.02931         6.44788        -0.30301
C         10.91110         7.83373         0.16348
C         12.27938         5.68929        -0.05309
C         12.15449         8.46148         0.65948
C         10.82442        10.62583         1.00355
C         10.84925        12.13975         1.01907
C         12.13813         9.89702         1.07007
C         12.14170        12.86525         1.04728
C         10.90160        14.98196         0.80077
C         10.93418        16.46821         0.49341
C         12.18413        14.23592         0.88201
C         12.23432        17.09708         0.21870
C         11.01969        19.11840        -0.53535
C         12.24401        18.44659        -0.26811
C         13.48011         2.08810        -0.25199
C         13.44300         3.52089        -0.05913
C         14.70864         1.38382        -0.30035
C         14.69257         4.23234         0.26233
C         13.45595         6.39000         0.16583
C         13.44532         7.89927         0.10416
C         14.71806         5.71714         0.23734
C         14.68384         8.56031         0.66572
C         13.41559        10.64697         1.07655
C         13.36420        12.09354         1.34003
C         14.64323         9.96837         0.96656
C         14.68423        12.87143         1.30807
C         13.43287        14.97644         0.79602
C         13.43334        16.38226         0.41714
C         14.65332        14.29850         0.93266
C         14.67858        17.04355         0.16387
C         13.48417        19.09062        -0.48613
C         14.70374        18.41412        -0.28068
C         15.96744         2.01585        -0.17555
C         15.97395         3.46421         0.15519
C         17.19138         1.34099        -0.21187
C         17.20616         4.24476        -0.15754
C         15.90685         6.42966         0.34537
C         15.90106         7.86611         0.59122
C         17.19172         5.72881         0.07005
C         17.13852         8.57883         0.73269
C         15.90436        10.68984         1.05625
C         15.91697        12.09562         1.10541
C         17.15055         9.97132         0.94853
C         17.14009        12.82010         1.02453
C         15.90238        14.95906         0.69320
C         15.90585        16.34425         0.31246
C         17.12445        14.25150         0.81843
C         17.13365        16.99860         0.01296
C         15.94629        19.05167        -0.55724
C         17.16609        18.36595        -0.44320
C         18.45073         2.00084         0.00647
C         18.49863         3.48895        -0.10647
C         19.62913         1.31812         0.20774
C         19.72364         4.25259         0.29205
C         18.46151         6.38926         0.45101
C         18.41514         7.87305         0.51491
C         19.62954         5.69772         0.60876
C         19.69349         8.61409         0.74917
C         18.39782        10.70384         1.09003
C         18.35472        12.11910         1.13849
C         19.66030        10.04115         1.10769
C         19.60153        12.88852         1.28972
C         18.35862        14.91742         0.54174
C         18.34849        16.27847         0.10080
C         19.59803        14.24573         0.72281
C         19.55201        16.85710        -0.39818
C         18.42267        18.98088        -0.74686
C         19.63893        18.27401        -0.73818
C         20.87210         1.99012         0.65033
C         20.89785         3.49908         0.82717
C         22.16996         1.35183         0.51463
C         22.19575         4.21582         0.90164
C         20.88428         6.34764         1.08597
C         20.91255         7.84808         1.14755
C         22.18307         5.64560         1.00807
C         22.19646         8.56927         1.08882
C         20.91100        10.69310         1.24160
C         20.92711        12.16908         1.37546
C         22.14019         9.98499         1.13485
C         22.15121        12.91633         0.99400
C         20.78892        14.79337         0.21040
C         20.62772        15.97887        -0.54855
C         22.10279        14.18813         0.44689
C         22.44832        17.05749        -0.69766
C         20.88471        18.99008        -0.83671
C         22.19606        18.48574        -0.64276
C         23.37451         2.04531         0.75123
C         23.37420         3.48245         0.98766
C         24.59250         1.34826         0.60137
C         24.61988         4.21464         1.45003
C         23.39880         6.38866         1.06762
C         23.40919         7.83875         1.08901
C         24.63807         5.67656         1.05445
C         24.67236         8.54202         1.08239
C         23.41450        10.71403         1.32887
C         23.41606        12.23110         1.32283
C         24.68991         9.98817         1.10284
C         24.72532        12.99735         1.20030
C         23.36109        14.94362         0.26355
C         23.40399        16.38906         0.00857
C         24.57476        14.33689         0.52450
C         24.56429        17.20139         0.53249
C         23.34648        19.26151        -0.35221
C         24.57341        18.63273         0.00570
C         25.89474         1.97058         0.78694
C         25.93062         3.46913         1.17344
C         27.10634         1.38246         0.24034
C         27.14173         4.22168         0.78885
C         25.86427         6.36369         0.93280
C         25.86801         7.79847         0.96942
C         27.11349         5.63913         0.78785
C         27.16017         8.49483         0.95644
C         25.85635        10.72563         0.85436
C         25.87261        12.15267         0.67040
C         27.15337        10.02816         0.82849
C         27.03556        12.80992         0.26818
C         25.80644        15.07073         0.26366
C         25.83259        16.43611         0.21144
C         27.01484        14.26073        -0.03893
C         27.04134        17.19501        -0.27594
C         25.77969        19.32938         0.01489
C         27.05426        18.65796         0.11985
C         28.32910         2.06662         0.30386
C         28.33024         3.50353         0.50596
C         29.55606         1.38638         0.06332
C         29.56781         4.20915         0.34857
C         28.34287         6.35895         0.54933
C         28.35598         7.75670         0.54861
C         29.57533         5.63395         0.37910
C         29.53688         8.49729        -0.01639
C         28.34598        10.72137         0.31892
C         28.28188        12.10480         0.10090
C         29.58357         9.98281         0.24918
C         29.51968        12.85588        -0.00019
C         28.33206        15.00131        -0.17437
C         28.33351        16.47572         0.02323
C         29.56161        14.22644         0.05739
C         29.48828        17.14998         0.22751
C         28.23217        19.31780         0.34878
C         29.54291        18.60889         0.61394
C         30.79756         2.05680         0.10337
C         30.78034         3.47610         0.24409
C         32.04196         1.35195        -0.06376
C         32.04328         4.20235         0.35889
C         30.81997         6.34852         0.24956
C         30.84893         7.79540         0.20558
C         32.02106         5.65262         0.17149
C         32.04789         8.49002         0.24036
C         30.79318        10.64374         0.15644
C         30.79067        12.10188        -0.05199
C         32.06811         9.94763         0.22365
C         32.07849        12.84579         0.06740
C         30.78400        14.98198         0.54424
C         30.76679        16.41156         0.06195
C         32.09647        14.30486         0.27399
C         32.03815        17.16133        -0.07188
C         30.80322        19.30804         0.13522
C         32.00861        18.64725        -0.02688
C         33.28702         1.98450        -0.06815
C         33.35143         3.43232         0.22159
C         34.52568         1.32132        -0.29455
C         34.58963         4.15537        -0.08381
C         33.26624         6.36814        -0.12823
C         33.32235         7.80666         0.16491
C         34.57538         5.61560        -0.23093
C         34.54005         8.46245         0.24351
C         33.27010        10.61588         0.33954
C         33.29209        12.08262         0.45061
C         34.56349         9.90394         0.69512
C         34.59148        12.82332         0.33032
C         33.29744        14.99651         0.18988
C         33.32137        16.44116         0.08996
C         34.55507        14.28168         0.05603
C         34.50749        17.13336        -0.07952
C         33.26642        19.30226        -0.18025
C         34.49243        18.58961        -0.21817
C         35.75627         2.00784        -0.29335
C         35.77866         3.46146        -0.21917
C         37.00070         1.33546        -0.42660
C         37.02698         4.18695        -0.25834
C         35.82761         6.36015        -0.05334
C         35.79547         7.76406         0.09868
C         37.04795         5.61632        -0.11195
C         37.02989         8.50099         0.17085
C         35.81386        10.65015         0.24337
C         35.79734        12.01533         0.07145
C         37.05827         9.91112         0.12028
C         36.97913        12.71095        -0.45938
C         35.72573        14.97288        -0.18626
C         35.75919        16.41462        -0.18370
C         36.95367        14.23906        -0.56297
C         36.97598        17.09195        -0.30302
C         35.72221        19.24861        -0.35857
C         36.97423        18.54907        -0.35302
C         38.21590         2.03065        -0.43743
C         38.24016         3.47144        -0.33096
C         39.46729         1.33595        -0.55273
C         39.48668         4.17272        -0.32279
C         38.28764         6.29693        -0.01744
C         38.27766         7.73609         0.26409
C         39.51423         5.59962        -0.17993
C         39.62668         8.51018         0.05193
C         38.29623        10.62745        -0.11882
C         38.27195        12.02931        -0.39552
C         39.53401         9.94151        -0.25772
C         39.44831        12.76387        -0.67587
C         38.23213        14.94439        -0.57154
C         38.23180        16.37219        -0.44215
C         39.43130        14.21389        -0.74193
C         39.44004        17.07305        -0.55793
C         38.17121        19.23805        -0.39915
C         39.49159        18.54900        -0.23894
C         40.65667         2.01541        -0.57259
C         40.70010         3.44503        -0.46648
C         41.92643         4.15361        -0.51281
C         40.76465         6.30071        -0.31306
C         40.78802         7.73609        -0.39313
C         41.95155         5.53581        -0.46843
C         41.87383         8.45984        -0.92172
C         40.69725        10.61488        -0.71747
C         40.68504        12.06042        -0.83805
C         41.85134         9.84655        -1.02648
C         41.85847        12.80274        -1.07586
C         40.65929        14.92854        -0.92512
C         40.65111        16.38537        -0.90086
C         41.84617        14.19418        -1.10709
C         41.77274        17.14192        -1.26887
C         40.61278        19.25744        -0.94611
C         41.70957        18.56412        -1.36096
O         10.76137        15.95816         1.87741
O         27.41849         9.36464         2.12355
O         32.83794         3.79780         1.55912
O         15.40173         3.72467         1.47527
O         26.16383         2.47106         2.18392
O         33.82044         6.01103        -1.45997
O         36.73628        13.38576        -1.74873
O          4.32911         6.05258        -2.35505
O         17.13076         5.13821        -1.30204
O         12.14849         8.79502         2.07374
O          8.00243        12.49363        -1.26498
O          7.76312         3.77855         0.97517
O         10.53524        11.36713         2.23866
O         23.37091        11.49588         2.59300
O         31.31776        16.61567        -1.27238
O          2.33267        13.60024         1.83326
O         33.96315        12.55124         1.67088
O         20.70949         7.06842         2.37189
O          2.64314         3.63790         0.12584
O         20.64059         2.66953         1.98591
O         31.58803        12.45406        -1.27001
O         19.21907         8.41287        -0.62821
O         27.58481        14.56044        -1.36820
O         39.13398         8.14033         1.37463
O         19.45753         3.93981        -1.12028
O         14.02757        12.53594         2.57300
O         20.27631        12.70776         2.58192
O         10.48001         6.18654        -1.63877
O          4.77856         9.55943        -1.97092
O         21.59224        16.29749        -1.50196
O         29.67969        18.61637         2.08598
H         28.90979        18.13731         2.46054
O         39.82170        18.63214         1.21153
H         40.71156        18.23328         1.32163
O         24.48752        17.32352         1.98481
H         24.45857        16.41411         2.35320
O         30.62549        15.07092         2.00233
H         30.77704        14.18218         2.38778
O         13.42065         8.26770        -1.31589
H         14.18103         7.83175        -1.75644
O         29.31754         8.42989        -1.48728
H         30.08617         8.86226        -1.91950
O         34.60048         9.87480         2.15855
H         34.50271        10.81221         2.45433
O         24.49537         4.26469         2.90928
H         24.82845         3.40186         3.25020
O         25.14700        13.34549         2.55835
H         24.79689        12.63154         3.14489
O         26.92997        17.20737        -1.73548
H         27.08405        16.27686        -2.03467
H          0.47584         1.54001        -2.57646
H          0.32414         3.98232        -2.27708
H          2.53194         0.27988        -2.03396
H          0.10371         5.84028        -0.88836
H          0.12751         8.24768        -0.44940
H          0.24936         9.79188         0.64090
H          0.32718        12.02211         1.71934
H          0.27766        15.11529         1.46785
H          0.24846        17.31359         0.24954
H          1.47994        19.13118        -0.83574
H          4.97299         0.27785        -1.49278
H          3.63938        20.21406        -1.40082
H          7.33984         0.27952        -1.00383
H          6.11184        20.18909        -1.27734
H          9.83370         0.29116        -0.80902
H          8.58071        20.17353        -1.11244
H         12.26166         0.31250        -0.55591
H         11.05580        20.16492        -0.87277
H         14.67903         0.29739        -0.47311
H         13.49512        20.12798        -0.85133
H         17.19434         0.24672        -0.32989
H         15.93920        20.09589        -0.90346
H         19.63000         0.21750         0.18019
H         18.42919        20.05509        -0.98789
H         22.21566         0.30537         0.17889
H         20.78908        20.08809        -0.88184
H         24.56462         0.31099         0.23639
H         23.31647        20.35607        -0.47026
H         27.06925         0.35717        -0.15635
H         25.77238        20.42040        -0.14369
H         29.53372         0.29761        -0.09149
H         28.20218        20.39707         0.57275
H         31.99751         0.26394        -0.22423
H         30.79661        20.40973         0.13224
H         34.52444         0.23142        -0.44772
H         33.29478        20.40201        -0.22141
H         37.00946         0.23788        -0.50595
H         35.73871        20.34570        -0.44380
H         39.45489         0.23909        -0.63199
H         38.16335        20.33816        -0.44000
H         41.60507         1.46722        -0.67107
H         42.86635         3.59180        -0.61270
H         42.91997         6.05082        -0.53262
H         42.77349         7.92480        -1.25626
H         42.74511        10.34874        -1.41974
H         42.82011        12.28744        -1.20187
H         42.79975        14.71918        -1.25436
H         42.69777        16.64458        -1.58878
H         40.58018        20.35425        -1.01890
H         42.56692        19.09732        -1.79737
