         344
 CSIRO Nanostructure Databank - Neutral Graphene Oxide Data Set
C          1.33603         2.11285        -1.35076
C          1.30939         3.51533        -1.21157
C          2.51492         1.41278        -1.20197
C          2.46555         4.23941        -0.90057
C          1.30177         6.43739        -1.12649
C          1.29977         7.81437        -1.09026
C          2.46331         5.69400        -0.79869
C          2.45606         8.54660        -0.70440
C          1.29242        10.73803        -0.95402
C          1.26820        12.11862        -0.78797
C          2.44166         9.97840        -0.67447
C          2.38275        12.81110        -0.22186
C          1.07700        15.00303        -0.31347
C          1.16271        16.28483        -0.76192
C          2.24848        14.25786         0.26635
C          2.38980        17.02399        -0.73434
C          2.47469        18.36159        -1.24948
C          3.72283         2.09943        -0.87845
C          3.69378         3.52676        -0.70034
C          4.93476         1.39672        -0.75740
C          4.87789         4.21272        -0.32901
C          3.62798         6.39702        -0.39288
C          3.62458         7.81649        -0.31461
C          4.85445         5.65550        -0.10920
C          4.76850         8.54126         0.22467
C          3.74223        10.71998        -0.48880
C          3.55288        12.12850         0.03812
C          4.77842         9.91149         0.24830
C          4.70189        12.85280         0.70144
C          3.56386        14.98369         0.05565
C          3.58514        16.37274        -0.29049
C          4.75487        14.30421         0.27438
C          4.80907        17.08103        -0.28039
C          3.61785        19.09639        -1.14423
C          4.77274        18.58732        -0.32165
C          6.13364         2.06999        -0.44371
C          6.08574         3.48304        -0.17779
C          7.37776         1.38877        -0.39764
C          7.29599         4.15333         0.17166
C          5.97275         6.31243         0.35633
C          5.91032         7.74666         0.85282
C          7.21808         5.56475         0.61100
C          7.25134         8.45440         0.66859
C          5.95998        10.64058         0.85687
C          6.00179        12.11979         0.54076
C          7.20604         9.90344         0.41722
C          7.22045        12.81562         0.48066
C          6.00705        14.97753         0.13665
C          6.02699        16.38689        -0.11741
C          7.23825        14.27348         0.29557
C          7.27689        17.08324        -0.24480
C          6.09631        19.20987        -0.64285
C          7.28518        18.51645        -0.50146
C          8.58146         2.08125        -0.19213
C          8.51772         3.49385         0.08412
C          9.84006         1.39697        -0.18718
C          9.77186         4.26931         0.10149
C          8.50325         6.33251         0.83204
C          8.46118         7.80776         0.70743
C          9.79138         5.66100         0.56436
C          9.73700         8.51855         0.68402
C          8.50432        10.66475         0.35368
C          8.45579        12.11463         0.55378
C          9.75150         9.92609         0.60202
C          9.72299        12.81548         0.65968
C          8.44580        14.97459         0.15208
C          8.48344        16.37457        -0.14073
C          9.72888        14.30811         0.41879
C          9.75697        17.07651        -0.20103
C          8.54981        19.18850        -0.55616
C          9.75263        18.50908        -0.35105
C         11.06659         2.05414        -0.02300
C         11.08918         3.53456        -0.00916
C         12.30298         1.38758         0.04983
C         12.30925         4.24214         0.41810
C         10.98863         6.35409         0.64886
C         10.96983         7.79888         0.79635
C         12.26434         5.64618         0.61980
C         12.19405         8.50905         0.87625
C         10.97540        10.64500         0.68260
C         10.99436        12.08017         0.51729
C         12.17494         9.91872         0.85689
C         12.18920        12.81246         0.38790
C         10.96125        14.89907        -0.23359
C         10.98090        16.39901        -0.10210
C         12.23112        14.20737         0.17550
C         12.22008        17.09312        -0.01480
C         11.00828        19.19881        -0.27427
C         12.19518        18.52955        -0.06529
C         13.52697         2.08758         0.23822
C         13.51753         3.52311         0.50456
C         14.75014         1.41847         0.17096
C         14.72718         4.20321         0.82568
C         13.47294         6.33265         0.90942
C         13.47489         7.79289         0.99383
C         14.67855         5.60489         1.05815
C         14.65657         8.47563         1.14791
C         13.46547        10.61976         0.54044
C         13.48315        12.14118         0.77903
C         14.67252         9.98488         1.22791
C         14.69963        12.75632         0.08383
C         13.46661        14.93707         0.18031
C         13.45970        16.38031         0.10209
C         14.70422        14.25271         0.25230
C         14.70628        17.08273         0.11648
C         13.45747        19.32501         0.16926
C         14.73452        18.52328         0.06657
C         15.99759         2.07833         0.41329
C         15.98811         3.49053         0.80188
C         17.18976         1.39354         0.28129
C         17.20281         4.15767         0.97931
C         15.90433         6.29282         1.51410
C         15.91436         7.80772         1.65831
C         17.22561         5.57025         1.39919
C         17.21879         8.47286         1.22514
C         15.97205        10.55753         0.59615
C         15.97543        12.06724         0.50407
C         17.19605         9.93204         1.23118
C         17.18056        12.76823         0.40387
C         15.94491        14.93373         0.20244
C         15.94244        16.37605         0.15033
C         17.16784        14.21103         0.19913
C         17.18554        17.07032         0.11404
C         15.93247        19.19581        -0.00295
C         17.19104        18.50703         0.00152
C         18.48067         1.99836         0.74228
C         18.45657         3.50567         0.74061
C         19.72920         1.42196         0.12656
C         19.63916         4.22738         0.70360
C         18.49656         6.33021         1.33054
C         18.46827         7.79058         1.31030
C         19.66863         5.62070         1.08057
C         19.67862         8.49649         1.11987
C         18.49437        10.71478         0.96287
C         18.42288        12.06996         0.46034
C         19.70215         9.89903         0.56321
C         19.68504        12.71903        -0.04267
C         18.42775        14.90547         0.18807
C         18.41903        16.36396         0.16300
C         19.63220        14.20834         0.19880
C         19.64417        17.07256         0.06377
C         18.39971        19.19805        -0.10692
C         19.64530        18.50923        -0.10677
C         20.83406         2.15058        -0.11681
C         20.81029         3.66941        -0.08171
C         22.12386         1.45096        -0.49167
C         22.16312         4.25691         0.25619
C         20.97257         6.27974         1.28184
C         20.95059         7.80008         1.30618
C         22.27879         5.48999         1.12766
C         22.19562         8.53162         0.90991
C         20.95572        10.71632         0.80300
C         20.95021        12.05494         0.50472
C         22.20998        10.01367         1.14313
C         22.19090        12.80500         0.40994
C         20.89278        14.94147         0.56649
C         20.88539        16.37845         0.11130
C         22.15386        14.19217         0.22435
C         22.09560        17.04541        -0.10018
C         20.86132        19.18612        -0.27391
C         22.10496        18.48563        -0.35033
C         23.18746         2.40423        -1.05404
C         23.29693         3.66809        -0.22372
C         24.49579         1.69410        -1.23153
C         24.60412         4.28430        -0.02580
C         23.48832         6.32938         0.73930
C         23.47922         7.80053         0.72930
C         24.65222         5.67443         0.37302
C         24.76513         8.53592         0.73996
C         23.51535        10.72629         0.92538
C         23.46782        12.12466         0.46822
C         24.76749         9.96260         0.71637
C         24.64810        12.75870         0.11673
C         23.34523        14.91871        -0.04347
C         23.32562        16.30929        -0.13448
C         24.57039        14.14125        -0.47064
C         24.60684        17.09920        -0.14467
C         23.27403        19.13813        -0.71177
C         24.53871        18.37935        -1.00625
C         25.70802         2.27790        -0.94658
C         25.77476         3.62490        -0.38726
C         26.93410         1.60802        -1.27519
C         27.06388         4.25851        -0.20086
C         25.92906         6.36635         0.35954
C         25.96631         7.80472         0.57875
C         27.10821         5.64597         0.19579
C         27.20880         8.49609         0.47640
C         25.95106        10.69224         0.51997
C         25.92559        12.08990         0.20960
C         27.24752         9.97056         0.76874
C         27.13094        12.80976        -0.04547
C         25.85686        14.92462        -0.37223
C         25.83236        16.28441        -0.46409
C         27.11968        14.19190        -0.36357
C         27.05915        17.03756        -0.91480
C         25.79786        19.16740        -0.73345
C         27.00698        18.51824        -0.62408
C         28.16043         2.22488        -1.09172
C         28.22927         3.54266        -0.51216
C         29.37360         1.58361        -1.55945
C         29.56478         4.14447        -0.32291
C         28.40973         6.32560         0.60191
C         28.41690         7.80735         0.29208
C         29.66935         5.58574         0.16025
C         29.63850         8.50323         0.08136
C         28.46068        10.66892         0.23125
C         28.45379        12.16931         0.35146
C         29.63789         9.95879         0.02618
C         29.66456        12.80012        -0.27191
C         28.33068        14.93217        -0.48854
C         28.34063        16.33607        -0.56449
C         29.61224        14.21000        -0.77602
C         29.54043        17.07986        -0.47828
C         28.23697        19.19483        -0.39959
C         29.47486        18.52144        -0.37706
C         30.56925         2.23737        -1.58735
C         30.70816         3.56292        -1.04587
C         31.88649         4.28199        -1.12834
C         30.87363         6.34141        -0.22911
C         30.86723         7.79619        -0.12600
C         31.95433         5.64911        -0.75269
C         32.05629         8.52496        -0.27361
C         30.88603        10.66145        -0.20450
C         30.86295        12.11044        -0.37199
C         32.06514         9.92599        -0.29714
C         32.06643        12.86241        -0.62812
C         30.87288        14.99085        -0.51112
C         30.81813        16.41405        -0.40074
C         32.07227        14.24914        -0.57946
C         31.98202        17.20208        -0.22875
C         30.68212        19.25198        -0.20148
C         31.90542        18.59492        -0.13283
O         22.94719        10.50024         2.29172
O          9.83803        13.82282         1.77669
O          7.75858         5.78378         1.99026
O         29.92780         4.46945         1.07826
O         10.48001         4.12884        -1.20457
O         21.02830         7.03292         2.55413
O         16.51294         5.68618         2.70945
O          7.75166        10.26518        -0.87720
O         17.93554        10.56219         2.30877
O         22.57578         8.24736        -0.47963
O         15.90093         8.07206         3.10784
H         16.37188         7.30623         3.52534
O         13.50583        20.47278        -0.68897
H         13.56349        20.16014        -1.61476
O         10.77638        14.61556        -1.66718
H         11.54452        14.99195        -2.14647
O         24.39452        13.92627        -1.92069
H         24.18671        14.79645        -2.32493
O         27.02053        16.95574        -2.40362
H         27.26543        16.03666        -2.65229
O         19.74591        12.51758        -1.49852
H         19.65931        11.54067        -1.64002
O         22.57741         4.97009         2.46278
H         22.34799         5.68631         3.09985
O          4.28938        10.88309        -1.86313
H          3.59861        11.33397        -2.39476
O         24.78368        17.57912         1.22654
H         24.73509        16.80612         1.82786
O         24.48734        18.00797        -2.41127
H         25.39270        17.69238        -2.66826
O         18.58106         1.63946         2.17742
H         19.26901         2.21395         2.57754
O         28.40757         6.28835         2.06748
H         28.79706         5.41640         2.31637
O         19.59773         9.76755        -0.90700
H         20.35099         9.21206        -1.20832
O         28.57194        12.46611         1.79797
H         28.09942        11.73471         2.27530
O         13.55244        10.36749        -0.89432
H         12.89529        10.94148        -1.34284
O         22.68007         0.83129         0.67214
H         21.96531         0.36009         1.14706
O         20.51766         4.10585        -1.45360
H         21.19933         3.68275        -2.03864
O          5.65300         7.65105         2.28139
H          6.35174         7.05916         2.65026
O         13.63918        12.48457         2.16865
H         12.97447        11.99416         2.69502
O         16.10405        10.06635        -0.76894
H         15.26489        10.28830        -1.24843
O         29.57405        14.06994        -2.27486
H         30.42818        13.65912        -2.53467
O         14.62539        10.32482         2.62185
H         15.22641         9.70878         3.10968
O         20.89115        15.00225         2.04954
H         20.08680        15.49529         2.32045
O          4.40625        12.86004         2.17642
H          5.08253        13.43284         2.60062
O         27.40684        10.03295         2.26933
H         28.00751         9.29722         2.52425
O          4.46616        19.01898         1.07246
H          3.61581        18.59520         1.31948
O          2.00560        14.18647         1.70399
H          2.75094        13.66484         2.09801
O         14.57738        12.56388        -1.36952
H         15.39123        12.93032        -1.77769
O         22.72120         2.77594        -2.39900
H         23.41546         3.33234        -2.81162
O          5.91604        10.52341         2.30747
H          5.13721        11.04332         2.61588
H          0.40521         1.58097        -1.59263
H          0.34907         4.02848        -1.35199
H          2.53797         0.32091        -1.32796
H          0.38620         5.92110        -1.44266
H          0.38321         8.34527        -1.37848
H          0.35955        10.24120        -1.25486
H          0.33539        12.65955        -0.99328
H          0.09096        14.51821        -0.27558
H          0.26155        16.79168        -1.14030
H          1.59177        18.78053        -1.75641
H          4.95209         0.31142        -0.93590
H          3.65977        20.12184        -1.54007
H          7.40008         0.30472        -0.58367
H          6.12166        20.29411        -0.83198
H          9.83424         0.30108        -0.28894
H          8.56228        20.27944        -0.69942
H         12.33167         0.29254        -0.05564
H         11.01808        20.29651        -0.34782
H         14.76321         0.34391        -0.06563
H         13.40308        19.73022         1.22025
H         17.17970         0.33354        -0.01448
H         15.92872        20.29467        -0.05673
H         19.77738         0.32225         0.04502
H         18.39255        20.29304        -0.21319
H         21.90836         0.65960        -1.26950
H         20.85608        20.27727        -0.41620
H         24.47123         0.69183        -1.68545
H         23.24144        20.21607        -0.93609
H         26.88562         0.61143        -1.73817
H         25.74711        20.26119        -0.61296
H         29.29103         0.56536        -1.96635
H         28.22230        20.28444        -0.24361
H         31.45830         1.75305        -2.01735
H         32.76539         3.82373        -1.60472
H         32.88057         6.18680        -0.99704
H         33.01502         8.00037        -0.37716
H         33.03071        10.43451        -0.41796
H         33.02689        12.33833        -0.71891
H         33.04087        14.76943        -0.59260
H         32.96620        16.71878        -0.16462
H         30.63670        20.34723        -0.11884
H         32.82831        19.17643         0.00230
