         404
 CSIRO Nanostructure Databank - Neutral Graphene Oxide Data Set
C          1.32529         3.33498        -0.32873
C          0.14476         4.03947        -0.66665
C          1.27747         6.22689        -0.42789
C          0.08028         5.41282        -0.67412
C          1.12698         7.69035        -0.09360
C          0.14284         8.48392        -0.84209
C          1.29998        10.59882        -0.34114
C          0.17901         9.84160        -0.85839
C          1.33810        12.06710        -0.51122
C          0.27595        12.80423        -1.05594
C          1.30021        14.93559        -0.42478
C          0.26823        14.20581        -1.02810
C          1.17600        16.38625        -0.11586
C          0.17935        17.23297        -0.79199
C          1.31396        19.32668        -0.14325
C          0.26917        18.60121        -0.78210
C          1.33661        20.74413        -0.07440
C          0.19198        21.52613        -0.40496
C          1.29088        23.56106         0.35404
C          0.15129        22.87853        -0.14297
C          1.23389        24.95238         0.75005
C         -0.01455        25.55485         1.02819
C          1.13131        27.54490         1.73251
C         -0.06320        26.81958         1.58761
C          1.16267        29.81778         1.44263
C          0.01889        30.57635         1.24851
C          1.22532        32.03298        -0.24198
C          0.02883        31.64533         0.33103
C          1.31201        33.09688        -1.32014
C          0.04574        33.85594        -1.61142
C          1.26276        35.95875        -1.92704
C          0.05310        35.17462        -1.93674
C          1.27916        37.32512        -2.28442
C          3.65471         3.32698         0.47000
C          2.49797         4.00663         0.05767
C          3.55305         6.15380         0.87631
C          2.53344         5.49170        -0.03338
C          3.60376         7.69279         0.77455
C          2.32065         8.45353         0.47945
C          3.65560        10.64059         0.35895
C          2.37154         9.91028         0.21487
C          3.54234        12.11036         0.58862
C          2.44708        12.81005        -0.00529
C          3.58566        14.95854         0.57465
C          2.42705        14.23612         0.08476
C          3.62655        16.37296         0.63412
C          2.34361        17.09856         0.53541
C          3.71933        19.24618         0.63683
C          2.34670        18.61307         0.69953
C          3.73052        20.70194         0.65507
C          2.52437        21.42262         0.38018
C          3.71557        23.56112         0.78920
C          2.50911        22.84496         0.50117
C          3.70526        24.98050         0.92914
C          2.43915        25.68341         0.96487
C          3.61570        27.91085         1.42104
C          2.37745        27.05991         1.32327
C          3.63064        29.34243         0.95993
C          2.41434        30.10897         0.81535
C          3.69144        31.97296        -0.15152
C          2.43902        31.34943         0.10452
C          3.65086        33.47112        -0.30447
C          2.47912        34.00209        -1.07217
C          3.69725        36.10209        -1.44549
C          2.47761        35.33609        -1.47455
C          3.69190        37.46732        -1.85488
C          2.45013        38.06473        -2.24442
C          6.12078         3.31794         0.68279
C          4.89538         4.02089         0.67111
C          6.12055         6.13413         0.63216
C          4.89578         5.44886         0.72945
C          6.13552         7.54301         0.36565
C          4.92451         8.38542         0.60193
C          6.24957        10.54768         0.80704
C          4.95264         9.89503         0.39810
C          6.37375        11.78335         1.52540
C          4.49426        12.85853         1.25497
C          6.01730        14.89873         1.13902
C          4.73480        14.25203         1.02354
C          6.07198        16.30484         0.98235
C          4.84530        17.04502         0.85059
C          6.12391        19.18491         1.29402
C          4.85925        18.50314         0.83888
C          6.16763        20.66829         1.02219
C          4.93137        21.39938         0.91049
C          6.14073        23.55516         1.13173
C          4.93807        22.84479         0.93730
C          6.14996        24.97349         1.15841
C          4.91566        25.67609         1.12968
C          6.16584        27.86211         0.98601
C          4.92146        27.14640         1.33105
C          6.13213        29.22786         0.69540
C          4.86345        29.93656         0.58428
C          6.15300        31.99617        -0.13286
C          4.89174        31.30471         0.11173
C          6.14880        33.39430        -0.52087
C          4.94647        34.09267        -0.71913
C          6.15618        36.16358        -1.26600
C          4.93261        35.45097        -1.13457
C          6.14260        37.56302        -1.61211
C          4.90577        38.18995        -1.89288
C          8.60752         3.30192         0.55490
C          7.36977         3.99316         0.62883
C          8.60403         6.12181         0.40632
C          7.36264         5.42274         0.54201
C          8.61622         7.53427         0.12914
C          7.32421         8.06080        -0.14612
C          8.68501        10.57654         0.44128
C          7.37055        10.14631         0.11467
C          8.70093        11.95134         1.00068
C          7.42423        12.64500         1.28182
C          8.58535        14.85928         0.68469
C          7.29977        14.10829         1.01181
C          8.57663        16.34206         0.71762
C          7.35049        17.03720         0.90125
C          8.60117        19.16231         0.76579
C          7.38558        18.44705         0.93053
C          8.62598        20.61023         0.84167
C          7.38363        21.32929         1.03565
C          8.60716        23.53869         0.94185
C          7.40323        22.78419         1.44281
C          8.66465        24.97578         1.38700
C          7.39297        25.73158         1.22476
C          8.66720        27.87823         1.03709
C          7.39612        27.11149         1.07286
C          8.58922        29.23426         0.43819
C          7.38172        29.91086         0.36525
C          8.61499        32.00115        -0.29431
C          7.36849        31.30842        -0.04291
C          8.61417        33.40313        -0.56417
C          7.38081        34.09695        -0.71009
C          8.61614        36.20335        -1.14790
C          7.38065        35.48673        -1.04008
C          8.60214        37.62156        -1.42293
C          7.36593        38.26863        -1.66235
C         11.07073         3.30181         0.22078
C          9.84173         3.99104         0.46309
C         11.06554         6.20001         0.51666
C          9.82265         5.42275         0.45671
C         11.07255         7.65921         0.28193
C          9.82369         8.33349         0.13205
C         11.11640        10.51440         0.17336
C          9.81956         9.78898         0.23600
C         11.12985        12.00143         0.33212
C          9.95334        12.72687         0.88748
C         11.07745        14.85094         0.38748
C          9.91474        14.18982         0.75301
C         10.99268        16.29190         0.08000
C          9.77571        17.03890         0.48240
C         11.06104        19.17534         0.31516
C          9.81274        18.45776         0.50127
C         11.06243        20.60308         0.38983
C          9.83252        21.29774         0.63130
C         11.13300        23.48500         0.64616
C          9.83626        22.78110         0.57789
C         11.20218        24.82333         1.08398
C          9.99870        25.66554         1.42429
C         11.21487        27.87189         0.68740
C         10.00357        27.18385         1.22764
C         11.12479        29.09175        -0.12916
C          9.80072        29.84218        -0.14478
C         11.07954        31.97956        -0.50264
C          9.84438        31.30262        -0.31825
C         11.06356        33.38566        -0.67679
C          9.84621        34.10165        -0.72766
C         11.06350        36.26834        -1.01945
C          9.83969        35.52516        -0.98026
C         11.05208        37.68659        -1.21404
C          9.82019        38.33741        -1.44332
C         13.45055         3.35260        -0.45329
C         12.29076         3.97810         0.02562
C         13.57935         6.17861        -0.00838
C         12.37343         5.41743         0.35165
C         13.55532         7.59369         0.15703
C         12.34645         8.32540         0.27119
C         13.58616        10.48463         0.26428
C         12.40216         9.78056         0.26013
C         13.65985        11.95898         0.42726
C         12.39955        12.74120         0.57102
C         13.56722        14.85695         0.02269
C         12.35329        14.19147         0.30211
C         13.57736        16.29846        -0.09379
C         12.28938        17.03156        -0.11676
C         13.51034        19.18470        -0.02317
C         12.28569        18.48872         0.09924
C         13.48425        20.60499        -0.04509
C         12.28822        21.32086         0.17841
C         13.54729        23.48254         0.26534
C         12.32268        22.77259         0.34470
C         13.64973        24.82421         0.71409
C         12.48241        25.35046         1.30768
C         13.69910        27.88984         0.50235
C         12.48920        27.48787         1.09408
C         13.65699        29.07677        -0.44639
C         12.37305        29.87142        -0.29156
C         13.59886        31.98268        -0.37264
C         12.35230        31.24766        -0.45037
C         13.62344        33.42029        -0.62636
C         12.31669        34.13605        -0.87267
C         13.49229        36.33314        -0.67496
C         12.29840        35.61305        -0.80207
C         13.48999        37.73521        -0.90105
C         12.29579        38.38337        -1.19885
C         15.83800         3.37842        -1.00796
C         14.69219         4.05310        -0.61176
C         15.97792         6.21286        -0.62073
C         14.74265         5.49297        -0.38241
C         16.03724         7.62234        -0.41425
C         14.85917         8.28721         0.16008
C         16.08385        10.53426        -0.20994
C         14.88777         9.80066         0.25657
C         16.05815        11.95555        -0.27094
C         14.86427        12.69720         0.01691
C         16.01907        14.80121        -0.51232
C         14.79020        14.09345        -0.11371
C         16.01524        16.32140        -0.53452
C         14.75552        17.03271        -0.23055
C         15.98994        19.16762        -0.37174
C         14.76230        18.46966        -0.21700
C         16.01933        20.59894        -0.38015
C         14.72688        21.30660        -0.41044
C         16.03024        23.49520        -0.11757
C         14.74002        22.82086        -0.26631
C         16.02578        24.90792         0.08444
C         14.85310        25.62207         0.49017
C         16.09924        27.73549         0.10964
C         14.87418        27.06402         0.46735
C         16.21411        29.22689         0.02289
C         14.92337        29.91516        -0.29342
C         15.99705        32.07511         0.27798
C         14.81609        31.35961        -0.06271
C         15.95605        33.52066         0.19828
C         14.80492        34.18203        -0.23613
C         15.99088        36.38670        -0.21339
C         14.68528        35.66986        -0.03164
C         16.02472        37.76002        -0.53144
C         14.77271        38.54050        -0.87987
C         18.22154         3.42457        -1.85283
C         17.19056         4.02055        -0.93379
C         18.31239         6.24905        -1.34894
C         17.13626         5.52474        -1.02379
C         18.36826         7.66622        -1.16388
C         17.21504         8.36149        -0.66989
C         18.47090        10.51521        -0.83914
C         17.24814         9.80677        -0.54967
C         18.51909        11.93654        -0.71375
C         17.28975        12.66889        -0.49112
C         18.55626        14.79091        -0.36300
C         17.28880        14.06039        -0.46199
C         18.55760        16.33107        -0.36651
C         17.28129        17.07413        -0.47911
C         18.48925        19.21903        -0.76689
C         17.24284        18.45043        -0.51070
C         18.50176        20.66752        -0.48182
C         17.22702        21.33124        -0.38354
C         18.47621        23.48349        -0.32387
C         17.22705        22.77476        -0.29310
C         18.41583        24.87239        -0.48759
C         17.22557        25.59676        -0.25567
C         18.95277        28.05782         0.50293
C         17.19257        27.01168        -0.30953
C         18.49248        29.22501         1.17332
C         17.31189        29.99092         0.70023
C         18.19819        32.26361         1.38573
C         17.16367        31.39307         0.80677
C         18.28227        33.64946         1.01250
C         17.14677        34.29223         0.45004
C         18.39978        36.41857         0.28799
C         17.17137        35.69885         0.16792
C         18.43919        37.79584        -0.08812
C         17.24533        38.43778        -0.51376
C         19.29184         4.14603        -2.24640
C         20.58896         6.27160        -2.22493
C         19.42755         5.55516        -1.91748
C         20.67059         7.64307        -1.97382
C         19.57745         8.36556        -1.45565
C         20.83860        10.52537        -1.42272
C         19.64128         9.80252        -1.23398
C         20.89447        11.89892        -1.24050
C         19.74341        12.63979        -0.89489
C         20.96890        14.82216        -0.78477
C         19.80373        14.08429        -0.69734
C         20.97861        16.24905        -0.76052
C         19.83103        16.99970        -0.66458
C         21.01948        19.26380        -0.54120
C         19.81814        18.47711        -0.85407
C         20.95863        20.60885        -0.36374
C         19.71806        21.35146        -0.35235
C         20.81549        23.43768         0.48262
C         19.73286        22.79368        -0.12904
C         20.86662        24.78618         0.95719
C         20.16654        25.84661         0.41146
C         20.54599        27.51170         2.24135
C         19.92494        27.15786         1.02196
C         20.20780        28.69934         2.88022
C         19.20380        29.53117         2.35926
C         20.21989        32.60936         2.74846
C         19.11355        31.83796         2.36301
C         20.42733        33.85923         2.16937
C         19.44748        34.42101         1.33056
C         20.74490        36.53190         0.93219
C         19.55442        35.78989         0.84130
C         20.79821        37.86639         0.50091
C         19.66750        38.50239         0.01086
O          9.39352        27.90790         2.34211
O          1.26458        16.53686         1.36564
O         14.55930        22.18641        -1.57798
O          1.20534         8.02122         1.32731
O         18.88148        30.65973         3.10569
O         19.10646        18.89031        -2.06967
O         11.05242        11.45693        -1.01105
O         11.88344         5.77918         1.67492
O          4.37598        27.61034         2.63419
O          2.40275         6.01622        -1.38229
O         15.91093        29.66859        -1.36469
O          9.59616        12.13609         2.19076
O          1.05059        28.78301         2.37527
O         18.33749        27.72322        -0.71389
O         11.44495        16.63161        -1.27296
O         12.58301        26.50152         2.09216
O          4.48757        10.36776        -0.89497
O         13.12440        33.70342        -2.02214
O         15.89754        15.54569        -1.79738
O          9.35214        25.22270         2.65659
O         15.14324         8.96993         1.43974
O          7.23887         9.22378        -0.91682
O          8.90698        23.34121        -0.46256
O         19.57266        25.59287        -0.84720
O         10.26208        29.05471        -1.31495
O          7.76303        14.29817        -0.40693
O          5.26412        12.22552         2.23051
O          4.34043         8.16562         1.95225
O         18.61399        15.56647         0.89763
O         13.14672        12.36401         1.76952
O          7.53699        22.76604         2.89756
H          6.77819        22.26901         3.26911
O          3.07749         5.86451         2.21733
H          3.54574         6.48187         2.82318
O          3.43592        33.95650         1.08996
H          4.22361        33.69195         1.61246
O         14.63505        39.64795         0.02893
H         14.48890        39.28396         0.92627
O          6.05285        19.10489         2.77378
H          5.14041        19.35460         3.03680
O         14.37992        35.79073         1.42669
H         15.17955        35.49180         1.91240
O         13.62086        28.54019        -1.79226
H         14.50307        28.72593        -2.19609
O          1.62905        32.34501        -2.55969
H          1.67234        32.99652        -3.29194
O          1.93845        18.88134         2.08607
H          1.28737        18.17436         2.31306
O         17.67570         3.72674         0.44027
H         17.04250         4.14182         1.06490
H          1.30478         2.23586        -0.30431
H         -0.76612         3.46119        -0.87886
H         -0.88764         5.91529        -0.81249
H         -0.63512         7.95412        -1.41077
H         -0.60865        10.37560        -1.40720
H         -0.60042        12.29593        -1.48002
H         -0.60664        14.73042        -1.43656
H         -0.63072        16.75386        -1.35876
H         -0.49159        19.16524        -1.34153
H         -0.71013        21.03443        -0.79274
H         -0.77571        23.43228        -0.34446
H         -0.94443        24.98727         0.89379
H         -1.01205        27.26152         1.91666
H         -0.90047        30.30897         1.78449
H         -0.90682        32.17387         0.10519
H         -0.89339        33.28774        -1.68314
H         -0.88681        35.67625        -2.21420
H          0.34076        37.80457        -2.59990
H          3.65275         2.22650         0.48812
H          2.44060        39.12433        -2.53779
H          6.10641         2.21745         0.66688
H          4.89353        39.25109        -2.18271
H          8.60749         2.20185         0.55325
H          7.35895        39.34362        -1.89579
H         11.03867         2.21224         0.07239
H          9.80524        39.42168        -1.62833
H         13.42685         2.27606        -0.67859
H         12.30319        39.46743        -1.38474
H         15.78908         2.29148        -1.17620
H         14.91463        38.99553        -1.89819
H         18.13510         2.35937        -2.11396
H         17.27427        39.50531        -0.77617
H         20.08371         3.68308        -2.85495
H         21.44848         5.74872        -2.66836
H         21.60679         8.16120        -2.22040
H         21.75975        10.00074        -1.70845
H         21.85511        12.41056        -1.38635
H         21.92848        14.31977        -0.96802
H         21.94228        16.74909        -0.93320
H         21.98173        18.74481        -0.42545
H         21.89481        21.15309        -0.17684
H         21.64512        22.80077         0.82706
H         21.52337        24.97134         1.82111
H         21.30253        26.85201         2.68737
H         20.69638        28.98304         3.82078
H         20.91288        32.21967         3.50503
H         21.31671        34.43857         2.45072
H         21.65669        36.06907         1.33377
H         21.74718        38.41619         0.57273
H         19.70961        39.55746        -0.29462
