         252
 CSIRO Nanostructure Databank - Neutral Graphene Oxide Data Set
C         30.39024        31.62403         0.20238
C         30.39480        32.77881         0.66527
C         30.36502        36.03444         1.09771
C         30.36782        37.25863         0.95342
C         30.62055        40.57887        -0.04149
C         31.29194        41.77701        -0.01710
C         32.79623        28.99333        -1.06457
C         31.73645        29.56435        -0.74838
C         32.71164        31.66026        -0.28815
C         31.53944        30.88942        -0.23955
C         32.71722        33.11750         0.01054
C         31.41144        33.81103         0.49270
C         32.78743        35.86593         0.91283
C         31.50420        35.07349         1.30360
C         32.73726        37.36310         1.19472
C         31.50373        38.07149         0.47727
C         32.95317        40.10497        -0.29469
C         31.58891        39.45748        -0.07089
C         32.77657        41.59125        -0.10113
C         30.51491        43.05579        -0.04483
C         32.68221        44.36716        -0.09831
C         31.47721        44.19002        -0.15861
C         35.44863        27.49453        -1.29646
C         35.40181        28.99209        -1.47154
C         34.06462        29.67859        -1.32745
C         35.27217        31.71177        -0.25900
C         34.00526        31.09457        -0.75671
C         35.20914        33.07634         0.22238
C         34.01385        33.77780         0.32910
C         35.27761        35.91697         1.01928
C         33.96466        35.19493         0.69588
C         35.29040        37.36417         0.51996
C         34.05526        38.12117         0.98036
C         35.37577        40.19301         0.19803
C         34.08989        39.53281         0.50845
C         35.29546        41.61065        -0.34869
C         33.93632        42.32368        -0.07280
C         35.19251        44.53248        -0.43544
C         34.01956        43.82663         0.21940
C         35.34683        45.98505        -0.34922
C         37.87059        27.38570        -1.15182
C         36.46567        26.83953        -1.04835
C         37.78054        28.82108        -0.58771
C         36.43061        29.47828        -0.37472
C         37.73528        31.63374         0.05688
C         36.46065        30.99074        -0.23250
C         37.76244        33.01122         0.33171
C         36.48840        33.68558         0.77453
C         37.77176        35.91004         0.25785
C         36.49394        35.17317         0.49570
C         37.83359        37.39119         0.37326
C         36.60152        38.11148         0.90111
C         37.82754        40.23065         0.29625
C         36.56223        39.54788         0.41554
C         37.81172        41.69209         0.39512
C         36.48879        42.42009         0.16812
C         37.83004        44.60960         0.06708
C         36.59020        43.84127        -0.26774
C         37.76245        46.02893        -0.04752
C         36.49219        46.46182        -0.53210
C         40.14611        24.50768        -0.10248
C         39.15170        25.23142        -0.31453
C         40.19868        27.31282        -0.30212
C         39.00478        26.62843        -0.54151
C         40.22765        28.75822        -0.32671
C         38.97188        29.48679        -0.32375
C         40.20451        31.58177         0.18617
C         38.96883        30.90866        -0.02481
C         40.22827        33.01404         0.38252
C         38.99800        33.73037         0.38533
C         40.24887        35.84936         0.22201
C         39.04059        35.15749         0.34123
C         40.24477        37.27658        -0.31088
C         38.98832        38.05719         0.08536
C         40.24774        40.27163         0.01142
C         39.02747        39.53106         0.13561
C         40.27633        41.67524         0.16577
C         39.06822        42.44553         0.30623
C         40.33264        44.51645         0.60883
C         39.04647        43.86589         0.37026
C         40.50244        45.81641         1.11676
C         38.74544        46.97434         0.37697
C         40.27161        48.70635        -0.41454
C         39.11361        48.14100        -0.27882
C         42.79933        24.51919        -0.12567
C         41.47064        25.03214         0.21505
C         42.70461        27.30638        -0.45031
C         41.45749        26.58748         0.01412
C         42.72690        28.76958        -0.24494
C         41.44753        29.46295        -0.15391
C         42.69833        31.52861         0.39869
C         41.42454        30.86155         0.05998
C         42.69448        32.99126         0.73375
C         41.44677        33.74268         0.49446
C         42.76128        35.84687         0.03344
C         41.47438        35.14106         0.30746
C         42.81788        37.32426         0.02485
C         41.49268        38.08520         0.16026
C         42.79769        40.23055        -0.26486
C         41.47461        39.50613        -0.48268
C         42.76500        41.68209         0.03602
C         41.55052        42.37931         0.16443
C         42.79736        44.49703         0.34990
C         41.55760        43.78764         0.40410
C         42.86297        45.92746         0.50650
C         41.73010        46.51486         1.09723
C         42.60537        48.59864        -0.58160
C         41.44706        49.15858        -0.87712
C         43.84950        25.17171        -0.22041
C         45.26479        27.36141        -0.54558
C         44.03269        26.57174        -0.63768
C         45.19678        28.77952        -0.51400
C         43.93706        29.43879        -0.26032
C         45.24583        31.49086         0.48601
C         43.97477        30.95319        -0.19610
C         45.25779        32.93859         0.88579
C         43.97963        33.77779         1.00692
C         45.29828        35.87896         0.54816
C         44.08419        35.10381         0.27408
C         45.29916        37.28794         0.41355
C         44.02710        37.97565         0.12609
C         45.15410        40.25784         0.69974
C         44.06010        39.46516        -0.00615
C         45.26911        41.65154         0.10093
C         44.00148        42.37699         0.02882
C         45.18731        44.52403        -0.32602
C         43.99217        43.78160         0.10454
C         45.31795        46.02099         0.04315
C         43.98544        46.71811         0.00347
C         43.76915        47.97911        -0.52139
C         47.73010        27.24216        -0.09797
C         46.57864        26.86163        -0.43710
C         48.22257        28.55069        -0.36158
C         46.37274        29.62742        -0.60560
C         47.77486        31.53563         0.22559
C         46.51185        30.87159         0.02209
C         47.74227        32.97979         0.57397
C         46.53268        33.66194         0.79286
C         47.76468        35.84177         0.90979
C         46.47082        35.13201         1.17027
C         47.72319        37.32097         1.01550
C         46.46793        38.04217         0.74448
C         47.81250        40.30734         0.70654
C         46.49584        39.52515         0.82196
C         47.82699        41.81038         0.32575
C         46.45409        42.29744        -0.12492
C         47.68757        44.36652        -0.97493
C         46.41718        43.68747        -0.61695
C         47.44008        45.74860        -1.10039
C         46.47887        46.50579        -0.83123
C         50.38841        28.91938         0.78974
C         49.12130        29.39201         0.28941
C         50.28165        31.68085         0.09465
C         49.01533        30.83330         0.21505
C         50.23659        32.92949         0.96891
C         48.96820        33.69822         0.81230
C         50.22636        35.86490         1.18070
C         48.95057        35.10999         1.00440
C         50.20622        37.21575         0.50149
C         49.05253        38.07615         0.91983
C         50.34089        40.15771        -0.04009
C         49.19823        39.61293         0.84962
C         50.21229        41.53716        -0.74372
C         48.90770        42.24900        -0.68267
C         49.94601        43.90552        -2.04145
C         48.81329        43.55533        -1.22411
C         51.45107        29.55704         0.89190
C         52.77946        31.70794         0.72056
C         51.92813        30.69463         0.11368
C         52.71141        32.88944         1.06439
C         51.50533        33.64694         1.42467
C         52.58809        35.88962         0.74650
C         51.52520        35.13317         1.42983
C         52.59145        36.98367         0.17913
C         51.41674        37.80176        -0.17476
C         52.31818        39.91460        -1.27434
C         51.44722        39.24131        -0.47224
C         52.31686        41.06316        -1.85555
C         51.26033        41.93551        -1.78911
C         50.91782        43.19213        -2.35866
O         33.97149        30.80511        -2.22336
O         36.89220        35.45316        -0.87568
O         35.90274        44.00168        -1.54963
O         47.45971        29.18601        -1.38176
O         50.83173        41.38701         0.57362
O         31.48521        38.27748        -0.94154
O         50.86101        35.82548         2.50067
O         39.41471        46.60139         1.57266
O         43.18229        26.88949        -1.77430
O         50.39396        37.09092        -0.95158
O         45.24291        31.83485         1.89038
O         43.76508        39.93143        -1.36031
O         31.84532        33.92518        -0.86434
O         45.46357        44.07262        -1.68623
O         44.03002        31.35402        -1.54079
O         34.10709        39.20758         1.96331
O         29.31540        43.13986         0.03774
O         47.16801        40.09341         2.00427
O         48.51596        37.71881         2.20434
O         43.51940        35.19759        -1.05317
O         36.91296        42.16233         1.50252
O         41.50495        25.93696         1.32903
O         42.61219        31.96026         1.79427
O         50.68509        32.93139         2.36563
O         36.44446        33.50975         2.22955
H         36.41630        32.54775         2.42164
O         50.29633        32.18345        -1.22961
H         50.06166        31.46103        -1.85013
O         52.21108        30.38445        -1.19676
H         52.77449        31.07881        -1.59224
O         35.47630        41.50012        -1.77493
H         34.73134        40.94799        -2.12278
O         49.65989        39.98551         2.16701
H         49.01775        39.60664         2.81213
O         48.14095        42.52819         1.54192
H         48.93848        42.10111         1.93481
O         36.74556        38.14582         2.33476
H         35.94027        38.57605         2.70314
O         33.33633        39.86427        -1.66991
H         32.91293        39.01652        -1.94963
O         32.42613        37.44148         2.60797
H         32.82302        38.27531         2.95479
O         41.33399        38.33507         1.57750
H         41.36153        37.48345         2.06210
O         34.25842        43.99426         1.63356
H         33.43911        43.76385         2.11918
O         31.65127        34.73696         2.67202
H         31.76901        35.58213         3.16577
O         35.95976        29.28243        -2.74276
H         35.27214        29.70258        -3.30757
O         41.29857        39.43354        -1.91798
H         42.20100        39.45819        -2.31980
O         43.86583        34.17428         2.39332
H         43.86843        33.34452         2.92241
O         41.77429        47.74463         1.66167
H         40.86742        47.95861         1.97909
O         35.13366        37.38731        -0.91168
H         35.79002        36.75743        -1.30859
O         35.34664        35.97052         2.45580
H         35.57818        35.07108         2.78766
O         35.93417        29.01994         0.91212
H         35.83976        28.04101         0.87353
O         46.29642        35.19697         2.62964
H         46.99680        34.65598         3.05265
O         45.79348        46.04752         1.38651
H         45.67728        46.95228         1.74601
O         40.25242        37.07422        -1.73420
H         40.41500        37.94847        -2.17004
O         44.64689        40.42186         2.04425
H         45.41140        40.66097         2.61768
O         38.16818        27.52233        -2.53954
H         37.44881        28.05991        -2.95265
