         224
 CSIRO Nanostructure Databank - Neutral Graphene Oxide Data Set
C        -11.15235         0.68586         0.47749
C         -9.95794         1.45673         0.16780
C         -8.71673         0.71614        -0.07520
C         -7.56220         1.40878        -0.47257
C         -6.29233         0.68109        -0.64830
C         -4.96489         1.41903        -0.60976
C         -3.76448         0.72819         0.03614
C         -2.45250         1.36634        -0.49030
C         -1.11336         0.76725        -0.22667
C          0.09790         1.44300        -0.57685
C          1.32915         0.72474        -0.46638
C          2.57680         1.44766        -0.39323
C          3.75114         0.74537        -0.08971
C          4.92904         1.49612         0.31388
C          6.23727         0.73155         0.43937
C          7.49222         1.46150         0.11716
C          8.78993         0.69609         0.09183
C         10.04381         1.46594         0.26081
C         11.24312         0.66224         0.38955
C         -9.98498         2.82240         0.12634
C         -8.85699         3.67021        -0.40602
C         -7.56893         2.87403        -0.66891
C         -6.24297         3.62937        -0.62708
C         -4.94968         2.90177        -0.55235
C         -3.76653         3.57364        -0.68152
C         -2.48955         2.81766        -0.89579
C         -1.17833         3.59447        -1.13892
C          0.09476         2.85350        -0.74305
C          1.32343         3.57086        -0.63529
C          2.57630         2.87973        -0.46313
C          3.80417         3.61318        -0.29633
C          4.95807         2.94671         0.11423
C          6.20924         3.66897         0.43354
C          7.52367         2.92610         0.40359
C          8.81060         3.64495         0.16823
C         10.02957         2.84618         0.23931
C         -8.61931         4.94486         0.37562
C         -7.41249         5.65643         0.31562
C         -6.21495         5.03745        -0.18478
C         -5.00081         5.74779        -0.22082
C         -3.77837         5.05882        -0.71598
C         -2.45733         5.79930        -0.64144
C         -1.22325         4.96916        -0.49528
C          0.08374         5.70440        -0.32572
C          1.32394         4.98470        -0.59925
C          2.56149         5.74147        -0.81885
C          3.84894         5.06114        -0.53451
C          5.00812         5.77066        -0.35108
C          6.22511         5.18497         0.34238
C          7.49825         5.75053        -0.34417
C          8.78408         4.99676        -0.03327
C         -7.30656         7.00213         0.79142
C         -6.11117         7.71945         0.70007
C         -4.93735         7.09962         0.17634
C         -3.71411         7.94634        -0.13300
C         -2.41911         7.17095        -0.11409
C         -1.19772         7.82001         0.09966
C          0.06001         7.16862        -0.17043
C          1.24787         7.89735        -0.20660
C          2.49524         7.26115        -0.69278
C          3.78338         8.01541        -0.56126
C          5.09023         7.23484        -0.51633
C          6.33227         7.92636        -0.06136
C          7.51138         7.23511        -0.03125
C         -6.03483         9.09590         1.16111
C         -4.85967         9.78638         1.17409
C         -3.62968         9.21057         0.68922
C         -2.41535         9.82249         0.89578
C         -1.16952         9.20522         0.51763
C          0.05662         9.87465         0.61230
C          1.27640         9.26270         0.22976
C          2.53520         9.94489         0.36239
C          3.75050         9.36423         0.04020
C          5.01937         9.99965         0.30175
C          6.21760         9.33854         0.24369
C        -11.15047        -0.67349         0.51828
C         -9.92458        -1.43309         0.35667
C         -8.73530        -0.70258         0.11302
C         -7.47292        -1.44382         0.14671
C         -6.27215        -0.76430        -0.35225
C         -5.08497        -1.45527        -0.47381
C         -3.82531        -0.77721        -0.19238
C         -2.87968        -1.57392         0.38315
C         -0.95515        -0.49570         0.35668
C          0.12586        -1.34203         0.09361
C          1.33212        -0.69194        -0.26661
C          2.55046        -1.43514        -0.17425
C          3.85324        -0.72662        -0.40056
C          5.06823        -1.43611         0.16219
C          6.24086        -0.73983         0.30031
C          7.49967        -1.41682         0.65064
C          8.77601        -0.74332         0.40831
C          9.96733        -1.46439         0.50719
C         11.20921        -0.70330         0.46106
C         -9.92784        -2.84692         0.44112
C         -8.77729        -3.68826         0.42299
C         -7.45598        -2.95816         0.34798
C         -6.21710        -3.61046        -0.15319
C         -5.07676        -2.89996        -0.50107
C         -3.79653        -3.58612        -0.68659
C         -2.65712        -2.98434         0.05248
C         -1.26335        -3.57599        -0.00475
C          0.04488        -2.83186         0.44170
C          1.28945        -3.54813        -0.05055
C          2.51105        -2.82264        -0.02889
C          3.76190        -3.55673         0.24698
C          5.05401        -2.87057         0.28548
C          6.21902        -3.62646         0.42138
C          7.49061        -2.94841         0.71275
C          8.77184        -3.65689         0.53862
C          9.95424        -2.90178         0.56316
C         -8.96460        -5.09176         0.49172
C         -7.92361        -6.04892         0.80232
C         -6.11104        -5.01327         0.11791
C         -5.46261        -5.96967        -0.61278
C         -3.65230        -4.84687        -1.20449
C         -2.39048        -5.57158        -1.10913
C         -1.13053        -4.73031        -1.00952
C          0.11527        -5.56394        -0.81879
C          1.28323        -4.92895        -0.41407
C          2.61131        -5.61940        -0.67626
C          3.76139        -5.04173         0.09319
C          5.04024        -5.76602         0.03800
C          6.22767        -5.06322         0.28131
C          7.48553        -5.77969         0.36123
C          8.70826        -5.07680         0.43045
C         -7.71002        -7.39667         0.62434
C         -6.28115        -7.95221         0.85463
C         -5.33025        -7.35008        -0.19815
C         -4.26979        -8.07874        -0.66871
C         -2.36101        -6.92952        -1.24857
C         -1.14994        -7.79433        -1.21506
C          0.14325        -6.99077        -1.22789
C          1.43060        -7.69290        -1.06770
C          2.56518        -7.12714        -0.55717
C          3.74416        -7.88304        -0.17522
C          4.98057        -7.19570        -0.00031
C          6.20343        -7.90001         0.29623
C          7.41430        -7.20709         0.39676
C         -6.13733        -9.46542         0.81908
C         -4.97903       -10.08131         0.49171
C         -3.85680        -9.36292        -0.13821
C         -2.57829        -9.84819        -0.21255
C         -1.26254        -9.33577        -0.83419
C         -0.12528        -9.76371         0.13200
C          1.19192        -9.66740        -0.22764
C          2.44184        -9.98563         0.42432
C          3.64234        -9.27559         0.23098
C          4.87949        -9.92932         0.61201
C          6.09702        -9.31367         0.56020
O          0.09679        -2.91052         1.88501
H         -0.81190        -3.13633         2.19906
O         -3.17505         5.65265        -1.91949
O         -5.81795        -7.60801         2.18144
H         -5.98017        -6.64256         2.30604
O          4.09332        -0.76986        -1.86695
H          3.27679        -0.45245        -2.30966
O         -1.09271         3.82097        -2.56531
H         -1.45830         3.02142        -3.00751
O          5.53018         1.10481         1.64557
O          6.16583         5.70260         1.69209
H          6.52742         4.99977         2.28266
O         -0.48454        -7.45427        -2.49691
O         -4.77217        -5.50093        -1.76877
O         -1.94441        -0.97311         1.22527
O         -6.93000         3.34475        -1.90800
O         -3.89280         8.37561        -1.53329
H         -3.80023         7.56241        -2.08634
O         -5.47478         0.93496        -1.86971
O          2.94454        -5.32973        -2.07269
H          2.26046        -5.73985        -2.64379
O         -1.10835       -10.06265        -2.06060
H         -0.33076        -9.67605        -2.52481
O         -7.22370        -2.06843         1.48360
O          3.51034        -4.47533         1.40075
O         -0.99126        -4.06276        -2.30517
H         -0.95564        -4.75833        -2.99672
O          1.41805        -9.02752        -1.48472
O         -0.67087         5.03385         0.82589
O          7.28107         5.56931        -1.77264
H          7.93684         6.11002        -2.25957
O         -3.86536         1.01367         1.44854
H         -3.22011         0.43283         1.91413
O         -9.34603         4.16231        -1.69720
H         -8.54933         4.22948        -2.27892
O          7.45005        -2.13556         1.93097
O          4.60598         7.84414        -1.75294
O         -3.50079        -7.57687        -1.72819
O         -2.12785        -3.87861         1.12109
O         -2.60195         1.75130        -1.90186
O          6.88430         3.23960         1.67933
O          8.05245         1.06603        -1.16075
O          2.40522         6.61435        -1.99847
O         -6.78241        -5.36455         1.30301
H         12.15529        -1.25964         0.53845
H         12.21243         1.18209         0.42183
H         10.98740         3.38889         0.27235
H          9.73477         5.53172        -0.19550
H          8.45040         7.73731         0.24980
H          7.14140         9.88354         0.48998
H          5.00557        11.05638         0.60917
H          2.52722        10.95816         0.79265
H          0.07321        10.91699         0.96451
H         -2.37994        10.79942         1.40321
H         -4.82412        10.80017         1.60140
H         -6.95166         9.55997         1.55310
H         -8.20383         7.49452         1.19499
H         -9.51166         5.46660         0.75481
H        -10.93347         3.34611         0.32275
H        -12.08811         1.24015         0.64285
H        -12.08254        -1.22112         0.72161
H        -10.90655        -3.33496         0.57625
H         -9.99879        -5.45883         0.38728
H         -8.48890        -8.04601         0.19849
H         -6.95018       -10.05938         1.26479
H         -4.87619       -11.16868         0.63364
H         -2.43382       -10.84776         0.23389
H         -0.39663       -10.23745         1.08690
H          2.49047       -10.90438         1.03097
H          4.82477       -10.99103         0.89635
H          7.01030        -9.87698         0.80221
H          8.34013        -7.77647         0.57297
H          9.64919        -5.64861         0.41491
H         10.92161        -3.42594         0.52544
