         487
 CSIRO Nanostructure Databank - Neutral Graphene Oxide Data Set
C         38.11628        49.37528         1.92617
C         36.92849        49.70410         2.57778
C         36.92893        51.86140         1.49359
C         36.32440        50.94502         2.35385
C         40.07072        48.50674         0.00721
C         39.97860        49.84073         0.35797
C         38.74501        50.27560         1.04079
C         39.93900        52.94920         0.13118
C         38.13930        51.53377         0.86682
C         40.03561        54.32318         0.15766
C         42.46276        48.62202        -0.35843
C         41.28171        47.91996        -0.45298
C         42.42770        50.01637         0.04737
C         41.13234        50.70705         0.15162
C         42.44058        52.77995        -0.22078
C         41.10987        52.10098         0.12787
C         42.46139        54.28551        -0.03582
C         41.30668        54.98486         0.13533
C         45.07715        46.15952        -1.58207
C         43.86228        46.80205        -1.38966
C         44.91328        48.57418        -0.08566
C         43.76603        48.00400        -0.61297
C         44.79692        49.79896         0.79939
C         43.60114        50.64661         0.41440
C         44.88606        52.85483         0.75008
C         43.59238        52.12078         0.53622
C         45.03189        54.19691         0.06126
C         43.77389        54.94729        -0.26599
C         45.00633        57.08978        -0.03601
C         43.86057        56.42025        -0.33869
C         47.61807        44.64811        -1.70649
C         47.51430        45.92860        -1.09196
C         46.25585        46.60264        -0.95772
C         47.45458        48.52545         0.10404
C         46.16372        47.74152         0.02613
C         47.44736        49.89687         0.67437
C         46.13154        50.56317         0.94820
C         47.44872        52.83907         1.12606
C         46.14326        52.07867         1.08319
C         47.38081        54.37763         1.09454
C         46.37891        54.93360         0.06875
C         47.39384        57.14764         0.65090
C         46.24405        56.44004         0.29367
C         47.41896        58.57726         0.81803
C         49.99794        44.51344        -1.16544
C         48.81187        43.96052        -1.72078
C         49.94719        45.83217        -0.62648
C         48.70470        46.52164        -0.57167
C         49.86945        48.50137         0.56570
C         48.64471        47.86800        -0.04185
C         49.88511        50.00100         0.40227
C         48.69798        50.70294         0.53440
C         49.85720        52.86393         0.41151
C         48.70428        52.15018         0.69614
C         49.89762        54.32344         0.52161
C         48.70249        55.04749         0.78617
C         49.88816        57.19626         0.69725
C         48.66999        56.44711         0.73293
C         49.87249        58.61370         0.79098
C         48.59468        59.26743         0.90673
C         52.47134        41.66053        -1.51387
C         51.29854        42.38151        -1.52025
C         52.40389        44.38281        -0.65741
C         51.23486        43.76361        -1.11497
C         52.40679        45.75625        -0.25934
C         51.16755        46.47480        -0.18387
C         52.35723        48.51807         0.56631
C         51.16588        47.82603         0.22428
C         52.34698        49.98355         0.39339
C         51.14722        50.67401         0.26608
C         52.31697        52.88470        -0.29797
C         51.01070        52.09471        -0.25424
C         52.30832        54.36882        -0.12145
C         51.07804        55.06465         0.31322
C         52.33467        57.22189         0.48494
C         51.12126        56.48676         0.51735
C         52.34220        58.63966         0.61111
C         51.10093        59.34699         0.75514
C         52.33104        61.46751         0.73951
C         51.14710        60.77093         0.82383
C         55.00398        40.12923        -1.36300
C         54.92601        41.53016        -1.06688
C         53.70038        42.22138        -1.06832
C         54.89065        44.40038        -0.64666
C         53.64506        43.56356        -0.37523
C         54.92848        45.64864         0.25232
C         53.58131        46.36667         0.26033
C         54.92765        48.65257        -0.75922
C         53.49185        47.65116         0.83321
C         54.90011        50.03731        -0.14007
C         53.62315        50.75140         0.21455
C         54.81808        52.87024        -0.26689
C         53.62328        52.19684        -0.11283
C         54.82458        54.36684        -0.51029
C         53.62682        55.01112         0.25651
C         54.86757        57.17022         0.54628
C         53.59728        56.53625         0.01283
C         54.85336        58.65810         0.67845
C         53.57121        59.38999         0.57980
C         54.83726        61.55833         0.48624
C         53.58716        60.79757         0.62078
C         54.94685        62.93193         0.61265
C         57.41572        40.08502        -0.93590
C         56.17849        39.43431        -1.26108
C         57.40683        41.49181        -0.74156
C         56.16792        42.22222        -0.75285
C         57.40396        44.31319        -0.35375
C         56.18011        43.60618        -0.52539
C         57.38727        45.76227        -0.22661
C         56.14259        46.47207        -0.21131
C         57.35511        48.59967        -0.52364
C         56.15150        47.85846        -0.44258
C         57.33884        50.05405        -0.61437
C         56.12716        50.78590        -0.47448
C         57.32267        52.91022        -0.47321
C         56.09908        52.18737        -0.37379
C         57.32887        54.36514        -0.32834
C         56.14317        55.03906        -0.16757
C         57.38638        57.25337         0.03235
C         56.15667        56.46251         0.24835
C         57.36984        58.63899         0.06344
C         56.14470        59.38439         0.43283
C         57.39966        61.57042         0.03712
C         56.06448        60.83096         0.10334
C         57.41364        63.00821         0.34147
C         56.19288        63.63006         0.54442
C         59.85866        37.24637        -0.64753
C         58.68428        37.93319        -0.84328
C         59.87609        40.06748        -0.65366
C         58.64387        39.35768        -0.81490
C         59.86815        41.48362        -0.61273
C         58.64651        42.19514        -0.58877
C         59.88471        44.34466        -0.29427
C         58.63899        43.62509        -0.42703
C         59.86086        45.77005        -0.16114
C         58.60492        46.47233        -0.20269
C         59.80259        48.61471        -0.33406
C         58.60534        47.91196        -0.33080
C         59.85947        50.02691        -0.84122
C         58.55095        50.78038        -0.67092
C         59.80447        52.94904        -0.68299
C         58.53115        52.19080        -0.59213
C         59.82114        54.40572        -0.42912
C         58.59521        55.09460        -0.29909
C         59.84310        57.19635        -0.25086
C         58.61228        56.50855        -0.18180
C         59.84355        58.66492        -0.30102
C         58.59421        59.40849        -0.02682
C         59.88654        61.46708         0.64118
C         58.63423        60.77379         0.14610
C         59.91327        62.96307         0.43379
C         58.71020        63.68655         0.39725
C         59.98039        65.77807         0.43138
C         58.78095        65.11818         0.37952
C         62.33947        35.78643         0.08564
C         62.31077        37.18713        -0.12830
C         61.09578        37.92513        -0.43627
C         62.33272        40.06286        -0.22579
C         61.10994        39.33688        -0.49124
C         62.34632        41.48734        -0.21211
C         61.16798        42.23652        -0.75902
C         62.33857        44.36307        -0.05268
C         61.12138        43.66517        -0.27657
C         62.31635        45.79373        -0.03605
C         61.07995        46.47528        -0.07231
C         62.32814        48.66028        -0.22682
C         61.05443        47.95826         0.17412
C         62.32498        50.04660        -0.34140
C         61.01588        50.76744        -0.13756
C         62.35468        52.91353        -0.36374
C         61.08472        52.20217        -0.58248
C         62.32597        54.34784         0.03437
C         61.04845        55.08252        -0.30738
C         62.33322        57.20334        -0.12412
C         61.06710        56.49303        -0.26143
C         62.36763        58.57066         0.02526
C         61.16141        59.38112        -0.14666
C         62.39561        61.45658         0.40347
C         61.17319        60.78872         0.26880
C         62.40096        62.89776         0.55082
C         61.18100        63.63088         0.50692
C         62.45607        65.74975         0.68723
C         61.22615        65.07369         0.52198
C         62.55605        67.18911         0.60049
C         64.72996        35.82954         0.60738
C         63.49683        35.13877         0.49199
C         64.73394        37.20045         0.30263
C         63.53097        37.89464         0.01956
C         64.64832        40.03922         0.56244
C         63.52991        39.34116         0.02761
C         64.45411        41.38256         0.88933
C         63.45160        42.19120         0.29768
C         64.79173        44.39219         0.27398
C         63.57900        43.66077         0.20079
C         64.79343        45.82418         0.00669
C         63.56251        46.51729        -0.09054
C         64.76481        48.64152        -0.54090
C         63.55367        47.93829        -0.29157
C         64.74815        50.06863        -0.67027
C         63.53050        50.76996        -0.55081
C         64.78724        52.94610        -0.69538
C         63.54277        52.22574        -0.52397
C         64.79236        54.36175        -0.64064
C         63.58990        55.08300        -0.32158
C         64.82352        57.20468        -0.31641
C         63.58555        56.46109        -0.19711
C         64.83867        58.57354        -0.14844
C         63.63902        59.24442         0.45672
C         64.86622        61.42032         0.43734
C         63.63275        60.74410         0.32669
C         64.84792        62.82041         0.76902
C         63.65501        63.55583         0.74238
C         64.85879        65.66960         1.20542
C         63.68443        65.00801         0.90744
C         64.86647        67.13952         1.53265
C         63.68914        67.85117         0.92642
C         66.99890        33.31803         2.34551
C         65.93111        33.86654         1.70592
C         67.13903        35.91063         1.17562
C         65.94725        35.20980         1.16428
C         67.26861        37.19705         0.45592
C         66.01025        37.97919         0.09316
C         67.28379        40.13906         0.76541
C         65.95817        39.36223         0.75547
C         67.32709        41.59666         0.54963
C         66.30469        42.42339         0.89331
C         67.29232        44.45318         0.13684
C         66.12565        43.78974         0.41829
C         67.34068        45.94926         0.18042
C         66.01174        46.56214        -0.18338
C         67.24061        48.60341        -0.89909
C         66.00363        47.91962        -0.53176
C         67.13493        50.01539        -1.34975
C         65.95729        50.79846        -0.93820
C         67.22618        52.90938        -1.24537
C         65.98181        52.20030        -0.99421
C         67.22734        54.42216        -1.41611
C         66.00115        55.10688        -0.85878
C         67.29324        57.20799        -0.59064
C         66.03168        56.47445        -0.63462
C         67.30908        58.58391        -0.44613
C         66.03822        59.38825        -0.53120
C         67.34778        61.36195         0.31111
C         66.09973        60.72612         0.18130
C         67.39394        62.73286         0.88111
C         66.11585        63.45770         1.18042
C         67.27594        65.63774         0.58096
C         66.17598        64.96690         1.44420
C         67.35823        67.12126         0.88217
C         66.19456        67.82286         1.22824
C         67.44463        69.90720         1.23303
C         66.26637        69.21388         1.44346
C         69.39604        31.98234         3.35113
C         69.46799        33.48269         3.28628
C         68.17542        34.12439         2.70633
C         69.61930        36.09140         1.83252
C         68.27658        35.47135         2.00678
C         69.73181        37.34770         1.21561
C         68.54117        37.95190         0.57634
C         69.73621        40.06230         0.22734
C         68.54209        39.42322         0.43508
C         69.78132        41.49686        -0.00380
C         68.45918        42.21135        -0.24696
C         69.73140        44.37748        -0.49645
C         68.59406        43.68605         0.22286
C         69.72178        45.85490        -0.62515
C         68.55912        46.56434        -0.47447
C         69.71290        48.60402        -1.35887
C         68.46474        47.96309        -0.85575
C         69.68626        50.02537        -1.83372
C         68.38894        50.78136        -1.73376
C         69.69575        53.00999        -1.61893
C         68.39911        52.23243        -1.46634
C         69.66004        54.30077        -0.83506
C         68.50642        55.05499        -0.89111
C         69.76344        57.11092        -0.30382
C         68.51469        56.44589        -0.57433
C         69.81112        58.52931        -0.22889
C         68.59719        59.34473        -0.59983
C         69.81877        61.37157         0.26513
C         68.57132        60.70727         0.05177
C         69.85260        62.79320         0.48997
C         68.63802        63.52091         0.69153
C         69.83616        65.64781         0.53661
C         68.61241        64.91385         0.67248
C         69.83006        67.08500         0.52176
C         68.59231        67.81368         0.73079
C         69.85989        69.96248         0.61272
C         68.62638        69.23099         0.85983
C         69.89001        71.37689         0.59542
C         71.66131        31.73766         2.51540
C         70.45154        31.18470         3.01905
C         71.77073        33.11391         2.30828
C         70.71362        33.98771         2.57894
C         72.04075        36.04176         2.01025
C         70.79849        35.38428         2.18856
C         72.12553        37.31693         1.45723
C         70.97148        37.98667         1.01215
C         72.23781        40.08199         0.27526
C         71.00711        39.22805         0.10794
C         72.21305        41.42687         0.16411
C         70.98265        42.16900        -0.07412
C         72.25305        44.42895        -0.42963
C         71.02367        43.60572        -0.49971
C         72.22847        45.74942        -0.67553
C         70.99854        46.47370        -1.19233
C         72.22123        48.72952        -1.41414
C         71.02118        47.98620        -0.87698
C         72.20415        49.99711        -1.84728
C         70.96445        50.82684        -2.09873
C         72.11577        52.87969        -1.12481
C         70.94151        52.18114        -1.42373
C         72.11525        54.18164        -0.64030
C         70.87045        54.81913        -0.09752
C         72.11543        57.01130         0.27419
C         70.93606        56.33851        -0.07400
C         72.16146        58.40270         0.35083
C         71.01654        59.18694         0.08406
C         72.25866        61.36381         0.21247
C         71.04236        60.64937         0.17354
C         72.28323        62.74682         0.29322
C         71.08429        63.49635         0.42543
C         72.27597        65.68407         0.35560
C         71.07131        64.94028         0.45731
C         72.26249        67.05916         0.30983
C         71.04781        67.79212         0.39026
C         72.24589        69.97361         0.09680
C         71.06085        69.24717         0.36240
C         72.25047        71.36038         0.08416
C         71.06501        72.06697         0.33770
O         68.23027        37.18384        -0.67992
O         54.58628        50.37115         1.27287
O         60.55239        52.54258        -1.92015
O         69.63446        48.91419        -2.78688
O         54.20558        48.40019        -1.71566
O         55.57316        56.54802         1.65218
O         67.85065        35.35423         3.42854
O         43.89659        52.75744         1.82594
O         44.52893        54.19863        -1.31612
O         66.82812        62.73666         2.25852
O         46.89542        49.94894         2.04503
O         38.63685        52.47546        -0.03244
O         55.67885        59.12572         1.79952
O         67.45510        50.32577        -2.76071
O         70.22102        43.77328        -1.75211
O         60.53438        59.19642        -1.49090
O         65.33184        41.98398         1.80016
O         56.62514        61.21146        -1.17697
O         66.66924        39.58542         1.99426
O         46.79227        52.39247         2.35940
O         63.74427        59.01563         1.92092
H         63.70740        58.04557         2.06792
O         42.66100        52.47877        -1.63005
H         42.14289        53.11657        -2.16286
O         49.74380        48.26974         2.01696
H         48.86985        48.62109         2.29891
O         71.06316        48.08763         0.56822
H         71.24153        49.01804         0.81677
O         61.39185        42.34204        -2.21592
H         60.62439        42.81994        -2.59642
O         53.74124        54.71671         1.65760
H         54.51507        55.22084         2.02076
O         66.03756        38.27073        -1.32963
H         66.90520        37.94599        -1.67396
O         46.96147        54.86073         2.38659
H         46.72028        54.07094         2.93089
O         50.57824        51.90726        -1.63603
H         50.79050        52.74247        -2.11327
O         67.51305        46.27639         1.61433
H         66.74347        45.90532         2.09629
O         46.98500        54.73775        -1.22882
H         46.24955        54.76568        -1.88642
O         53.61076        43.25080         1.04719
H         52.79662        42.73408         1.22041
O         68.69902        59.62444        -2.06692
H         68.86027        58.76338        -2.51126
O         60.99005        48.10064         1.66877
H         61.76178        47.61901         2.03832
O         70.95050        51.08560        -3.54565
H         70.61817        50.25611        -3.96312
O         70.97564        46.32511        -2.62636
H         70.79482        45.37334        -2.81020
O         55.25571        45.23103         1.59315
H         55.16797        46.01924         2.17201
O         69.56737        33.93858         4.67060
H         69.10257        34.80927         4.70994
O         64.70251        67.22397         2.99091
H         65.36283        66.59300         3.36977
O         46.04305        47.09906         1.36125
H         45.65558        47.78171         1.96587
O         66.53489        65.18090         2.83212
H         66.85536        64.30584         3.16930
O         60.73499        50.82889         1.28276
H         60.76254        49.90444         1.64257
O         54.78865        44.83125        -2.02378
H         55.45653        45.53201        -2.18413
O         69.73366        53.44392        -3.03299
H         70.09348        52.67123        -3.54708
O         70.70828        54.38556         1.31643
H         71.39573        54.84521         1.84366
O         60.15167        49.93609        -2.26293
H         60.24601        50.86410        -2.59455
O         54.72157        54.56644        -1.94166
H         53.88446        54.13571        -2.24076
O         59.79186        61.29047         2.11884
H         60.56902        61.74040         2.51614
O         44.48020        49.28913         2.14415
H         44.69987        49.99611         2.78924
O         66.83215        65.49278        -0.80044
H         67.48477        65.94160        -1.37790
O         52.27546        53.80744        -1.48035
O         68.11542        42.13884        -1.64214
H         68.86462        42.53478        -2.14850
O         71.06009        38.69097        -1.24920
H         70.25706        38.14014        -1.38030
O         65.87904        59.74079        -1.95803
H         66.78724        59.94259        -2.29582
O         67.19383        54.64695        -2.85571
H         68.02404        54.24748        -3.22117
O         69.00796        43.66356         1.61703
H         68.27709        43.27873         2.14698
O         54.45626        47.93429         1.74679
H         54.38772        48.87418         2.05448
O         53.64003        56.81145        -1.41205
H         52.91770        56.31344        -1.84967
O         62.30642        54.32650         1.52448
H         62.97888        53.67573         1.81976
H         38.57945        48.39677         2.11592
H         36.46599        48.98253         3.26446
H         36.47010        52.83991         1.30112
H         35.38133        51.20044         2.85581
H         39.18443        47.86300         0.09611
H         39.11866        54.92505         0.16004
H         41.27332        46.86698        -0.76538
H         41.32109        56.08020         0.22400
H         45.10583        45.28647        -2.24962
H         42.96307        46.40440        -1.87942
H         44.98135        58.18947        -0.05005
H         42.95617        56.98884        -0.59679
H         46.72578        44.17124        -2.13388
H         46.47215        59.13177         0.87633
H         48.83481        42.96218        -2.17742
H         48.55644        60.35753         1.03591
H         52.45262        40.63410        -1.90803
H         50.38874        41.88544        -1.88335
H         52.30413        62.56519         0.77419
H         50.21395        61.33983         0.93272
H         54.08809        39.58280        -1.62680
H         54.05722        63.53248         0.85103
H         56.17034        38.35445        -1.46109
H         56.16169        64.71095         0.74337
H         59.83450        36.14832        -0.64793
H         57.75776        37.36164        -0.98727
H         59.97742        66.87630         0.43135
H         57.85254        65.70240         0.32024
H         61.42062        35.19380        -0.02046
H         61.69706        67.76000         0.21971
H         63.45042        34.06079         0.69933
H         63.72529        68.94544         0.82274
H         66.98227        32.24946         2.60295
H         65.05170        33.23544         1.51560
H         67.45150        70.99370         1.38888
H         65.37397        69.75834         1.78079
H         68.50256        31.53460         3.80989
H         68.97227        71.95212         0.77562
H         72.50118        31.07591         2.26571
H         70.37616        30.09505         3.14718
H         72.69441        33.50917         1.85984
H         72.96692        35.53391         2.31303
H         73.11712        37.77263         1.32796
H         73.20631        39.57414         0.39081
H         73.15785        41.98575         0.23157
H         73.18796        43.95452        -0.09652
H         73.16290        46.32238        -0.57830
H         73.19256        48.21348        -1.35192
H         73.15127        50.44645        -2.18548
H         73.08878        52.39275        -1.29978
H         73.07272        54.71857        -0.57859
H         73.02967        56.44212         0.49778
H         73.10655        58.88490         0.63539
H         73.21182        60.82399         0.12698
H         73.25517        63.25607         0.26154
H         73.24166        65.16485         0.30353
H         73.22047        67.58872         0.23028
H         73.18431        69.44509        -0.11669
H         73.18090        71.90477        -0.12846
H         71.06568        73.16563         0.32468
