         272
 CSIRO Nanostructure Databank - Neutral Graphene Oxide Data Set
C        -10.96051         0.77009        -1.03456
C         -9.79292         1.61252        -0.68753
C         -8.51952         0.91196        -0.29857
C         -7.71304         1.58546         0.80139
C         -6.41431         0.84303         1.19515
C         -5.07344         1.46896         0.88231
C         -3.82330         0.80233         1.39291
C         -2.52900         1.53332         1.24719
C         -1.24280         0.75418         1.16767
C          0.04505         1.50052         1.24704
C          1.33426         0.80752         1.66202
C          2.47946         1.58396         0.92188
C          3.78208         0.79871         0.98884
C          5.09172         1.51357         1.05166
C          6.31189         0.75472         0.62037
C          7.46978         1.48652         0.02148
C          8.80919         0.84348         0.19653
C         10.06102         1.57185        -0.18624
C         11.22530         0.73396        -0.57929
C        -10.06321         3.01414        -0.13402
C         -8.76384         3.78570         0.02613
C         -7.54058         3.06492         0.48717
C         -6.20445         3.68923         0.26724
C         -4.96183         2.83619         0.26062
C         -3.63260         3.53231         0.24969
C         -2.49777         2.92144         0.68574
C         -1.25992         3.70366         1.00335
C         -0.00261         3.00441         1.43371
C          1.30202         3.79668         1.54747
C          2.59252         2.99577         1.51221
C          3.88738         3.73817         1.38696
C          5.18644         3.01169         1.11803
C          6.42538         3.73445         0.68720
C          7.39644         3.00332        -0.28976
C          8.77011         3.68962        -0.38770
C          9.94430         2.98308        -0.58277
C         -8.70093         5.12461        -0.18974
C         -7.43713         5.85126        -0.23374
C         -6.20113         4.99844        -0.55161
C         -4.88889         5.75301        -0.22784
C         -3.61643         5.00011        -0.01990
C         -2.28592         5.65525        -0.30389
C         -1.08442         5.06179         0.37666
C          0.00592         6.00469         0.95085
C          1.31579         5.31027         1.39903
C          2.63610         6.07098         1.22830
C          3.86831         5.21415         1.04333
C          4.83120         5.48129        -0.12170
C          6.30250         5.28916         0.37976
C          7.34333         5.65701        -0.77170
C          8.63912         5.06561        -0.67373
C         -7.39016         7.21101        -0.21992
C         -6.15467         7.95063        -0.57410
C         -4.88459         7.17652        -0.69707
C         -3.55817         7.89516        -0.66972
C         -2.28851         7.12652        -0.62439
C         -0.97950         7.85527        -0.53116
C          0.24026         7.21116         0.03668
C          1.32158         8.20787         0.42174
C          2.67917         7.59852         0.84652
C          3.64104         7.83166        -0.36414
C          4.60572         6.79795        -0.85383
C          5.61746         7.09365        -1.96882
C          7.01293         6.58819        -1.70346
C         -6.02927         9.42094        -0.39057
C         -4.84750        10.03522        -0.20837
C         -3.53669         9.29453        -0.02702
C         -2.33298        10.03309        -0.49390
C         -1.00888         9.38396        -0.71369
C          0.19599         9.96133         0.12031
C          1.44298         9.40480        -0.48822
C          2.55585         9.99194        -0.94511
C          3.88429         9.29455        -0.75772
C          4.79784         9.47609        -1.94223
C          5.62102         8.53783        -2.41245
C        -10.90882        -0.57582        -1.08681
C         -9.65271        -1.33391        -0.90964
C         -8.41700        -0.58611        -0.48025
C         -7.24206        -1.32309         0.11667
C         -6.37594        -0.68687         1.15637
C         -5.11339        -1.46777         1.46425
C         -3.82287        -0.70897         1.54159
C         -2.58456        -1.41645         1.04786
C         -1.26577        -0.74097         1.36617
C          0.03865        -1.48970         1.34494
C          1.36173        -0.74054         1.43081
C          2.62377        -1.46547         1.03057
C          3.74597        -0.61899         0.39741
C          5.13250        -1.32324         0.39122
C          6.34744        -0.70818         1.12273
C          7.65870        -1.42637         0.75567
C          8.84115        -0.66751         0.26113
C          9.82557        -1.36529        -0.68085
C         11.13197        -0.59292        -0.76981
C         -9.67557        -2.81028        -0.79443
C         -8.73370        -3.54491        -0.14574
C         -7.82705        -2.99067         0.94999
C         -6.45711        -3.74377         1.12700
C         -5.13255        -3.00699         1.38283
C         -3.80747        -3.72109         1.15807
C         -2.61338        -2.87809         0.73611
C         -1.28029        -3.51596         0.36457
C          0.03286        -2.82750         0.62671
C          1.28358        -3.73152         0.65548
C          2.61587        -2.94722         0.65263
C          3.85412        -3.53805         0.03147
C          5.13831        -2.75911         0.02261
C          6.33421        -3.61123         0.31528
C          7.62647        -2.92470         0.59617
C          8.93987        -3.66761         0.26589
C         10.01254        -2.80082        -0.30896
C         -8.63126        -4.96047        -0.46325
C         -7.53989        -5.71475        -0.19052
C         -6.39762        -5.16455         0.60191
C         -5.07261        -5.89559         0.49858
C         -3.77880        -5.20177         0.82977
C         -2.44761        -5.84989         0.51249
C         -1.21926        -5.02518         0.26823
C         -0.04514        -5.60909        -0.49081
C          1.24799        -4.85399        -0.42705
C          2.52768        -5.52458        -0.90940
C          3.84427        -4.81227        -0.77651
C          5.17325        -5.62986        -0.92258
C          6.46137        -4.91718        -0.44594
C          7.56251        -5.78536         0.09235
C          8.55176        -4.91017        -0.62002
C         -7.54407        -7.16904        -0.61504
C         -6.18210        -7.66871        -1.06510
C         -4.97319        -7.07421        -0.42871
C         -3.78918        -7.96822        -0.19992
C         -2.44272        -7.37525         0.26766
C         -1.34227        -7.85739        -0.66722
C         -0.10437        -7.05660        -0.91107
C          1.19642        -7.79794        -1.14007
C          2.51744        -7.03767        -1.04835
C          3.74729        -7.74765        -0.53826
C          4.95343        -6.93899        -0.12121
C          6.10044        -7.67053         0.53242
C          7.46122        -7.08464         0.41484
C         -6.08990        -9.03395        -1.65450
C         -4.95618        -9.75585        -1.62868
C         -3.78580        -9.32912        -0.82099
C         -2.47343       -10.02635        -0.91723
C         -1.31379        -9.35448        -0.76075
C         -0.02089       -10.05638        -0.45534
C          1.23109        -9.29776        -0.88714
C          2.48606        -9.92814        -0.47331
C          3.53993        -9.08008         0.16867
C          4.83245        -9.80146         0.45337
C          5.98239        -9.14342         0.66752
O          0.50850         9.15014         1.31680
O         -3.21055         1.45937         2.54133
O         -0.71730        -1.33259         2.58155
O          8.78878        -1.10641         1.64806
O         -1.28708         4.91152        -1.05745
O         -8.61740         1.59920        -1.56369
O          7.45277        -4.53292        -1.53178
O          3.67488         5.95863         2.26304
O         -4.34963         5.66291         1.10802
O         -6.74498         0.03475         2.34919
O          6.57746         6.07000         1.41918
O          2.29241        -1.30263         2.42240
O          5.43450        -1.74926        -0.98108
O         -0.95160         3.51828         2.41515
O          0.36394        -4.71908        -1.56798
O          3.10233        -4.75974        -2.02201
O         -0.60893        -2.74658        -0.66626
O          4.46522         0.92793         2.24613
O         -2.87401         7.60140        -1.90856
O         -5.33177        -6.70391        -1.79750
O          3.48656        -7.63968        -1.95526
O         -2.89353        -1.87448        -0.30616
O         -0.48082         1.08655        -0.04479
O         -5.02668         1.64843        -0.58506
O          5.14169        -6.85431         1.30899
O         -4.45543        -6.07417         1.79667
O          3.25598         6.92530        -1.43532
O          6.86002        -3.57857         1.66281
O          1.21290         4.69498         2.69919
O         -8.57730        -0.95681        -1.88001
O          3.56166        -3.72689         1.45923
O          0.00120         7.15279        -1.38097
O          6.86842         3.22581        -1.54490
O         -5.62661         7.47862        -1.88938
O         -8.40057        -2.56884         1.99921
O          1.15616        -8.72623        -2.24803
O         -1.14475        -7.20989        -1.94705
O          6.55518         0.73865        -0.82153
O         -4.16741        -9.12642         0.60399
O         -4.50381        -1.09886         2.74407
O         -6.82738         3.77953         1.57280
O         -1.46950        -5.58243         1.58254
O          3.37599         3.29742         2.68066
O         -4.33519        -3.51170         2.48617
O          9.63334         1.41681         1.24082
O         -6.70595        -4.86923         2.00329
O          6.31167         3.36023         2.04218
O         -6.16954         4.66393        -1.88626
O          0.03124       -10.19521         0.98194
H         -0.65972        -9.61793         1.38293
O          1.18823        -4.42726         1.91023
H          2.07981        -4.46370         2.32846
O         -6.42952        -1.82566        -0.87940
H         -6.95162        -1.77991        -1.72574
O         -2.09919        -8.00498         1.51776
H         -2.76094        -7.72160         2.18740
O          4.51818         4.42244        -1.05000
H          5.34404         4.12885        -1.53606
O         -0.58397         6.55836         2.14280
H         -0.39793         5.92922         2.88027
O          4.54622         9.95585         0.34868
H          4.06423         9.70090         1.17563
O          1.46064         1.03822         3.05932
H          2.22267         0.51764         3.39927
O         -3.39511         8.97766         1.39355
H         -3.32313         9.81609         1.89599
O         -7.97533        -7.97702         0.49159
H         -7.49922        -7.69456         1.30045
O          2.93354        -8.70348         1.45637
H          2.82411        -9.51557         1.99605
O          2.10643         1.82497        -0.44008
H          2.31150         1.02617        -0.98561
O          6.16695        -0.84205         2.52112
H          7.03813        -0.73332         2.95914
O         -8.58641         1.53504         1.96138
H         -8.08183         1.86429         2.73719
O         -0.66762         9.69726        -2.08353
H         -1.22778         9.12918        -2.65846
O          9.47878        -4.24095         1.47524
H          9.56574        -3.51866         2.13384
O          3.13362         8.34291         1.97709
H          3.69475         7.73639         2.52217
O          3.30700        -0.49411        -0.97530
H          4.06730        -0.73008        -1.56602
O          5.19267         6.32200        -3.12764
H          4.20827         6.31979        -3.11766
O          9.16875        -1.28611        -1.98579
H          9.66783        -1.83988        -2.62185
O          5.39177        -5.93345        -2.29111
H          4.51860        -5.97477        -2.74733
O        -10.77741         2.92530         1.10231
H        -10.19000         2.46472         1.74980
H         12.03109        -1.15828        -1.06218
H         12.19467         1.23952        -0.71206
H         10.81380         3.47810        -1.04357
H          9.53895         5.70367        -0.71745
H          7.72678         6.77476        -2.52376
H          6.28642         8.76929        -3.25888
H          4.83095        10.49195        -2.36620
H          2.54168        11.02664        -1.31897
H          0.11344        11.04984         0.33601
H         -2.48862        10.96481        -1.06371
H         -4.82000        11.13113        -0.10047
H         -6.95149        10.02083        -0.44223
H         -8.30846         7.79412        -0.04636
H         -9.62147         5.67767        -0.43554
H        -10.72488         3.56152        -0.85231
H        -11.92915         1.27995        -1.14553
H        -11.82587        -1.15615        -1.26560
H        -10.37042        -3.33116        -1.47540
H         -9.45339        -5.39953        -1.05139
H         -8.29223        -7.31479        -1.43504
H         -6.97663        -9.41007        -2.18639
H         -4.90381       -10.73019        -2.13647
H         -2.47423       -11.12590        -0.98446
H         -0.00769       -11.08254        -0.90949
H          2.39616       -10.95694        -0.08243
H          4.79854       -10.89791         0.54518
H          6.90191        -9.70232         0.90001
H          8.34202        -7.72634         0.55946
H          9.42138        -5.37273        -1.13933
H         11.04164        -3.16762        -0.16342
