         272
 CSIRO Nanostructure Databank - Neutral Graphene Oxide Data Set
C        -11.09852         0.69292         0.68613
C         -9.97290         1.44876         0.01137
C         -8.62448         0.88588         0.42019
C         -7.51483         1.51799        -0.36613
C         -6.28160         0.76213        -0.74436
C         -5.08314         1.58148        -1.30288
C         -3.77612         0.77420        -1.44832
C         -2.47665         1.56517        -1.67488
C         -1.19583         0.76003        -1.36018
C          0.12796         1.49931        -1.53284
C          1.38788         0.76330        -1.90121
C          2.63495         1.53350        -2.31635
C          3.95435         0.75739        -2.22151
C          5.18897         1.48040        -1.73658
C          6.22246         0.58337        -1.10161
C          7.15299         1.13342        -0.08161
C          8.40990         0.39165         0.28400
C          9.42169         1.04203         1.16113
C         10.83976         0.62729         1.04847
C         -9.95739         2.97075         0.13598
C         -8.81589         3.70451        -0.02409
C         -7.45891         3.01949        -0.03276
C         -6.38382         3.74585        -0.86662
C         -5.04131         2.86566        -0.44712
C         -3.68075         3.55173        -0.38555
C         -2.41851         2.84889        -0.83073
C         -1.12834         3.63073        -0.97528
C          0.02178         2.99638        -1.72479
C          1.27376         3.79639        -1.96026
C          2.60586         3.04997        -2.14741
C          3.87456         3.78090        -1.70926
C          5.13990         2.97951        -1.41777
C          6.26252         3.54751        -0.55786
C          7.23022         2.62064         0.11652
C          7.99110         3.05224         1.32826
C          9.04189         2.33490         1.77818
C         -8.71992         5.15076         0.08614
C         -7.54011         5.84654        -0.02931
C         -6.24232         5.24405        -0.55826
C         -5.02906         5.73919         0.25443
C         -3.67501         5.02285        -0.02207
C         -2.39410         5.78982        -0.24479
C         -1.11956         5.11678        -0.75990
C         -0.13732         5.89622        -1.60321
C          1.30256         5.36322        -1.84064
C          2.41218         5.90534        -0.90563
C          3.78415         5.24557        -1.19213
C          5.02370         5.82068        -0.54413
C          6.15368         4.96881        -0.02299
C          6.79474         5.31000         1.32009
C          7.44589         4.20118         2.13173
C         -7.46298         7.26989         0.22058
C         -6.27487         7.94992         0.17317
C         -5.01632         7.21396        -0.24971
C         -3.73378         7.99610        -0.01660
C         -2.42606         7.28686        -0.14069
C         -1.24977         7.85726         0.59256
C         -0.64546         7.15561        -2.29571
C          1.37323         8.44382        -0.17812
C          2.41291         7.28395        -0.23350
C          3.75586         7.86615         0.01766
C          4.90975         7.18370         0.01460
C          6.14627         7.69872         1.79503
C          6.42065         6.44227         2.22255
C         -6.19391         9.38354         0.40815
C         -5.02739         9.99984         0.70124
C         -3.79469         9.16954         0.95263
C         -2.49736         9.93918         1.02707
C         -1.29390         9.30370         0.93420
C         -0.02792         9.83981         1.39193
C          1.19406         9.28093         1.09205
C          2.28603         9.61427         1.99406
C          3.59987         9.49191         1.65464
C          4.69750         9.59808         2.61633
C          5.80229         8.81254         2.69081
C        -10.97576        -0.55576         1.16980
C         -9.66961        -1.25746         1.50911
C         -8.46430        -0.46718         1.01234
C         -7.12533        -1.15995         0.84292
C         -6.02655        -0.52394         0.01176
C         -4.79058        -1.32105        -0.34070
C         -3.77482        -0.70936        -1.27269
C         -2.49836        -1.48015        -1.47950
C         -1.19721        -0.73383        -1.36041
C          0.03822        -1.49021        -1.77749
C          1.33622        -0.74067        -2.09701
C          2.62795        -1.52123        -2.16446
C          3.96702        -0.79317        -2.46672
C          5.23169        -1.58129        -2.00127
C          6.48592        -0.78300        -1.70501
C          7.78616        -1.46724        -1.36898
C          8.95915        -0.60962        -0.77265
C         10.05301        -1.38571        -0.04345
C         11.14857        -0.54790         0.46288
C         -9.58213        -2.72867         1.17758
C         -8.37623        -3.40874         1.18204
C         -7.08325        -2.64982         1.12824
C         -5.84512        -3.43387         0.77981
C         -4.69601        -2.77258         0.04589
C         -3.76662        -3.61988        -0.78520
C         -2.50578        -2.95614        -1.28656
C         -1.19093        -3.64696        -1.03815
C          0.04254        -2.98890        -1.61787
C          1.36278        -3.71811        -1.51281
C          2.62941        -2.87319        -1.44414
C          3.90773        -3.58767        -1.09396
C          5.22741        -3.03052        -1.58169
C          6.53621        -3.76246        -1.28405
C          7.90257        -3.00618        -1.25642
C          8.64268        -3.42495         0.04412
C          9.94132        -2.69412         0.24190
C         -8.33967        -4.83759         1.23041
C         -7.15789        -5.62550         1.16090
C         -5.87523        -4.93859         0.82556
C         -4.80122        -5.76167         0.19841
C         -3.80038        -5.10313        -0.70337
C         -2.52169        -5.86442        -0.90585
C         -1.21411        -5.11419        -0.78362
C          0.01957        -5.98297        -1.01546
C          1.35410        -5.16231        -1.08989
C          2.52613        -5.68013        -0.25001
C          3.88785        -5.00068        -0.53555
C          5.16429        -5.76820        -0.39815
C          6.49065        -5.17619        -0.78515
C          7.61993        -5.75661        -0.00071
C          8.89467        -4.94476         0.13068
C         -7.17133        -7.01186         1.28715
C         -5.90693        -7.83967         1.14696
C         -5.10191        -7.23667        -0.05159
C         -3.83391        -8.04206        -0.35849
C         -2.52620        -7.32405        -0.59658
C         -1.36165        -7.88120         0.24531
C          0.01814        -7.07853         0.12493
C          1.25531        -7.95485        -0.11128
C          2.55115        -7.23012        -0.33443
C          3.84436        -7.97988        -0.16441
C          5.14824        -7.26437        -0.24433
C          6.36430        -7.92064         0.43978
C          7.50025        -6.94176         0.63086
C         -6.07948        -9.33290         0.92330
C         -5.04421       -10.08868         0.51594
C         -3.78761        -9.49148        -0.03241
C         -2.44767       -10.12425         0.15106
C         -1.29346        -9.40883         0.21443
C         -0.02207       -10.06213         0.74481
C          1.28618        -9.32523         0.47385
C          2.45746        -9.89735         0.82213
C          3.84237        -9.35081         0.53122
C          4.72072        -9.24545         1.77118
C          5.87487        -8.56216         1.73593
O         -2.85403         2.73818         0.53018
O         -6.09022        -2.95790         2.13949
O          5.92678         0.47324         0.34863
O          7.50657        -0.96422        -2.70741
O          1.61181        -4.80647        -2.47107
O         -4.41512        -4.41149        -1.83007
O         -4.68492        -5.38438         1.59409
O          6.05895         7.90675         0.40805
O         -5.09241         7.00700        -1.69693
O         -2.92984         8.14475        -1.20932
O         -1.18844         0.01318        -0.10960
O         -2.47436        -6.86414        -1.96431
O         -6.08462        -0.36894         1.46148
O          7.58629         3.30130        -1.12553
O          8.49490        -0.07019         1.64311
O         -4.05439        -9.02441        -1.42667
O          0.32933         3.47274        -3.05060
O          4.63301        -7.97295        -1.40627
O         -0.79120         6.09418        -2.95793
O          0.83661         8.82470        -1.19927
O          3.87304         9.24609         0.30618
O         -4.12802        -0.14628        -2.55456
O         -6.03924         5.89693        -1.87514
O          2.61401         2.41200        -3.45977
O         -1.10165        -4.17165         0.31967
O          5.35235        -2.65480        -2.97624
O          4.95271         3.69928        -2.66250
O         -7.40187         0.87597        -1.67884
O         -8.35941         0.75640         1.83160
O          7.44446         5.63899         0.07302
O          1.80966        -1.30221        -3.34344
O         -7.09676         3.11384         1.31781
O          1.81975        -7.82493        -1.45011
O          9.51252         0.19025        -1.73939
O         -1.84624        -7.73991         1.56032
O          4.75019         5.99103        -1.98426
O         -0.31217         7.13884         0.90858
O         -2.64940        -2.38172        -2.61065
O          4.96915         1.27774        -3.13405
O          2.15727         6.04100         0.51469
O         -0.58196         4.22887         0.24057
O          6.65705        -4.91465        -2.19723
O          3.22770        -2.69009        -0.13174
O         -0.24728        -2.38878        -2.89506
O          4.64622        -5.03099         0.74607
O         -2.76538         5.27852         1.08106
O         -4.02904        -1.76671         0.83589
O          1.08646         1.11279        -0.50459
O         -6.81718         3.63580        -2.19812
H         -6.34859         4.29162        -2.76080
O          8.68723        -3.43264        -2.37065
H          8.25802        -3.08932        -3.18547
O          1.72697         5.81868        -3.12353
H          1.20449         5.35122        -3.81123
O         -5.30154         5.62863         1.63950
H         -4.46460         5.79704         2.12935
O          6.41674         3.68066         2.99222
H          6.77899         2.92257         3.49611
O         -5.96132        -7.28784        -1.20244
H         -5.61610        -8.01066        -1.78213
O         -3.96958         8.52219         2.25816
H         -4.09155         9.22227         2.93367
O          4.12033        -0.87478        -3.89528
H          3.39369        -0.37842        -4.32724
O          4.47006       -10.31025        -0.36265
H          4.18935       -10.08126        -1.27635
O          0.17678        -6.43321         1.37357
H         -0.61956        -6.66277         1.92993
O          6.88914        -8.97012        -0.39012
H          6.15857        -9.62589        -0.52567
O          0.06959       -11.40727         0.27578
H          0.29541       -11.39050        -0.67690
O         -2.41626         1.96996        -3.04843
H         -3.01765         1.38859        -3.56706
O          9.84289        -5.34620        -0.85497
H          9.52685        -5.01745        -1.72938
O         -5.18885        -7.77909         2.39536
H         -4.86496        -6.85588         2.53972
O         -0.13329        -6.63341        -2.27090
H          0.46685        -6.21134        -2.92652
O          7.76749        -3.06980         1.14871
H          8.02342        -2.18654         1.49993
O         -5.25596         2.43403         0.90142
H         -4.83565         3.04698         1.54511
O         -9.61359        -1.23787         2.96642
H         -9.19659        -0.38121         3.21966
O        -10.11116         1.15984        -1.41015
H        -10.95669         1.54403        -1.72198
O         -5.31137         1.94321        -2.66929
H         -6.20730         1.60863        -2.91911
O          2.20759        -5.28204         1.08840
H          3.04555        -5.14796         1.58651
H         12.18514        -0.91311         0.42311
H         11.61232         1.28425         1.47137
H          9.59759         2.67287         2.66825
H          8.27166         4.63783         2.76294
H          6.44916         6.22766         3.29979
H          6.44142         8.92845         3.58186
H          4.51634        10.28773         3.45754
H          2.01767         9.92599         3.01462
H         -0.07053        10.59863         2.19047
H         -2.54073        10.99753         1.33013
H         -4.98926        11.08699         0.86421
H         -7.12610         9.96520         0.34082
H         -8.38331         7.80147         0.50750
H         -9.63263         5.70740         0.35314
H        -10.92566         3.49317         0.21307
H        -12.10693         1.13207         0.60341
H        -11.87989        -1.06165         1.54556
H        -10.51592        -3.31324         1.18423
H         -9.29980        -5.36192         1.35778
H         -8.12349        -7.51019         1.53421
H         -7.01239        -9.81150         1.26010
H         -5.14886       -11.18408         0.46317
H         -2.40518       -11.21922         0.26860
H         -0.14820       -10.12227         1.86115
H          2.43725       -10.90949         1.25790
H          4.40006        -9.75854         2.69081
H          6.52114        -8.52085         2.62651
H          8.35219        -7.30897         1.22557
H          9.34989        -5.16054         1.13258
H         10.74593        -3.21077         0.78861
