         480
 CSIRO Nanostructure Databank - Neutral Graphene Oxide Data Set
C         38.59184        48.48862        -2.36308
C         37.63499        48.77626        -3.33266
C         38.73588        50.87781        -3.78432
C         37.70684        49.97921        -4.04232
C         40.75174        47.73463        -0.44183
C         40.60486        49.10605        -0.99127
C         39.62907        49.39340        -2.07562
C         40.86424        51.50881        -2.63556
C         39.71481        50.61178        -2.80238
C         40.89062        52.81017        -3.26944
C         43.03290        48.20942         0.40758
C         41.84320        47.34927         0.24233
C         43.02900        49.55095        -0.19444
C         41.81483        50.02024        -0.88278
C         43.19846        51.87528        -1.85865
C         41.92794        51.14318        -1.82415
C         43.22346        53.23342        -2.59133
C         41.94191        53.66559        -3.15698
C         45.04614        46.43780         3.13681
C         43.94573        46.79524         2.44200
C         45.03761        48.98289         1.92845
C         44.07333        47.90626         1.45888
C         45.10517        50.18200         0.99796
C         44.13549        50.41111        -0.04303
C         45.28170        52.52276        -0.66214
C         44.20273        51.63116        -0.80601
C         45.33164        53.80202        -1.34793
C         44.27410        54.20818        -2.20193
C         45.27350        56.41880        -2.37154
C         44.26335        55.51802        -2.70285
C         47.56252        45.31925         4.32729
C         47.59543        46.37608         3.30459
C         46.33806        47.08817         2.89547
C         47.68350        48.97100         1.99654
C         46.38545        48.25868         2.18722
C         47.97748        49.85651         0.80311
C         46.02004        51.20121         1.25832
C         47.56228        52.90837         0.22681
C         46.30560        52.22213         0.28943
C         47.56663        54.21610        -0.34384
C         46.38927        54.71023        -1.03925
C         47.38694        57.01906        -1.15921
C         46.33940        56.03922        -1.54292
C         47.53937        58.31426        -1.82742
C         49.99568        45.43597         4.58928
C         48.71160        44.85686         4.88694
C         50.16456        46.54714         3.79036
C         48.94678        47.04773         3.10652
C         50.29606        49.06628         2.19848
C         48.95441        48.45569         2.61389
C         50.05334        50.56539         1.88759
C         48.94895        50.95849         1.10869
C         49.98618        53.13271         0.66893
C         48.80112        52.32948         0.70371
C         49.96524        54.46271         0.16480
C         48.73905        55.00778        -0.27453
C         49.91997        57.21031        -0.63988
C         48.66932        56.45161        -0.51937
C         49.86848        58.55026        -1.05299
C         48.66110        59.06747        -1.65104
C         52.71670        42.06408         3.62145
C         51.89267        42.79866         4.41164
C         52.70272        44.97688         3.52244
C         51.88858        44.23784         4.35056
C         52.62207        46.43775         3.39999
C         51.45689        47.17981         3.49240
C         52.74246        49.30566         2.81593
C         51.40715        48.71138         3.27153
C         52.88954        50.65192         2.63746
C         51.01264        51.56565         2.13277
C         52.48082        53.29540         1.07753
C         51.18258        52.67264         1.29075
C         52.43566        54.58056         0.45571
C         51.18881        55.21461         0.12705
C         52.38684        57.26094        -0.58335
C         51.16512        56.55995        -0.35038
C         52.33716        58.66146        -0.94896
C         51.08876        59.32914        -1.07637
C         52.27191        61.44436        -1.36004
C         51.08924        60.73141        -1.27500
C         54.66661        40.63030         1.76559
C         54.82308        41.95854         2.19158
C         53.63204        42.72240         2.67556
C         55.00327        44.87444         2.26752
C         53.67345        44.22731         2.67203
C         55.14667        46.27133         2.86495
C         53.93784        47.09811         3.16451
C         55.20025        49.17760         2.20956
C         54.00200        48.55568         2.82099
C         55.11200        50.54034         1.69838
C         53.92323        51.29757         1.85581
C         54.93101        53.20206         0.67127
C         53.75020        52.60769         1.25700
C         54.86507        54.51385         0.11698
C         53.65175        55.23889         0.07358
C         54.83859        57.20228        -0.91482
C         53.61800        56.57471        -0.45078
C         54.76139        58.59379        -1.42348
C         53.53358        59.38131        -1.19354
C         54.77899        61.52683        -1.52107
C         53.52676        60.78264        -1.36788
C         54.85897        62.89484        -1.32745
C         57.04843        40.45422         1.32510
C         55.76727        39.88553         1.34530
C         57.20276        41.82155         1.70147
C         56.08513        42.57634         2.12579
C         57.60009        44.70334         2.45585
C         56.20760        43.98536         2.71158
C         57.50918        46.14669         1.96793
C         56.40876        46.99059         2.45989
C         57.54757        48.99692         1.47403
C         56.37689        48.43372         2.10622
C         57.61638        50.50101         1.31276
C         56.26148        51.16577         1.12454
C         57.48199        53.21101         0.37854
C         56.18355        52.47708         0.67159
C         57.31319        54.33901        -0.61483
C         56.00946        55.07044        -0.63683
C         57.23518        57.08862        -1.72356
C         56.00778        56.49092        -1.03366
C         57.30634        58.59392        -1.55101
C         56.03951        59.30823        -1.77486
C         57.36215        61.52529        -1.60211
C         56.02627        60.80362        -1.82201
C         57.32295        62.94601        -1.20234
C         56.09574        63.58487        -1.19091
C         59.36515        37.56304         0.24607
C         58.22531        38.23281         0.58221
C         59.58465        40.34708         0.83925
C         58.26130        39.61394         1.08811
C         59.49845        41.81904         0.76313
C         58.46300        42.51781         1.45336
C         59.74579        44.59118         1.16775
C         58.56841        43.90994         1.59969
C         59.81250        46.00788         1.14491
C         58.62200        46.76878         1.43318
C         59.77055        48.69806         0.36082
C         58.62658        48.19197         1.16061
C         59.72217        50.10289        -0.16548
C         58.65183        50.98044         0.33064
C         59.78502        52.89690        -0.63699
C         58.65359        52.33048        -0.02452
C         59.74645        54.24439        -1.19845
C         58.53921        55.05870        -1.01580
C         59.76832        57.08364        -1.57039
C         58.53310        56.38364        -1.39927
C         59.79134        58.51551        -1.07609
C         58.49400        59.28716        -1.30668
C         59.75949        61.42738        -0.86899
C         58.53644        60.70597        -1.26040
C         59.78729        62.90343        -0.82365
C         58.57873        63.62744        -0.90386
C         59.81538        65.67528        -0.44327
C         58.62677        65.03452        -0.72095
C         61.88117        36.26241        -0.84228
C         61.88461        37.42966        -0.10209
C         60.67742        38.17486         0.25211
C         62.07128        40.19043         0.39602
C         60.77086        39.56165         0.39784
C         62.28100        41.47477        -0.06548
C         60.49384        42.58126         0.14522
C         62.14547        44.46874         0.40139
C         60.81376        43.89142         0.52922
C         62.22673        45.84465         0.61870
C         61.02907        46.62672         0.76090
C         62.28978        48.64992         0.06062
C         61.05597        47.99704         0.40861
C         62.29782        50.01190        -0.33884
C         60.99969        50.70601        -0.75871
C         62.32607        52.79262        -1.01661
C         61.09284        52.18633        -0.39708
C         62.32091        54.12113        -1.75582
C         61.01007        54.91419        -1.69186
C         62.22946        57.10580        -1.66349
C         61.00854        56.40510        -1.62787
C         62.26707        58.57257        -1.78298
C         60.94519        59.33464        -1.70333
C         62.33852        61.45139        -1.03169
C         61.07307        60.69137        -1.00250
C         62.29668        62.85504        -0.68953
C         61.03352        63.56183        -0.61062
C         62.28209        65.63855        -0.05487
C         61.04423        64.96784        -0.37789
C         62.29477        66.99439         0.37394
C         64.34412        36.20261        -1.01664
C         63.09303        35.66101        -1.27554
C         64.46173        37.38271        -0.18037
C         63.19677        37.95804         0.32303
C         64.56668        40.12357         0.68351
C         63.27192        39.43510         0.74324
C         64.62300        41.49667         0.50435
C         63.42447        42.27383         0.23821
C         64.65736        44.37124         0.46552
C         63.38686        43.68345         0.31043
C         64.74203        45.76909         0.60206
C         63.50808        46.58097         0.89089
C         64.74738        48.65952         0.12790
C         63.52938        47.98015         0.28862
C         64.75737        50.02124        -0.28065
C         63.51739        50.69888        -0.48734
C         64.79239        52.77204        -1.18453
C         63.51060        52.10637        -0.90162
C         64.81318        54.13985        -1.41244
C         63.53933        54.90507        -1.34324
C         64.80592        57.12385        -1.72851
C         63.50137        56.40070        -1.41601
C         64.80665        58.57106        -1.28078
C         63.56937        59.32016        -1.51872
C         64.79700        61.40166        -0.91596
C         63.54462        60.75335        -1.14972
C         64.78331        62.87156        -0.78991
C         63.50285        63.56080        -0.53356
C         64.73993        65.58895         0.25836
C         63.51534        64.93426        -0.13193
C         64.70459        66.91922         0.75341
C         63.45871        67.60764         0.77357
C         66.63211        34.19836        -3.23306
C         65.48679        34.73813        -2.68294
C         66.82489        36.09117        -1.16417
C         65.56138        35.66643        -1.61779
C         66.92099        37.09580        -0.03180
C         65.68629        37.97175         0.07358
C         67.07229        40.03089         0.66812
C         65.78953        39.25926         0.89702
C         67.10554        41.41232         0.61836
C         65.87839        42.20487         0.55759
C         67.16567        44.32007         0.77416
C         65.87793        43.58960         0.49872
C         67.15723        45.75095         0.31923
C         65.99494        46.47053         0.45752
C         67.34427        48.71752         0.46275
C         65.97616        47.98131         0.71869
C         67.26940        50.02682        -0.32222
C         66.01767        50.70863        -0.54811
C         67.30615        52.68552        -1.48221
C         66.01878        52.02674        -1.02931
C         67.33200        54.18601        -1.32275
C         66.07225        54.90257        -1.75075
C         67.27708        57.11809        -1.41877
C         66.00627        56.34029        -1.16865
C         67.25955        58.53845        -1.01654
C         65.99559        59.23906        -0.99659
C         67.23738        61.33780        -0.46170
C         65.99881        60.68265        -0.81840
C         67.26872        62.73054        -0.17110
C         66.07574        63.56632        -0.42432
C         67.17019        65.50620         0.66131
C         66.00314        64.90944         0.19915
C         67.14170        66.82497         1.21832
C         65.91101        67.53867         1.24836
C         67.05549        69.40488         2.31963
C         65.91241        68.85667         1.77486
C         69.06184        33.03178        -4.36881
C         69.10312        33.88108        -3.23874
C         67.90904        34.54318        -2.73624
C         69.29717        35.81245        -1.10587
C         68.00253        35.51385        -1.70064
C         69.42754        36.86998        -0.15525
C         68.26588        37.83220        -0.05893
C         69.56382        39.91368         0.99616
C         68.33221        39.24959         0.43680
C         69.59877        41.42625         0.90602
C         68.36481        42.15247         0.53716
C         69.66852        44.23743         0.33960
C         68.40230        43.52429         0.43596
C         69.67907        45.62186         0.06297
C         68.39740        46.36261        -0.25832
C         69.70813        48.47450        -0.23355
C         68.48799        47.85132        -0.04030
C         69.75779        49.95661        -0.22780
C         68.49352        50.67325        -0.55254
C         69.77161        52.75102        -0.99698
C         68.56284        52.02679        -0.98235
C         69.77501        54.17304        -1.02441
C         68.51342        54.86984        -1.19020
C         69.77658        57.08552        -0.95145
C         68.55878        56.34946        -1.32794
C         69.71712        58.47021        -0.77839
C         68.46360        59.18193        -0.73393
C         69.58601        61.18108         0.23709
C         68.43783        60.58348        -0.32144
C         69.59794        62.56108         0.54679
C         68.43394        63.33708         0.31712
C         69.61384        65.35802         1.29027
C         68.50562        64.84488         0.40063
C         69.57336        66.66194         1.75043
C         68.33870        67.42017         1.74009
C         69.44461        69.24360         3.05607
C         68.27983        68.69198         2.35350
C         69.33438        70.40877         3.84481
C         71.40755        32.51793        -4.11458
C         70.19588        32.36108        -4.80350
C         71.47379        33.35552        -3.01007
C         70.33346        34.05590        -2.55314
C         71.60010        35.11169        -0.68583
C         70.40998        34.98910        -1.43579
C         71.70295        36.06587         0.30821
C         70.64887        36.97496         0.51972
C         72.02568        39.99228         1.31808
C         70.87088        39.26203         1.18596
C         72.05085        41.39714         1.07924
C         70.89936        42.11828         0.82121
C         72.11645        44.23848         0.34268
C         70.90157        43.52956         0.48914
C         72.12440        45.58931         0.06085
C         70.91124        46.30878        -0.09784
C         72.12995        48.39385        -0.75401
C         70.92347        47.72571        -0.37137
C         72.20044        49.74823        -0.90884
C         71.07357        50.61999        -0.55511
C         72.24744        52.82718        -0.58957
C         71.09284        52.02444        -1.12390
C         72.19101        54.17054        -0.50553
C         70.98020        54.91918        -0.80935
C         72.19976        57.09510        -0.52891
C         70.98543        56.33744        -0.75978
C         72.20814        58.44440        -0.45632
C         70.97691        59.29097        -0.60549
C         71.99691        61.04997         0.94060
C         70.76286        60.28246         0.56835
C         71.98121        62.37002         1.22447
C         70.79161        63.18698         1.09615
C         71.86025        65.08485         2.29400
C         70.77426        64.52368         1.50537
C         71.88579        66.38519         2.64688
C         70.86751        67.36209         2.11498
C         71.80666        69.15582         3.62593
C         70.69694        68.59240         2.98075
C         71.68411        70.31786         4.38789
C         70.43804        70.93700         4.50804
O         48.16240        49.44423         3.31849
O         68.41409        38.92971        -1.02077
O         51.90138        51.46830         3.18931
O         63.41042        55.68332        -0.09507
O         47.62099        57.09652         0.28324
O         63.05398        59.07246        -2.93722
O         70.60049        50.53800         0.82078
O         61.27087        42.01545        -0.86842
O         59.20667        39.85037         2.17750
O         43.76694        52.02278        -3.20435
O         59.26616        48.99320        -1.03031
O         56.79919        61.30945        -2.94808
O         54.23602        48.07191         4.22345
O         44.29714        47.46090         0.09820
O         69.31618        40.73469         2.19114
O         51.08415        44.89854         5.30603
O         68.00449        56.81490        -2.64623
O         55.19488        58.71143        -2.84203
O         56.40527        54.10283        -1.72209
O         65.61580        63.54938        -1.81876
O         47.66110        49.53603        -0.33252
O         70.92094        37.91745         1.51668
O         60.44366        60.82910         0.32336
O         40.64762        50.14411         0.04358
O         56.16036        46.52502         3.87287
O         48.43740        46.08164         2.12732
O         65.72937        48.04035         2.12402
O         53.01334        43.50809         1.57343
O         63.18876        38.37509         1.74000
O         60.10367        54.34066        -2.67110
O         68.23066        46.23325        -1.73249
H         69.06614        46.53155        -2.15246
O         50.98793        49.30225         4.50925
H         51.71656        49.20455         5.15695
O         70.39647        59.45963         1.71124
H         70.27694        60.04964         2.48424
O         55.02696        45.02908         0.83899
H         54.33994        44.41867         0.47592
O         56.02864        43.80269         4.12937
H         56.93068        43.71708         4.52141
O         71.14877        60.11696        -1.78900
H         71.17977        59.52662        -2.57042
O         58.07838        51.02647         2.62596
H         57.51034        50.62362         3.31866
O         62.54700        53.80790        -3.15169
H         61.68121        53.51338        -3.51890
O         57.87477        53.82233         1.64306
H         58.07111        53.07736         2.26199
O         57.07144        56.83109        -3.14996
H         56.29953        57.37198        -3.45114
O         66.93884        36.34650         1.22802
H         66.67762        36.98275         1.93762
O         58.26759        44.80161         3.75130
H         57.82748        45.54275         4.23278
O         44.57105        49.43496         3.22249
H         45.22540        50.08908         3.55435
O         65.94104        56.26073         0.26627
H         65.03798        55.94053         0.52028
O         67.84843        49.12690         1.75958
H         67.14950        48.80580         2.41179
O         68.89890        65.28769        -0.95142
H         68.21636        64.96012        -1.57682
O         64.93641        57.15365        -3.16737
H         64.27369        57.80699        -3.50469
O         67.33328        52.47180        -2.94857
H         66.77308        53.18819        -3.34869
O         60.92648        50.59525        -2.19082
H         60.39265        49.79099        -2.38966
O         50.74905        48.46050         0.97628
H         50.06002        48.56198         0.28476
O         65.82793        38.80522         2.30049
H         64.90029        38.52844         2.51532
O         60.00291        58.31217         0.34142
H         60.04003        59.20114         0.77599
O         60.53025        59.61925        -3.05546
H         61.34418        59.68810        -3.60615
O         71.31577        51.84611        -2.56083
H         71.22519        52.72288        -2.99037
O         46.58431        51.29185         2.49889
H         47.22606        52.03072         2.53169
O         67.23790        44.41034         2.25010
H         67.16732        43.49921         2.60876
O         63.47139        46.77610         2.34131
H         64.32597        47.27286         2.55246
O         71.39988        67.86144         0.83705
H         71.35687        67.12160         0.19349
O         61.30648        52.20775         1.05135
H         61.39765        53.14018         1.33953
O         66.13312        54.93134        -3.20599
H         66.76368        55.65489        -3.45226
H         38.51308        47.54563        -1.80544
H         36.82461        48.06221        -3.53266
H         38.78464        51.80265        -4.37405
H         36.95695        50.21155        -4.81089
H         39.93274        47.01553        -0.58600
H         39.97187        53.17976        -3.74510
H         41.91219        46.32113         0.62619
H         41.82667        54.70483        -3.49622
H         44.99246        45.59646         3.84119
H         43.00001        46.24621         2.55448
H         45.22220        57.44045        -2.77096
H         43.45470        55.84962        -3.36765
H         46.59827        44.92768         4.67856
H         46.73251        58.69350        -2.47011
H         48.67590        44.06213         5.64476
H         48.70424        60.05876        -2.12400
H         52.78526        40.97420         3.75094
H         51.24284        42.31084         5.15092
H         52.22684        62.53363        -1.49271
H         50.13590        61.27391        -1.33508
H         53.67172        40.16430         1.78956
H         53.94249        63.47714        -1.15840
H         55.62534        38.83577         1.05400
H         56.03992        64.65751        -0.95991
H         59.28398        36.51387        -0.07391
H         57.25290        37.73411         0.45925
H         59.79884        66.76307        -0.29737
H         57.70751        65.63040        -0.79180
H         60.93198        35.80996        -1.16167
H         61.35798        67.56381         0.42789
H         63.01000        34.75200        -1.88642
H         63.40895        68.64589         1.12587
H         66.53150        33.46319        -4.04193
H         64.51074        34.43192        -3.08192
H         66.99860        70.42004         2.73339
H         64.99300        69.45621         1.77462
H         68.12615        32.90099        -4.92856
H         68.36814        70.91990         3.94917
H         72.30741        31.98768        -4.45585
H         70.14479        31.70900        -5.68638
H         72.43997        33.47669        -2.50260
H         72.45275        34.44730        -0.87365
H         72.61791        36.16321         0.90628
H         72.96154        39.47375         1.56236
H         73.02942        41.89502         1.09400
H         73.07590        43.71737         0.45716
H         73.08820        46.10727        -0.02648
H         73.01472        47.79148        -1.00261
H         73.10165        50.20568        -1.34245
H         73.17422        52.29614        -0.32701
H         73.07676        54.71339        -0.14943
H         73.15688        56.56281        -0.44285
H         73.17017        58.96665        -0.34698
H         72.93185        60.48554         1.07110
H         72.91978        62.85157         1.53331
H         72.65500        64.41772         2.65662
H         72.72174        66.75612         3.25666
H         72.79758        68.69242         3.52627
H         72.56509        70.74287         4.88827
H         70.32842        71.84660         5.11466
