         314
 CSIRO Nanostructure Databank - Neutral Graphene Oxide Data Set
C         30.41097        57.00927        -0.98895
C         30.48326        58.51335        -1.21173
C         29.71718        59.07592        -2.33037
C         31.06240        61.11347        -2.34006
C         29.97543        60.34419        -2.80368
C         32.82139        52.91121         0.31975
C         32.77755        54.29184         0.28450
C         31.66592        55.01683        -0.26010
C         32.79439        57.18363         0.02393
C         31.64807        56.39198        -0.36495
C         32.82485        58.60076        -0.12385
C         31.66137        59.31684        -0.70899
C         33.04040        61.35697        -0.90712
C         31.95194        60.62502        -1.35163
C         35.30593        48.66136         0.34951
C         35.26363        50.05816         0.66302
C         34.05687        50.77783         0.50315
C         35.22221        52.87605         0.95060
C         34.01929        52.17834         0.64584
C         35.18335        54.32022         1.17203
C         33.89839        55.08052         0.82723
C         35.15329        57.23528         0.70777
C         33.95830        56.52923         0.52564
C         35.19058        58.65834         0.51658
C         33.97285        59.33490         0.18276
C         35.26759        61.48982         0.05145
C         33.91920        60.85279         0.20046
C         37.86011        44.59467        -0.83569
C         37.80100        45.94522        -0.39108
C         36.57734        46.62987        -0.26702
C         37.73576        48.53538         0.81052
C         36.49839        47.93818         0.27799
C         37.70051        50.06513         1.22134
C         36.45789        50.77833         0.97297
C         37.69390        52.92775         1.28327
C         36.46620        52.19786         1.04377
C         37.65983        54.35770         1.35324
C         36.45685        55.04615         1.20526
C         37.68351        57.26423         1.07281
C         36.42189        56.48964         0.90703
C         37.62228        58.74985         1.10603
C         36.39184        59.40416         0.65255
C         37.72154        61.46923         0.21368
C         36.45488        60.80490         0.31693
C         40.32223        40.31900        -1.77824
C         40.02695        41.73020        -1.80378
C         38.99637        42.45906        -1.24435
C         40.30495        44.59903        -0.68569
C         39.06134        43.89633        -0.99783
C         40.27196        45.92407        -0.21346
C         39.04039        46.62083        -0.06223
C         40.22689        48.60782         0.85401
C         39.01412        47.92517         0.47484
C         40.19702        50.08880         1.00276
C         38.95241        50.82822         1.21926
C         40.22194        52.94593         1.49533
C         38.95501        52.22853         1.30205
C         40.22831        54.40776         1.65110
C         38.91262        55.10186         1.67788
C         40.17722        57.31772         1.39983
C         38.90187        56.60655         1.64707
C         40.17315        58.58287         0.89246
C         38.95512        59.43139         0.91466
C         40.18468        61.41855         0.08998
C         38.96229        60.81193         0.37234
C         42.79056        36.06704        -1.79827
C         42.82393        37.57335        -1.66158
C         41.70441        38.31656        -1.87839
C         42.82969        40.48947        -1.38400
C         41.60610        39.76754        -1.73374
C         42.89973        41.84488        -1.11309
C         41.85013        42.78544        -1.39129
C         42.52553        44.28359         0.44848
C         41.57271        43.89199        -0.61978
C         42.53874        45.72984         0.83577
C         41.57562        46.63812         0.11025
C         42.65226        48.58516         1.41629
C         41.43128        47.95049         0.84249
C         42.75445        50.06838         1.37004
C         41.49592        50.83520         1.18463
C         42.66869        52.90381         2.01269
C         41.41441        52.24705         1.58352
C         42.67632        54.40961         2.03509
C         41.39653        55.12289         1.78297
C         42.69836        57.26741         1.24267
C         41.44891        56.65277         1.88167
C         42.68912        58.45737         0.58315
C         41.40804        59.15921         0.32168
C         42.73119        61.27328        -0.16055
C         41.41118        60.62163        -0.05239
C         45.44239        33.39271        -2.38553
C         44.21248        34.08519        -2.33540
C         45.35312        36.08669        -1.56103
C         44.15188        35.41176        -1.92225
C         45.35205        37.47152        -1.20245
C         44.05466        38.20355        -1.13427
C         45.37969        40.39214        -0.95566
C         44.04243        39.69546        -1.00911
C         45.38687        41.77773        -0.39400
C         44.08077        42.47392        -0.45742
C         44.93892        44.05491         1.36488
C         43.78588        43.48255         0.60186
C         44.69064        45.41065         1.91104
C         43.76234        46.29064         1.46045
C         45.21576        48.44956         1.67676
C         43.85129        47.75718         1.78617
C         45.22470        49.96947         1.48693
C         43.94032        50.70418         1.56777
C         45.25289        52.86481         1.71082
C         43.97651        52.14366         1.93499
C         45.17559        54.31023         1.40887
C         43.98819        55.12264         1.85226
C         45.26977        57.27270         1.17481
C         43.99509        56.60068         1.55303
C         45.23635        58.58343         0.48080
C         43.92015        59.05796        -0.09248
C         45.15060        61.28953        -0.62104
C         43.88029        60.56887        -0.21493
C         46.61366        34.01681        -2.00859
C         47.79626        36.03389        -1.20951
C         46.60334        35.38066        -1.59271
C         47.79795        37.39891        -0.85271
C         46.54766        38.11111        -0.89173
C         47.77547        40.20035        -0.10167
C         46.60735        39.57948        -0.74944
C         47.70596        41.52088         0.45078
C         46.46152        42.20759         0.52497
C         47.63763        44.30986         1.45978
C         46.35971        43.61715         1.01752
C         47.76915        45.70032         2.02307
C         46.65926        46.47153         2.33415
C         47.72420        48.56918         1.76374
C         46.53301        47.85243         2.02147
C         47.70347        50.00984         1.59440
C         46.48835        50.71984         1.62327
C         47.70756        52.87471         1.31292
C         46.45244        52.16530         1.54798
C         47.71644        54.27385         1.10629
C         46.45500        55.02509         1.03214
C         47.70911        57.15619         0.83629
C         46.52688        56.49765         1.04913
C         47.71211        58.67113         0.85257
C         46.41065        59.25855         0.31168
C         47.61924        61.28896        -0.35367
C         46.43985        60.61459        -0.21039
C         48.98426        38.08443        -0.47493
C         50.17149        40.09829         0.36897
C         48.98434        39.44895        -0.05633
C         50.16048        41.44714         0.80024
C         48.90836        42.12094         0.94228
C         50.21218        44.21094         1.68718
C         48.88156        43.46724         1.53213
C         50.20364        45.68364         1.73022
C         49.01137        46.40596         1.85457
C         50.17539        48.57888         1.63683
C         48.97606        47.85942         1.81093
C         50.15242        49.97693         1.40050
C         48.95251        50.71446         1.45486
C         50.15172        52.87541         1.09854
C         48.94320        52.15680         1.31246
C         50.13228        54.25206         0.82316
C         48.92406        54.98584         0.87852
C         50.14068        57.10388         0.36642
C         48.94176        56.42147         0.67851
C         50.13362        58.53369         0.11399
C         48.93869        59.26628         0.19902
C         50.08363        61.27647        -0.59161
C         48.90543        60.63012        -0.21144
C         51.39382        42.15414         0.97509
C         52.65036        44.26336         1.13298
C         51.45498        43.52745         1.25946
C         52.74411        45.66480         1.39943
C         51.49283        46.36802         1.80942
C         52.71710        48.50741         1.26649
C         51.46697        47.88433         1.80763
C         52.66733        49.92675         0.82130
C         51.44925        50.68127         1.28024
C         52.70810        52.81122         0.73268
C         51.45142        52.17319         1.18757
C         52.62368        54.16701         0.15693
C         51.32569        54.91944         0.26270
C         52.56334        57.03403        -0.15403
C         51.36052        56.38693         0.17256
C         52.56368        58.45588        -0.38740
C         51.34095        59.18209        -0.29699
C         52.52447        61.23315        -0.97391
C         51.32501        60.58342        -0.61082
C         53.93227        46.36150         1.27012
C         55.23538        48.58995         1.16336
C         54.02601        47.82595         1.64441
C         55.22119        49.94513         0.88689
C         53.94982        50.67540         0.51190
C         55.08747        52.70048         0.05693
C         53.89823        52.15155         0.79607
C         55.09833        54.20160        -0.04885
C         53.87083        54.91015        -0.05400
C         55.02582        57.00287        -0.51712
C         53.81411        56.30655        -0.24558
C         55.00314        58.40509        -0.80034
C         53.76507        59.12181        -0.74153
C         54.95761        61.17760        -1.39564
C         53.75035        60.53167        -1.03464
C         56.42219        50.69478         0.75089
C         57.58582        52.80948         0.35911
C         56.41578        52.08409         0.44256
C         57.61206        54.30543         0.25386
C         56.29340        54.91176        -0.15471
C         57.47557        56.97150        -0.83384
C         56.26558        56.30101        -0.47770
C         57.43794        58.34222        -1.19735
C         56.20511        59.06888        -1.14207
C         57.38254        61.11091        -1.85504
C         56.18219        60.47423        -1.46473
C         58.75942        54.88240        -0.52049
C         59.87094        56.88369        -1.42714
C         58.71675        56.22004        -0.92882
C         59.84991        58.25838        -1.75148
C         58.62926        59.00026        -1.62933
C         59.79774        61.02242        -2.39104
C         58.59852        60.39282        -1.95897
C         61.01945        58.93354        -2.19964
C         60.98118        60.29278        -2.50679
O         43.83502        38.85659         0.18251
O         52.46022        48.84568        -0.13595
O         51.71570        54.23383        -1.00153
O         45.50047        54.55513        -0.01228
O         44.10214        43.00006         1.94472
O         51.69528        51.49178         2.48286
O         54.78485        52.08652        -1.28271
O         37.36025        56.76200        -0.25861
O         43.46852        54.87895         3.18063
O         49.54067        43.56985         2.83104
O         34.22657        54.76025         2.21699
O         38.75355        55.92488         2.92033
O         42.94413        48.16310         2.84200
O         30.40932        59.27689         0.04326
O         45.11384        42.85180        -1.41752
O         46.25664        40.21701        -2.09533
O         38.29369        59.36566         2.24142
O         43.89717        58.58238        -1.51745
O         41.23579        59.54420        -1.08558
O         45.57316        45.82179         2.90464
O         41.01185        42.49944        -2.47261
O         41.88979        44.72826         1.68238
O         54.05748        50.80009        -0.99075
O         44.76665        57.34641         2.56584
O         45.28630        49.04846         0.33665
O         37.63878        48.98482         2.19808
O         43.27810        52.34012         3.22473
O         47.10576        44.48778         0.08562
O         51.61336        47.16706         3.06676
O         40.93882        50.64882        -0.17591
O         41.51429        56.97168         3.29646
H         40.70724        56.59690         3.71651
O         47.79470        59.05393         2.26258
H         47.79749        60.03318         2.30517
O         54.15633        47.89625         3.09881
H         53.33435        47.50054         3.48630
O         44.00271        57.12370        -1.44736
H         43.64739        56.86254        -2.33141
O         45.13344        62.65021        -0.17804
H         45.17904        62.65750         0.79977
O         33.34097        61.27171         1.48809
H         33.86233        60.84863         2.20229
O         42.24169        46.96974        -1.14945
H         41.71304        47.65659        -1.60821
O         57.81675        54.77610         1.65619
H         57.88135        55.75518         1.62588
O         30.13926        56.35120        -2.23834
H         30.94882        56.37554        -2.78825
O         41.93492        35.66839        -2.87432
H         42.33371        35.97298        -3.71482
H         29.52987        56.79614        -0.32854
H         28.95564        58.44550        -2.81098
H         31.24720        62.10555        -2.77639
H         29.35344        60.75101        -3.61418
H         31.94973        52.33907        -0.03208
H         30.79565        54.44596        -0.61682
H         33.26944        62.32825        -1.37261
H         34.37278        48.17996         0.02045
H         33.13962        50.23728         0.22807
H         35.30724        62.56547        -0.17806
H         36.91208        44.07754        -1.04776
H         35.64925        46.13361        -0.58832
H         37.72432        62.51858        -0.11744
H         39.47401        39.61519        -1.76880
H         38.10866        41.92980        -0.86483
H         40.21474        62.47983        -0.19950
H         42.31449        35.66309        -0.85906
H         40.79594        37.79003        -2.21160
H         42.76891        62.36823        -0.27706
H         45.45703        32.34432        -2.71450
H         43.28403        33.57184        -2.62281
H         45.14388        61.32841        -1.74720
H         47.56904        33.47340        -2.03386
H         48.74170        35.47138        -1.20932
H         47.60283        62.32987        -0.70974
H         49.93384        37.52897        -0.46127
H         51.12806        39.55739         0.32249
H         50.05060        62.33073        -0.90370
H         52.32751        41.62342         0.73531
H         53.56045        43.73411         0.81274
H         52.50442        62.30633        -1.21495
H         54.84594        45.81647         0.98776
H         56.21130        48.10118         1.31508
H         54.94041        62.25115        -1.63603
H         57.38371        50.20360         0.96681
H         58.54336        52.30297         0.55993
H         57.36734        62.18225        -2.10524
H         59.70448        54.32267        -0.58644
H         60.81189        56.32168        -1.52232
H         59.78260        62.09287        -2.64092
H         61.95885        58.37124        -2.29903
H         61.89658        60.79686        -2.84752
