         252
 CSIRO Nanostructure Databank - Neutral Graphene Oxide Data Set
C         30.42364        31.70238        -0.77302
C         30.48305        32.92167        -0.98023
C         30.53979        36.06068        -1.25519
C         30.54805        37.30569        -1.17399
C         30.51085        40.41759        -0.92397
C         30.38696        41.62849        -0.68714
C         32.76901        28.84620        -0.43525
C         31.68261        29.42528        -0.50954
C         32.86430        31.53825        -0.57919
C         31.49735        30.86844        -0.13180
C         32.88678        32.93060        -1.10436
C         31.62005        33.74812        -1.39063
C         32.88035        35.95311        -1.11500
C         31.68766        35.21839        -1.28312
C         32.90679        37.39916        -0.96878
C         31.66942        38.16311        -1.01752
C         32.86867        40.31135        -0.75850
C         31.65490        39.55398        -0.91430
C         32.86194        41.73633        -0.61083
C         31.50121        42.61299        -0.89716
C         32.75221        44.31111         0.24361
C         31.65335        43.78867         0.00777
C         35.48344        27.31016         0.42523
C         35.10543        28.75778         0.55467
C         34.18533        29.29500        -0.53140
C         35.31901        31.52550        -0.25583
C         34.07661        30.84864        -0.44429
C         35.28578        33.01009        -0.26894
C         34.16308        33.70510        -0.97386
C         35.40009        35.95683        -0.65232
C         34.16886        35.21899        -1.04882
C         35.39044        37.42511        -0.62383
C         34.11190        38.12928        -0.76341
C         35.29368        40.29446        -0.40906
C         34.09362        39.56276        -0.64355
C         35.29908        41.68653        -0.27660
C         34.05779        42.40292        -0.28030
C         35.25783        44.39389         0.59458
C         34.08797        43.79033         0.20962
C         35.46193        45.65860         1.23969
C         37.75277        27.30866         1.25842
C         36.51581        26.71861         0.73369
C         37.68687        28.84139         1.12315
C         36.47237        29.49684         0.56110
C         37.72728        31.65225         0.66335
C         36.49522        30.84378         0.22845
C         37.81056        33.00325        -0.04133
C         36.54373        33.80166        -0.10814
C         37.85101        35.95623        -0.45746
C         36.55811        35.24427        -0.46891
C         37.84709        37.40911        -0.03901
C         36.55148        38.11408        -0.35505
C         37.73824        40.32856        -0.86401
C         36.59276        39.59566        -0.11384
C         37.77221        41.76170        -0.38243
C         36.57535        42.40718        -0.13111
C         37.76664        44.43580         0.63121
C         36.57168        43.77577         0.35087
C         37.87779        45.66564         1.57253
C         36.48275        46.22239         1.64179
C         40.35808        24.60252         1.45866
C         39.26908        25.23200         1.31978
C         40.26438        27.32331         1.52079
C         39.04989        26.61437         1.30926
C         40.23683        28.81395         1.45147
C         38.99672        29.54148         1.00439
C         40.36202        31.53683         0.27755
C         39.03581        30.84787         0.62677
C         40.29419        33.04007         0.52705
C         39.11666        33.72134        -0.10243
C         40.29860        36.01777         0.25397
C         39.13087        35.21662        -0.25273
C         40.39393        37.39403        -0.34183
C         39.09009        38.11574        -0.59151
C         40.36448        40.35835        -0.49814
C         39.09674        39.60200        -0.77898
C         40.31825        41.74500        -0.43371
C         39.04018        42.48777        -0.47288
C         40.32879        44.59871         0.40944
C         39.02681        43.95780         0.05262
C         40.32120        45.92459         1.01706
C         38.92981        46.62759         1.02885
C         40.16198        48.36894         2.34549
C         39.15973        47.83084         1.87501
C         42.93195        24.67950         1.69880
C         41.60119        25.20722         1.69507
C         42.68968        27.48685         1.98735
C         41.50055        26.65215         1.77992
C         42.81942        28.75948         1.49894
C         41.56432        29.53082         1.34878
C         42.76855        31.62897         1.01163
C         41.60491        30.93977         0.90307
C         42.83186        33.13963         1.19788
C         41.50509        33.83176         0.91782
C         42.84357        36.01451         0.49205
C         41.53970        35.33557         0.73062
C         42.86796        37.46028         0.31528
C         41.65217        38.17859        -0.15937
C         42.79036        40.38536         0.06020
C         41.60663        39.66175        -0.21882
C         42.82019        41.79181        -0.03733
C         41.59178        42.55674        -0.49966
C         42.77261        44.67355         0.22563
C         41.50504        43.93043         0.15460
C         42.76516        46.03954         0.94218
C         41.47793        46.51037         1.49299
C         42.76461        48.36968         2.50917
C         41.44310        47.63785         2.61302
C         44.09801        25.06899         1.50669
C         45.45130        27.16968         0.93066
C         44.64709        26.38192         1.70920
C         45.39695        28.66729         0.86167
C         44.16565        29.42765         1.37275
C         45.16087        31.60790         0.36352
C         44.07997        30.91446         1.14690
C         45.16716        33.09884         0.34900
C         44.02708        33.82858         0.57144
C         45.26577        35.97951        -0.03355
C         44.01223        35.27875         0.44437
C         45.31862        37.47148         0.23458
C         44.06198        38.16543         0.33285
C         45.31454        40.33335         0.19864
C         44.02828        39.65397         0.58487
C         45.33401        41.81231         0.44727
C         44.02757        42.53513         0.15935
C         45.30087        44.71235         0.30345
C         44.04142        43.92454         0.18839
C         45.26216        46.02625         1.04430
C         44.08581        46.60282         1.40927
C         43.80010        47.78442         2.15980
C         47.54797        27.24787        -0.29806
C         46.52181        26.68548         0.10718
C         47.57622        28.71607        -0.62137
C         46.42305        29.35211         0.24529
C         47.65385        31.55688        -0.28667
C         46.38445        30.82911         0.00128
C         47.64642        33.03131        -0.31913
C         46.48641        33.77053         0.27794
C         47.83575        36.00361         0.17759
C         46.53588        35.26005         0.37590
C         47.78434        37.45547        -0.15913
C         46.50869        38.15420         0.00379
C         47.70935        40.27985        -0.39305
C         46.50101        39.62103        -0.05461
C         47.74650        41.75263        -0.48650
C         46.51215        42.52130        -0.18853
C         47.94037        44.45081         0.81438
C         46.61141        43.98848         0.14991
C         47.74221        45.93338         1.00836
C         46.62525        46.39994         1.28502
C         50.11161        29.04224        -0.00563
C         48.88109        29.43379        -0.38622
C         50.05254        31.63231        -0.89603
C         48.82849        30.89578        -0.58461
C         50.20976        32.98648        -0.69392
C         48.96553        33.76407        -0.49473
C         50.29045        35.90361        -0.63593
C         49.06627        35.21410        -0.12104
C         50.21676        37.38822        -0.80925
C         48.91982        38.09712        -0.58910
C         50.09735        40.28990        -1.37350
C         48.78148        39.50292        -1.13043
C         50.19092        41.81282        -1.11271
C         49.10718        42.37025        -0.19082
C         50.34366        44.37870        -0.27944
C         49.09401        43.91588         0.00506
C         51.30752        29.30939         0.50429
C         52.63496        31.52760         0.18359
C         51.87414        30.37267        -0.19947
C         52.49405        32.74376         0.01194
C         51.59900        33.68111        -0.78123
C         52.63743        36.08368        -0.72420
C         51.59023        35.12248        -0.24152
C         52.61463        37.29516        -0.92950
C         51.48924        38.25411        -0.66910
C         52.41500        40.42589        -1.68441
C         51.39187        39.53737        -1.45182
C         52.54282        41.70258        -1.70270
C         51.54125        42.52577        -1.15002
C         51.40007        43.87446        -0.83146
O         42.75276        45.93188        -0.51546
O         43.83160        27.01690         2.66159
O         41.29736        37.51114        -1.46472
O         32.33533        33.10262        -2.46530
O         51.12972        30.85194        -1.35801
O         46.88173        42.25851        -1.56675
O         38.72951        35.65552        -1.58564
O         40.79486        29.46852         2.63637
O         48.02795        33.59885        -1.62052
O         39.11498        38.67041        -1.92652
O         46.11987        44.80756        -0.92973
O         35.63983        33.59170         1.03425
O         38.98700        43.64084        -1.37718
O         40.62013        36.00310         1.66722
O         46.61281        34.47180         1.58614
O         48.78966        35.63071         1.24319
O         40.50227        33.42510         1.91223
O         44.46805        30.39183         2.44660
O         38.57649        33.02493        -1.27892
O         49.82825        41.29510        -2.40678
O         50.21423        36.47156        -1.96189
O         34.50562        34.36954        -2.21819
O         37.47696        28.14575         2.41511
O         45.31492        31.10265        -1.01320
O         41.78397        42.83535        -1.92621
H         40.97315        43.29932        -2.23901
O         47.22961        28.93173        -1.97593
H         46.33231        28.57928        -2.14609
O         38.59029        46.95062        -0.30392
H         39.23831        47.59339        -0.65834
O         45.56567        41.97309         1.88871
H         44.92253        41.36745         2.33830
O         36.87076        39.80780         1.32051
H         36.03647        39.65088         1.81291
O         31.42316        30.98256         1.26502
H         30.67775        30.44221         1.59717
O         43.06661        33.29441         2.62300
H         42.21755        33.09939         3.08057
O         52.03800        33.68606        -2.12056
H         52.00674        32.76895        -2.46709
O         43.92775        39.78820         2.06826
H         44.47844        39.08024         2.46836
O         47.99067        43.83931         2.12200
H         48.65114        44.32192         2.66273
O         38.01660        37.39597         1.40302
H         37.76660        38.29216         1.74205
O         40.57593        31.30919        -1.14123
H         39.83879        31.75183        -1.63144
O         37.54295        31.98552         2.05933
H         37.49384        31.15660         2.58056
O         48.20361        39.31398        -2.45473
H         48.26766        40.17752        -2.92617
O         38.31340        45.22808         2.85194
H         37.58223        44.74914         3.29327
O         41.37606        46.98284         3.84944
H         41.21033        47.63910         4.55650
O         37.36201        40.42386        -2.24833
H         37.85421        39.72613        -2.74299
O         34.50727        28.96789         1.81996
H         35.09751        28.58912         2.50719
O         51.54225        38.63049         0.71985
H         52.33478        39.18966         0.86488
O         31.51843        43.04314        -2.22574
H         31.21184        42.32604        -2.81628
O         34.76401        28.98615        -1.78879
H         34.13405        29.22553        -2.49962
O         51.63528        35.02746         1.16720
H         51.60844        35.92391         1.56202
O         49.46524        41.82817         1.11089
H         48.87546        42.25514         1.78373
O         45.26837        35.84863        -1.49080
H         44.51729        36.36467        -1.85419
