         260
 CSIRO Nanostructure Databank - Neutral Graphene Oxide Data Set
C         30.26864        31.81991         1.39198
C         30.33500        32.98805         0.97645
C         30.23385        36.12551        -0.06547
C         30.27430        37.33098        -0.35824
C         30.27234        40.35451        -0.77449
C         30.21354        41.56033        -0.52713
C         32.64856        28.96387         1.06995
C         31.69954        29.61246         1.50744
C         32.47296        31.60273         0.33580
C         31.59352        31.09751         1.60957
C         32.57681        33.13157         0.34331
C         31.39937        33.84515         0.53728
C         32.65010        36.00778         0.12010
C         31.34546        35.31429         0.46247
C         32.66997        37.29653        -0.69394
C         31.39630        38.06009        -0.97591
C         32.67183        40.31005        -0.65127
C         31.42850        39.55042        -1.27110
C         32.66230        41.66219        -0.50817
C         31.30908        42.52319        -0.87974
C         32.58874        44.43320        -0.01186
C         31.53894        43.81048        -0.17959
C         35.37532        27.38778         1.14141
C         35.16345        28.66187         0.41561
C         33.84870        29.36315         0.33439
C         35.15165        31.61447         0.05523
C         33.82115        30.87936         0.11620
C         35.11570        33.09461         0.21760
C         33.86431        33.81276         0.21585
C         35.12395        36.03555         0.40160
C         33.89107        35.20654         0.14129
C         35.25317        37.15586        -0.68398
C         33.98343        38.03560        -0.76783
C         35.18994        40.17693        -0.05984
C         33.95402        39.53168        -0.60928
C         35.15318        41.64754         0.24573
C         33.86661        42.39206         0.03623
C         35.22725        44.60673         0.36163
C         33.96160        43.91766        -0.01214
C         35.44555        45.99586         0.80125
C         37.80952        27.39394         0.74389
C         36.53966        26.96887         1.23906
C         37.72376        28.71537         0.32423
C         36.45000        29.45404         0.32565
C         37.71734        31.56360         0.39662
C         36.42201        30.83216         0.22845
C         37.62126        33.07549         0.29722
C         36.33621        33.82734         0.30380
C         37.62037        36.01674         0.83883
C         36.38305        35.21168         0.46708
C         37.75316        37.32038         0.07212
C         36.55129        37.98223        -0.52849
C         37.77475        40.25049        -0.39913
C         36.48868        39.46018        -0.19345
C         37.71244        41.70533        -0.01413
C         36.48926        42.34154         0.46418
C         37.84588        44.57214         0.70029
C         36.51064        43.83029         0.72053
C         37.89615        46.12528         0.92878
C         36.51271        46.61022         0.88415
C         40.32539        24.56592         0.85723
C         39.31150        25.26772         0.99828
C         40.13841        27.08544        -0.32378
C         38.80280        26.41705         0.17504
C         40.22543        28.60388        -0.10465
C         38.90658        29.37393        -0.37806
C         40.37388        31.48506        -0.21398
C         39.04500        30.82774         0.12701
C         40.65184        32.72832         0.34180
C         38.81808        33.85290         0.69776
C         40.19574        35.93985         0.79450
C         38.94186        35.29849         0.81990
C         40.21893        37.36573         0.72945
C         38.94695        38.10208         0.56323
C         40.22163        40.35986         0.44075
C         38.92885        39.59323         0.40780
C         40.21489        41.80604         0.08102
C         38.94178        42.51208        -0.38548
C         40.19565        44.67809        -0.09989
C         39.01894        43.95441         0.08545
C         40.18061        46.12703        -0.06097
C         39.05364        46.82162         0.38273
C         40.12053        48.96983        -0.04066
C         39.13868        48.24706         0.19244
C         42.85904        24.38550         0.02609
C         41.68841        25.13269         0.63557
C         42.70416        27.07042        -0.89267
C         41.45605        26.35105        -0.35282
C         42.64952        28.55694        -1.15419
C         41.41324        29.29423        -0.76278
C         42.65863        31.31610        -1.26264
C         41.41972        30.66515        -0.84044
C         42.69580        33.51557        -0.66238
C         41.61738        33.78906         0.13634
C         42.79868        35.94958         0.79275
C         41.51151        35.15566         0.81029
C         42.79456        37.46713         0.87147
C         41.46608        38.16902         0.82938
C         42.74855        40.40599         0.70269
C         41.51635        39.57413         0.21815
C         42.79158        41.72021        -0.09717
C         41.49766        42.46818        -0.32612
C         42.79472        44.67954        -0.27230
C         41.48593        43.97327        -0.42423
C         42.73178        46.15990        -0.47272
C         41.39424        46.84719        -0.57768
C         42.67519        48.98654        -0.43322
C         41.29844        48.68469        -0.86003
C         43.83994        25.06087        -0.34004
C         45.21723        27.09291        -0.96136
C         44.04563        26.40930        -0.77553
C         45.28817        28.57113        -1.30911
C         43.96309        29.30830        -1.33515
C         45.17451        31.62483        -1.31543
C         43.91642        30.79070        -1.19868
C         45.20521        33.02959        -0.67960
C         44.06504        34.02777        -0.49055
C         45.29047        36.07161         0.71193
C         44.08044        35.35853         0.22522
C         45.30770        37.51517         0.44076
C         44.02968        38.25568         0.53621
C         45.32192        40.39313         0.63214
C         44.04348        39.61823         0.54033
C         45.32988        41.86379         0.31385
C         44.06394        42.50742        -0.20067
C         45.30066        44.72981        -0.35853
C         43.98951        44.00234        -0.24609
C         45.28805        46.22840        -0.07388
C         43.98529        46.95384        -0.14328
C         43.75088        48.38492        -0.37276
C         47.61938        27.27600        -0.68986
C         46.55411        26.64195        -0.77197
C         47.75551        28.71067        -0.81238
C         46.55792        29.35570        -1.07548
C         47.81878        31.58911        -0.95027
C         46.50019        30.85376        -1.21988
C         47.76647        33.02638        -0.46202
C         46.38267        33.38604        -0.07705
C         47.77217        35.97571         0.92357
C         46.47790        35.41593         0.93277
C         47.78742        37.45393         1.23200
C         46.61963        38.20276         0.60773
C         47.82702        40.33141         0.77411
C         46.63131        39.68047         0.70608
C         47.90823        41.76498         0.35468
C         46.65414        42.48903        -0.05250
C         47.90706        44.72731        -0.05944
C         46.63584        43.97923        -0.30443
C         47.63567        46.08285        -0.18494
C         46.62050        46.82626        -0.29823
C         50.37190        28.85478        -0.77883
C         49.01731        29.37635        -0.34824
C         50.35078        31.63829        -0.36815
C         49.10115        30.85605        -0.74367
C         50.17625        32.93716         0.40614
C         48.96014        33.80452         0.12727
C         50.16713        35.80683         1.19900
C         48.96734        35.19128         0.82369
C         50.27571        37.32229         1.52468
C         49.10631        38.12010         0.98356
C         50.43017        40.33216         0.86498
C         49.10111        39.58827         1.03414
C         50.44535        41.74631         0.36450
C         49.18786        42.52835         0.57320
C         50.46468        44.44823        -0.18306
C         49.15298        44.05289         0.32625
C         51.43321        29.46226        -0.58194
C         52.65080        31.56353         0.46896
C         51.70758        30.88972        -0.43158
C         52.55952        32.71675         0.90664
C         51.35200        33.53472         1.13518
C         52.41392        35.71204         0.39365
C         51.45528        35.01316         1.39230
C         52.47636        36.94991         0.45218
C         51.62396        37.98432         1.00055
C         52.63815        40.15962        -0.15162
C         51.68910        39.44770         0.71979
C         52.64394        41.37107        -0.41094
C         51.59107        42.32544        -0.19543
C         51.47315        43.74650        -0.35624
O         34.86157        44.42838        -1.03507
O         49.85701        40.19232         2.18651
O         40.53552        26.30920        -1.48179
O         45.25331        41.44077         1.69438
O         48.70255        31.26209        -2.06927
O         44.56104        46.57351         1.12865
O         34.38531        31.22110        -1.17101
O         42.05552        46.39683        -1.77268
O         38.57711        33.52812        -0.73354
O         42.45676        27.58917        -2.22818
O         44.63785        28.90443        -2.56876
O         46.32321        34.04699         1.14321
O         42.17770        38.00669         2.09797
O         34.22551        41.88709         1.35369
O         36.47330        42.94786         1.85191
O         32.01211        37.22688        -2.00321
O         38.14681        45.20859         1.99211
O         51.27765        31.72157        -1.50520
O         40.22038        41.38986         1.46995
O         34.34006        28.59901        -0.77160
O         41.44289        43.11771        -1.61572
O         32.06494        36.06682         1.47384
O         42.52166        32.62941        -1.70022
O         45.95077        31.35442        -2.49564
O         47.45427        41.81701        -1.06404
O         38.59258        39.02110         1.68823
O         46.18474        37.81239        -0.72762
O         50.33702        32.80527         1.86598
O         34.13516        38.90068        -1.93566
O         44.15643        35.30318        -1.25085
O         46.00079        44.35459        -1.58012
O         48.55106        33.95850        -1.26194
O         49.17684        43.49251         1.67059
O         38.53533        30.99788         1.48696
O         42.32770        35.30065         2.01235
O         35.82325        39.52353         1.09972
O         43.55683        41.71449        -1.33558
O         37.60052        37.42886        -1.36717
O         39.78622        33.10050         1.36588
O         52.19840        38.91072         1.95791
O         48.97425        29.35867         1.08459
H         48.93566        28.42487         1.38274
O         34.85827        36.72408         1.64786
H         35.66000        36.66363         2.22794
O         41.64231        39.33955        -1.19898
H         42.03120        40.12258        -1.64762
O         42.13382        25.70753         1.84462
H         42.16869        25.01581         2.53673
O         38.09147        40.06934        -1.79453
H         38.58199        40.86382        -2.12650
O         40.45677        28.66103         1.33153
H         40.13150        29.51808         1.68591
O         47.56342        37.58307         2.67625
H         48.44193        37.46906         3.12737
O         38.12250        25.90164        -0.95771
H         38.80047        25.52361        -1.56641
O         37.40446        36.40637         2.24551
H         37.92109        37.22135         2.44500
O         32.18134        31.54340         2.79131
H         31.64182        31.26738         3.56050
O         38.69955        29.37600        -1.79540
H         37.77236        29.62389        -1.99198
O         35.30500        36.45250        -1.92594
H         35.39981        37.10639        -2.65133
O         50.27886        37.45802         2.96450
H         50.81619        38.25686         3.18916
O         38.99595        42.54527        -1.85331
H         38.34831        43.20257        -2.18379
O         31.68430        31.23206        -0.80350
H         32.26077        31.25978        -1.59768
O         51.94520        35.22850         2.69442
H         52.67943        34.60389         2.86844
O         41.07156        48.85937        -2.19668
H         41.79717        48.44953        -2.71322
O         31.51539        39.74309        -2.67777
H         31.82193        38.89686        -3.08121
O         42.60447        40.75556         2.07857
H         42.51216        39.92315         2.59797
O         31.29931        42.73576        -2.25423
H         31.17314        41.87495        -2.71425
