         300
 CSIRO Nanostructure Databank - Neutral Graphene Oxide Data Set
C         30.70573        32.02874        -2.42155
C         30.72265        33.28390        -2.41860
C         30.89591        36.40258        -2.01648
C         30.67725        37.64814        -1.77296
C         30.32428        40.24489         0.18963
C         30.23229        41.39558         0.63525
C         32.90444        29.06846        -1.82088
C         31.96672        29.76754        -2.32991
C         32.83132        31.77444        -1.26215
C         31.67596        31.09146        -2.03265
C         32.86263        33.34906        -1.27791
C         32.02783        34.08028        -2.39782
C         33.25622        36.27110        -1.69361
C         31.95040        35.53041        -2.02731
C         33.03558        37.66461        -1.04051
C         31.61433        38.13479        -0.60407
C         32.68856        40.20955         0.41500
C         31.56506        39.66489        -0.50059
C         32.60765        41.65583         0.88597
C         31.29279        42.45326         0.50428
C         32.47078        44.35417         1.30970
C         31.40380        43.72145         1.31786
C         35.14409        27.29885        -0.08718
C         34.53162        28.59842         0.04653
C         33.92892        29.40208        -0.93961
C         35.41329        31.67569        -0.83973
C         34.00453        30.94020        -0.77758
C         35.22635        33.12862        -0.29064
C         34.33756        33.94941        -1.29058
C         35.45703        36.11340        -0.32576
C         34.22179        35.41570        -0.85622
C         35.49212        37.57644        -0.25021
C         34.22704        38.31015        -0.39165
C         35.19942        40.18897         1.14140
C         34.00376        39.49952         0.50508
C         35.23615        41.71432         0.97345
C         33.87543        42.38671         1.24263
C         35.12065        44.67632         1.23041
C         33.85395        43.91246         1.15768
C         35.27952        46.12107         1.51390
C         37.62641        27.25010         0.43506
C         36.27365        26.81651         0.04058
C         37.77027        28.72109         0.15637
C         36.82652        29.55876        -0.68191
C         37.72052        31.60986         0.30278
C         36.62876        30.96426        -0.21931
C         37.76788        33.09278         0.49516
C         36.54863        33.86705         0.07936
C         37.97709        35.98839         0.10816
C         36.74591        35.28628        -0.45849
C         37.94119        37.46087         0.38331
C         36.72034        38.35096         0.16000
C         37.75413        40.19639         1.68760
C         36.49807        39.45493         1.24797
C         37.79322        41.73423         1.91271
C         36.40418        42.42907         1.68678
C         37.73106        44.65954         1.62357
C         36.38682        43.93442         1.67420
C         37.74497        46.15952         1.37512
C         36.40524        46.63868         1.46317
C         40.14249        24.37240         0.33088
C         39.08985        25.02358         0.29167
C         40.16667        27.15478         0.08383
C         38.88358        26.44158         0.77079
C         40.28911        28.62469         0.61507
C         39.09714        29.44634         0.07009
C         40.25329        31.66879         0.39214
C         38.97302        30.83093         0.74166
C         40.25775        32.98503         1.21762
C         39.07937        33.80727         0.67892
C         40.32649        35.92079         0.97973
C         39.11628        35.17664         0.65252
C         40.31445        37.28809         1.09312
C         38.98721        37.93114         1.37625
C         40.28248        40.22778         1.19915
C         39.05354        39.45702         1.58354
C         40.13351        41.67151         0.93369
C         38.97068        42.37339         1.17109
C         40.09768        44.61987         0.60763
C         38.96745        43.87083         1.24678
C         40.19450        46.10476         0.87175
C         38.89690        46.83120         1.10927
C         40.08163        48.91839         0.50563
C         39.12011        48.22569         0.87744
C         42.81835        24.37542         0.57083
C         41.44997        24.90148         0.86343
C         42.79712        27.10369         0.10493
C         41.49159        26.36665         0.24430
C         42.77988        28.60543        -0.11456
C         41.52336        29.37410         0.12085
C         42.76059        31.50308         0.35595
C         41.56368        30.85747         0.37735
C         42.82908        32.96437         0.67044
C         41.61310        33.69135         1.15273
C         42.76207        35.92618         0.70092
C         41.60173        35.20661         1.37938
C         42.75561        37.41538         0.71138
C         41.57255        38.08190         1.41890
C         42.75982        40.27694         0.77413
C         41.47566        39.56225         1.06061
C         42.66991        41.72284         0.39816
C         41.26121        42.29344         0.08964
C         42.61758        44.56948         0.18384
C         41.26897        43.84798         0.09311
C         42.51976        46.02791        -0.35850
C         41.34941        46.82997         0.24135
C         42.57187        48.82559        -0.35174
C         41.16733        48.30770        -0.35556
C         43.86131        25.02971         0.59472
C         45.32465        27.11235        -0.00478
C         44.12335        26.50583         0.67107
C         45.37480        28.61539        -0.05812
C         44.08165        29.36031        -0.08207
C         45.37173        31.47204         0.24243
C         44.06369        30.73491         0.56856
C         45.37709        32.97141         0.29066
C         44.07238        33.73052         0.31014
C         45.26379        36.03653         0.95313
C         44.06549        35.21240         0.47069
C         45.26446        37.35961         0.16654
C         44.01540        38.16442         0.47100
C         45.21162        40.24972        -0.06929
C         44.00903        39.53048         0.41748
C         45.13094        41.65541        -0.47167
C         43.80405        42.34468        -0.38715
C         44.97306        44.60118        -0.85812
C         43.73247        43.83794        -0.56379
C         44.99519        45.97786        -0.70445
C         43.87687        46.75376        -0.06742
C         43.59540        48.15422        -0.53545
C         47.77659        27.20549         0.07698
C         46.62553        26.65395         0.01718
C         47.84806        28.51415         0.74819
C         46.61366        29.33008         0.44845
C         47.92800        31.49557         0.34412
C         46.63126        30.68961         0.50441
C         47.88890        32.94816         0.84720
C         46.57681        33.71591         0.80344
C         47.94268        35.97620         1.10440
C         46.57166        35.21443         1.01675
C         47.82039        37.44792         0.55787
C         46.51607        38.17966         0.38500
C         47.59720        40.18016        -0.79146
C         46.41185        39.56567        -0.17104
C         47.50591        41.62852        -1.23833
C         46.23152        42.35519        -0.94208
C         47.51399        44.57330        -1.48324
C         46.16398        43.81302        -1.27703
C         47.41475        46.00550        -1.14821
C         46.27599        46.50215        -1.03297
C         50.44150        28.66344         0.74582
C         49.14439        29.19310         1.15970
C         50.55018        31.45699         0.95646
C         49.27789        30.69489         1.42322
C         50.49058        32.96573         0.66369
C         49.17131        33.70503         0.78128
C         50.23251        35.86447        -0.21462
C         49.06257        35.17026         0.40896
C         50.36491        37.38545         0.09123
C         49.01026        38.04540        -0.15651
C         50.19038        40.28830        -0.68789
C         48.92741        39.44667        -0.69552
C         50.10474        41.71131        -1.16555
C         48.79218        42.38848        -1.64319
C         50.07289        44.47542        -1.66139
C         48.78155        43.85888        -1.11482
C         51.39996        29.24277         0.20879
C         52.65689        31.47905        -0.38409
C         51.79028        30.63146         0.42417
C         52.60854        32.70198        -0.51832
C         51.63847        33.69096        -0.04384
C         52.63033        35.97669        -0.45008
C         51.49288        35.04543        -0.70316
C         52.69305        37.20430        -0.42606
C         51.50327        38.08024        -0.77891
C         52.55055        40.32540        -1.35767
C         51.59495        39.55989        -0.45365
C         52.48880        41.56523        -1.56293
C         51.39505        42.42937        -1.60430
C         51.12593        43.79608        -1.72550
O         48.85344        38.29134        -1.58021
O         49.08828        35.45370        -1.02555
O         44.86445        29.24484        -1.29260
O         46.34465        34.28292         2.12774
O         48.58715        33.33991         2.06942
O         43.00052        41.38538         1.75022
O         43.33622        42.94043        -1.63381
O         51.69966        31.07458         1.77682
O         34.34199        35.59695         0.56040
O         41.68882        37.96459         2.82281
O         35.54630        39.43907         2.34031
O         41.92678        29.00329        -1.23554
O         48.33046        28.51031         2.11664
O         33.77433        38.65970        -1.79789
O         48.45819        31.39580        -0.83843
O         50.08049        41.39551         0.26477
O         34.56500        44.35459        -0.06431
O         33.03359        41.81898         2.26469
O         36.05014        43.18161         2.87770
O         37.36426        28.27959         1.47629
O         41.29416        46.64910         1.68099
O         40.28709        44.38762        -0.83576
O         45.33466        36.96947        -1.27178
O         42.23274        26.36385        -1.01016
O         36.81525        33.67392         1.49061
O         51.53874        33.71118         1.38549
O         38.71353        44.32015         2.62731
O         38.49134        36.98075        -0.87587
O         42.34350        36.66146        -0.49809
O         38.41986        39.66928         2.87848
O         47.24316        38.23362         1.65693
O         46.75454        44.13017        -2.59232
O         40.91577        41.82965        -1.17848
O         32.95360        39.28091         1.49680
O         42.55502        33.09049         2.11855
O         36.40712        29.15924        -1.76344
O         45.48958        32.25475        -0.97436
O         32.93793        31.32773         0.12779
O         44.05531        34.61369        -0.85521
O         47.31098        40.54244        -2.19691
O         31.64915        40.23689        -1.77570
H         31.12194        39.68071        -2.39431
O         38.55552        37.32226         2.61963
H         39.14795        37.65346         3.33146
O         39.85366        27.16749        -1.31407
H         40.69611        26.95271        -1.79489
O         44.16162        26.88702         2.04959
H         45.02917        26.63687         2.43230
O         40.37520        28.54763         2.03569
H         39.70639        29.15573         2.44385
O         44.10828        46.80880         1.33594
H         44.89789        47.36189         1.50600
O         42.39369        45.95966        -1.77482
H         41.59801        45.42093        -1.99324
O         40.08554        32.16104        -0.95435
H         40.01577        31.38219        -1.55962
O         34.88104        29.21127         1.17626
H         35.57760        28.70428         1.67543
O         39.30648        29.70021        -1.33163
H         39.55929        28.83706        -1.75722
O         48.83696        42.45297        -3.06521
H         48.28461        41.72383        -3.42958
O         33.94731        36.46088        -2.95495
H         34.15586        37.43179        -3.01472
O         51.96821        39.73626         0.87991
H         51.71911        40.64778         1.15693
O         41.70879        35.33124         2.81555
H         41.72352        36.31802         3.04083
O         44.10443        30.48982         2.00173
H         43.73089        31.26958         2.47183
O         44.97908        36.42756         2.30671
H         45.15830        35.65991         2.89565
O         36.98335        35.13773        -1.87420
H         37.62984        35.82939        -2.14621
O         34.87883        33.89133        -2.59273
H         34.76299        34.76069        -3.04146
O         41.31002        25.00520         2.26782
H         41.41216        24.11878         2.67302
O         40.02542        32.76775         2.62768
H         40.47553        33.49522         3.11941
O         32.20622        33.77902        -0.09488
H         32.70232        33.41416         0.67956
O         31.24815        37.51687         0.58567
H         30.56785        38.06123         1.03857
O         38.95623        26.41576         2.16583
H         39.78042        25.94584         2.44988
O         37.07921        39.21013        -0.96718
H         37.55528        38.65833        -1.62823
O         31.36821        42.79667        -0.85092
H         30.53717        43.22870        -1.13398
O         38.77901        30.58850         2.14377
H         38.97498        31.41910         2.65085
O         50.67547        37.52851         1.47187
H         51.61622        37.28994         1.62177
O         40.69383        48.17410        -1.66305
H         40.76606        49.02931        -2.13271
O         43.00042        44.53426         1.56458
H         42.53995        45.27043         2.03958
O         35.48170        41.84607        -0.44714
H         35.25850        42.77021        -0.72499
O         32.60354        33.91872        -3.67380
H         32.37249        34.68252        -4.24182
O         51.37345        34.90616        -2.11771
H         50.42110        34.77953        -2.33697
O         48.88391        43.83736         0.29552
H         48.80104        44.75408         0.63528
O         44.40689        37.77744        -2.02723
H         43.55960        37.26083        -1.94398
O         34.50310        32.99892         0.93919
H         35.09027        33.27645         1.68258
O         48.97026        30.91771         2.73874
H         49.13711        31.86313         2.97692
O         48.31889        36.07108         2.46934
H         47.77478        36.77620         2.88672
O         38.10981        41.95479         3.28776
H         37.43453        41.51889         3.84759
O         51.28479        37.94766        -2.15314
H         51.31165        36.99581        -2.40834
O         35.73063        31.70539        -2.23114
H         35.94483        30.78793        -2.52528
