         762
 CSIRO Nanostructure Databank - Neutral Graphene Oxide Data Set
C         23.10331        24.49391        -0.47075
C         21.91488        25.19949        -0.67430
C         23.14744        27.30002        -0.77824
C         21.92873        26.58509        -0.78898
C         23.19307        28.74312        -0.71906
C         21.96722        29.50351        -0.50028
C         23.18452        31.63294        -0.35293
C         21.94260        30.84200        -0.31150
C         23.27891        33.08106         0.08552
C         22.18245        33.97858         0.56601
C         23.35981        36.18495         0.17851
C         22.22745        35.34060         0.58479
C         23.22772        37.50478        -0.42175
C         22.05348        38.21450        -0.56636
C         23.14569        40.24488        -1.46336
C         22.02938        39.57484        -1.02505
C         23.19180        41.72426        -1.68489
C         21.94816        42.54520        -1.80458
C         23.11473        44.47934        -2.84862
C         21.91224        43.80501        -2.28676
C         23.24627        45.95111        -3.10454
C         22.38637        46.59301        -3.96004
C         23.74278        48.64205        -3.93251
C         22.61131        47.93894        -4.35381
C         25.55939        23.22029         0.56063
C         25.55514        24.42387        -0.14149
C         24.34510        25.15093        -0.47886
C         25.61289        27.27400        -0.84505
C         24.37983        26.57116        -0.72818
C         25.66664        28.69485        -0.87732
C         24.42266        29.40613        -0.74378
C         25.78914        31.57445        -0.46472
C         24.47556        30.84349        -0.37279
C         25.77119        33.06350        -0.27669
C         24.65897        33.51617         0.36870
C         25.86798        36.12338        -0.24974
C         24.63953        35.67554         0.34805
C         25.81092        37.56069        -0.58213
C         24.46531        38.09766        -0.99029
C         25.69896        40.15849        -2.01036
C         24.40789        39.48088        -1.59287
C         25.67636        41.53706        -2.57325
C         24.45562        42.34672        -2.19760
C         25.67478        44.46836        -2.78861
C         24.38866        43.72890        -2.76504
C         25.69049        45.88960        -2.31476
C         24.37992        46.71747        -2.44745
C         25.83881        48.80596        -2.58053
C         24.67537        48.07604        -3.05742
C         25.92187        50.21433        -2.70766
C         28.02517        23.10615         0.59716
C         26.75942        22.55853         0.86812
C         28.10270        24.40379        -0.01495
C         26.84948        24.98727        -0.51952
C         28.11391        27.19994        -0.75694
C         26.85330        26.49304        -0.92368
C         28.10505        28.60100        -1.05597
C         26.93155        29.37892        -1.09095
C         28.15848        31.80564        -1.34503
C         26.94117        30.89667        -1.16244
C         28.24762        33.15370        -0.67295
C         27.03325        33.87613        -0.19876
C         28.27524        36.05376        -0.77818
C         27.04286        35.38007        -0.34860
C         28.31499        37.44586        -1.04183
C         27.08093        38.26037        -0.92786
C         28.28722        40.36379        -1.83684
C         27.01617        39.65146        -1.50586
C         28.33327        41.70468        -2.56864
C         26.96048        42.28822        -2.91506
C         28.63019        44.80888        -2.49197
C         26.77761        43.74360        -3.11947
C         28.30223        46.01299        -1.91299
C         26.95140        46.64000        -1.97180
C         28.04875        48.85301        -1.46852
C         26.93529        48.13214        -1.96362
C         28.06646        50.26811        -1.54635
C         27.00505        50.92038        -2.20389
C         30.50285        20.37919         1.59235
C         29.27906        21.10005         1.42292
C         30.54389        23.01773         0.59472
C         29.24484        22.38556         0.92485
C         30.60295        24.44391         0.13139
C         29.30598        25.13994        -0.09733
C         30.54245        27.31833        -0.19281
C         29.30180        26.52142        -0.42501
C         30.58920        28.63453        -0.86224
C         29.42583        29.08549        -1.40336
C         30.66164        31.73717        -1.13598
C         29.48603        31.24988        -1.63842
C         30.70317        33.16870        -0.88379
C         29.50856        33.90440        -0.88855
C         30.75853        35.98844        -1.12796
C         29.50902        35.31895        -0.91287
C         30.73960        37.37915        -1.44829
C         29.52360        38.08811        -1.44000
C         30.83257        40.28651        -1.98642
C         29.52277        39.50737        -1.91386
C         30.76991        41.76394        -1.94725
C         29.61687        42.47546        -2.25959
C         30.69459        44.50810        -1.28327
C         29.64822        43.91272        -2.04774
C         30.52155        45.87408        -0.73469
C         29.23856        46.61295        -0.95617
C         30.49796        48.83545        -0.67936
C         29.18953        48.13607        -0.81263
C         30.47758        50.32490        -0.63303
C         29.19351        51.04642        -0.95843
C         30.42696        53.19913        -1.07440
C         29.27149        52.52327        -1.13568
C         33.03261        18.98297         2.08524
C         33.01202        20.28463         1.63707
C         31.73811        20.97152         1.45448
C         33.08986        23.12626         0.97344
C         31.78004        22.42652         1.19730
C         33.10111        24.51009         0.43010
C         31.88827        25.17539         0.25416
C         33.14502        27.37226        -0.03077
C         31.84250        26.64058         0.14510
C         33.14799        28.70217        -0.72230
C         31.86970        29.37883        -1.08925
C         33.14554        31.57183        -0.49570
C         31.85932        30.88308        -0.87082
C         33.16806        33.07812        -0.46922
C         31.94742        33.84510        -0.80420
C         33.27904        35.89137        -1.06339
C         31.98613        35.23842        -0.98795
C         33.29246        37.33704        -1.41064
C         32.01789        38.09451        -1.68558
C         33.23086        40.27292        -1.25542
C         32.04666        39.57106        -1.59020
C         33.22589        41.71928        -1.18146
C         32.08764        42.50903        -1.79933
C         33.07494        44.56272        -0.70325
C         31.90884        43.85174        -1.13376
C         33.06726        45.98476        -0.59280
C         31.78008        46.69434        -0.49427
C         32.96911        48.92083        -0.75019
C         31.69170        48.17148        -0.58535
C         32.95223        50.40535        -0.66589
C         31.76713        51.06985        -0.72089
C         32.94452        53.29253        -0.52760
C         31.77966        52.53326        -1.16320
C         32.90327        54.67603        -0.29724
C         35.54679        18.80520         1.80690
C         34.26950        18.24516         2.34996
C         35.45005        20.12583         1.10131
C         34.24858        20.96719         1.25312
C         35.57133        22.98467         0.56561
C         34.32655        22.31415         0.91166
C         35.58937        24.41171         0.29625
C         34.37913        25.14446         0.27325
C         35.69177        27.21765        -0.42595
C         34.43595        26.60715         0.06982
C         35.64810        28.65472        -0.80088
C         34.42139        29.46626        -0.59111
C         35.70700        31.58814        -0.64177
C         34.44730        30.83626        -0.59883
C         35.73313        32.98472        -0.66176
C         34.49867        33.78391        -0.55012
C         35.78046        35.90917        -0.99082
C         34.47267        35.20167        -0.95679
C         35.70876        37.34548        -0.58929
C         34.43840        38.11360        -0.86491
C         35.62695        40.29744        -0.55093
C         34.42392        39.57201        -0.95769
C         35.51602        41.72704        -0.19303
C         34.33829        42.42703        -0.68756
C         35.51343        44.60297        -0.31677
C         34.29781        43.85523        -0.59940
C         35.46020        46.05067        -0.10909
C         34.26364        46.71145        -0.39547
C         35.54894        48.89973        -0.38035
C         34.26985        48.16971        -0.66168
C         35.54036        50.41046        -0.44694
C         34.25547        51.19189        -0.90270
C         35.30351        53.31504         0.11543
C         34.15821        52.60481        -0.31457
C         35.27129        54.71515         0.26132
C         34.05833        55.38251         0.04282
C         37.86206        15.80133         1.49914
C         36.70307        16.55673         1.65436
C         37.95499        18.57573         1.16935
C         36.73724        17.95074         1.50835
C         37.98652        20.06885         1.14187
C         36.74799        20.80839         0.76056
C         38.04111        22.94909         0.41638
C         36.78845        22.27537         0.58710
C         38.05320        24.33849         0.10654
C         36.84616        25.07768         0.01301
C         38.16493        27.16149        -0.72093
C         36.86208        26.48056        -0.40311
C         38.23237        28.67268        -0.74746
C         36.95405        29.43404        -0.88010
C         38.16653        31.53737        -0.22482
C         36.95392        30.87373        -0.63273
C         38.16986        32.95567        -0.12064
C         37.08290        33.63801        -0.91592
C         38.19616        35.81960        -0.03337
C         37.09127        35.15855        -0.78537
C         38.21440        37.29541        -0.02665
C         36.99535        38.07387        -0.45876
C         37.76762        40.13505         0.84092
C         36.87190        39.54926        -0.19636
C         37.70361        41.62469         1.06155
C         36.58819        42.36727         0.39186
C         37.67848        44.58902         1.06648
C         36.69319        43.82352         0.27364
C         37.72142        46.04297         0.87622
C         36.63302        46.75813         0.35309
C         37.79724        48.91878         0.72508
C         36.62376        48.19666         0.34058
C         37.83996        50.38685         0.68912
C         36.56090        51.09375         0.41360
C         37.75746        53.29459         0.89043
C         36.49710        52.57365         0.60082
C         37.76019        54.68232         0.89315
C         36.56734        55.49126         0.41281
C         37.59562        57.41762         1.57650
C         36.46679        56.77723         1.19679
C         40.36440        14.18608         1.45150
C         40.33055        15.59263         1.03840
C         39.09146        16.41128         1.19916
C         40.43415        18.49359         0.73329
C         39.13692        17.81355         1.02993
C         40.48545        19.99688         0.70137
C         39.26271        20.79922         0.98402
C         40.53078        22.83939         0.54949
C         39.28677        22.22876         0.58353
C         40.64362        24.21689         0.02418
C         39.36266        24.96260        -0.21256
C         40.67885        27.18468         0.04011
C         39.45325        26.44578        -0.43421
C         40.64109        28.59519         0.16813
C         39.46165        29.38000        -0.25194
C         40.42010        31.49237         0.72207
C         39.34509        30.81454         0.12302
C         40.35854        32.89142         0.90617
C         39.24790        33.64662         0.46272
C         40.27307        35.81693         1.32476
C         39.22170        35.11652         0.60002
C         40.25742        37.23790         1.39932
C         39.19053        37.97354         0.83718
C         40.25089        40.21204         1.66051
C         38.97604        39.34939         1.24957
C         40.21540        41.67974         1.47936
C         38.98515        42.33212         1.33331
C         40.22066        44.52238         1.21766
C         38.93933        43.79304         1.44823
C         40.20823        46.01624         1.08987
C         38.91525        46.75181         1.44738
C         40.20506        48.93778         1.18143
C         38.93086        48.20653         1.09940
C         40.07822        50.31912         1.78976
C         38.93003        51.09496         1.15261
C         40.15348        53.25409         1.43465
C         38.95588        52.55189         1.19355
C         40.19643        54.68080         1.37958
C         38.96027        55.40352         1.20187
C         40.11815        57.54693         1.57559
C         38.90450        56.80355         1.42389
C         40.14861        58.91674         1.84876
C         42.80843        14.19466         1.54434
C         41.54496        13.51646         1.56547
C         42.88912        15.55621         1.41258
C         41.69450        16.32455         1.02619
C         42.85800        18.51786         1.30302
C         41.70340        17.80475         1.06876
C         42.90827        19.96702         1.21614
C         41.75237        20.69292         0.95306
C         42.91388        22.83268         1.19265
C         41.74626        22.12522         0.90418
C         42.79419        24.34422         1.26915
C         41.98756        24.95270         0.10548
C         43.11440        27.19208         0.63234
C         41.85442        26.46658         0.33086
C         43.08687        28.65628         0.83086
C         41.86938        29.42995         0.36222
C         42.86368        31.48228         1.34535
C         41.60047        30.68485         1.25513
C         42.82658        32.94717         1.25582
C         41.47677        33.52014         1.69591
C         42.73617        35.83610         2.09655
C         41.44100        35.05721         1.84882
C         42.69608        37.33787         2.23911
C         41.38399        38.04166         1.96796
C         42.67396        40.25288         2.22389
C         41.48473        39.48945         1.69181
C         42.72009        41.69096         1.74860
C         41.47522        42.37945         1.53204
C         42.68893        44.53771         1.38265
C         41.50183        43.81144         1.39498
C         42.68646        45.98801         1.41537
C         41.49024        46.70087         1.30346
C         42.72018        48.85622         1.63946
C         41.48663        48.15829         1.30617
C         42.66586        50.32516         1.46229
C         41.41127        51.06743         1.82957
C         42.71660        53.27799         1.53706
C         41.42902        52.55245         1.70349
C         42.69571        54.69134         1.53206
C         41.43227        55.37676         1.44044
C         42.72235        57.61619         1.63512
C         41.39306        56.83839         1.34784
C         42.56233        58.92983         2.23353
C         41.34635        59.57375         2.21640
C         45.45161        15.68169         1.61191
C         44.12988        16.30562         1.75678
C         45.37500        18.55661         1.64183
C         44.09610        17.82166         1.73029
C         45.34062        19.98422         1.64634
C         44.13635        20.67688         1.46736
C         45.23059        22.83067         2.01423
C         44.11228        22.11799         1.53209
C         45.02980        24.22681         2.23608
C         44.10641        25.01807         1.58505
C         45.51253        27.27236         1.70406
C         44.32340        26.45241         1.27645
C         45.46472        28.64577         1.51516
C         44.20239        29.32691         1.27410
C         45.38858        31.58710         1.77441
C         44.12547        30.78399         1.57473
C         45.37246        33.07218         1.63030
C         44.09405        33.76587         1.31752
C         45.28531        35.92523         2.05889
C         44.03846        35.30073         1.48492
C         45.16220        37.30297         2.68877
C         43.96902        38.11106         2.20965
C         45.18124        40.28597         2.19597
C         43.97517        39.48922         2.13291
C         45.18347        41.66752         1.93957
C         43.93912        42.36270         1.68451
C         45.19509        44.57876         1.65590
C         43.98756        43.79873         1.18518
C         45.14252        45.97253         1.75287
C         43.92610        46.70665         1.62391
C         45.17008        48.90537         1.70612
C         43.91214        48.15240         1.71657
C         45.19357        50.33652         1.56365
C         43.94683        51.09677         1.40215
C         45.17080        53.24668         1.69518
C         43.94295        52.56850         1.59003
C         45.17475        54.68115         1.77909
C         43.94369        55.40566         1.68013
C         45.17381        57.47071         2.08073
C         43.96528        56.82313         1.82926
C         46.59216        16.42359         1.61050
C         47.81643        18.62770         1.39818
C         46.59195        17.86712         1.63244
C         47.83872        20.02120         1.54529
C         46.59470        20.70317         1.97384
C         47.97858        22.93289         2.24711
C         46.56501        22.19418         2.25765
C         47.99929        24.45130         1.99580
C         46.95226        25.29586         2.34944
C         48.03633        27.30978         1.69036
C         46.81725        26.64372         1.91893
C         48.07462        28.76778         1.42865
C         46.71719        29.45284         1.39570
C         47.87559        31.58043         1.89214
C         46.70538        30.89982         1.65771
C         47.76434        33.03218         2.22936
C         46.51420        33.77113         1.89963
C         47.72828        35.94210         2.16654
C         46.51856        35.23895         2.02902
C         47.74004        37.40186         2.35722
C         46.46101        38.10506         2.67933
C         47.73961        40.32382         2.30772
C         46.43097        39.60558         2.56362
C         47.68561        41.73676         1.87997
C         46.44633        42.40366         1.84657
C         47.66189        44.53660         1.71299
C         46.43807        43.84391         1.74719
C         47.67301        46.00790         1.88540
C         46.37093        46.74356         2.19633
C         47.56304        48.90841         1.29932
C         46.36036        48.19242         1.73576
C         47.63068        50.36943         1.41636
C         46.41091        51.06731         1.56351
C         47.64996        53.17983         1.67636
C         46.42267        52.51069         1.65739
C         47.71084        54.62364         2.12292
C         46.40215        55.37610         1.97400
C         46.37813        56.75516         2.15266
C         50.03472        18.68421         0.40841
C         48.98356        17.96252         0.90734
C         50.04562        20.10864         0.43185
C         48.98120        20.80905         1.14118
C         50.20118        22.94220         0.90890
C         48.99626        22.20399         1.32959
C         50.25047        24.42598         0.93560
C         49.17914        25.13126         1.58481
C         50.50869        27.24275         1.58618
C         49.22091        26.55233         1.67673
C         50.61328        28.73790         1.92786
C         49.29720        29.53543         1.76830
C         50.32820        31.75226         2.35152
C         49.18117        30.90625         2.00834
C         50.31745        33.13672         2.28435
C         49.02188        33.81797         2.42948
C         50.14567        35.91576         1.54212
C         49.07215        35.32595         2.45273
C         50.04779        37.38546         1.28698
C         48.91799        38.16554         1.87666
C         50.21033        40.27276         1.75875
C         48.93755        39.52861         1.94347
C         50.18173        41.74652         1.59572
C         48.92293        42.42504         1.65308
C         50.11789        44.52716         1.21876
C         48.90086        43.84496         1.52959
C         50.01208        45.95174         0.81957
C         48.88517        46.73107         1.40265
C         50.08507        48.91625         0.87314
C         48.81266        48.16751         1.00641
C         50.08000        50.35719         0.97911
C         48.86674        51.05415         1.27122
C         50.09319        53.20235         1.22524
C         48.87873        52.48565         1.41452
C         50.02521        54.65352         1.19777
C         48.90229        55.32979         1.52567
C         52.00408        20.22528        -1.13974
C         51.05912        20.81231        -0.26924
C         52.02870        23.04528        -0.94796
C         51.21615        22.24175         0.02208
C         52.11213        24.53564        -0.73502
C         51.27681        25.12641         0.33308
C         52.56398        27.27588         0.01210
C         51.55243        26.50586         0.75194
C         52.60939        28.68515         0.19631
C         51.76867        29.35978         1.12784
C         52.94403        31.51567         0.73379
C         52.11842        30.67284         1.48962
C         53.17935        32.87179         1.01952
C         51.49646        33.93953         2.03527
C         52.59522        35.85534         0.81955
C         51.46397        35.21155         1.47346
C         52.62058        37.37642         0.96008
C         51.27019        38.11971         0.74788
C         52.61444        40.27100         0.85638
C         51.43362        39.51395         1.33679
C         52.71551        41.71129         1.36154
C         51.37526        42.44179         1.33873
C         52.60489        44.61586         0.87846
C         51.34064        43.85038         1.13698
C         52.52637        46.05063         0.45925
C         51.19844        46.73489         0.36836
C         52.40008        48.96121         0.07441
C         51.20721        48.21640         0.50705
C         52.49503        50.39347         0.41061
C         51.29873        51.07748         0.80128
C         52.55840        53.16944         0.75635
C         51.30911        52.50448         0.93918
C         53.02239        20.95776        -1.75982
C         54.05410        23.16319        -2.40702
C         53.09102        22.36354        -1.70504
C         54.15794        24.58673        -2.18707
C         53.29386        25.25133        -1.24468
C         54.59506        27.36985        -1.38210
C         53.47224        26.59562        -0.83195
C         54.56785        28.84289        -1.28229
C         53.60392        29.45840        -0.52476
C         54.91312        31.61385        -0.70522
C         53.53828        30.97067        -0.53583
C         54.78376        33.12496        -0.78312
C         53.84202        33.75506         0.12107
C         54.55523        35.99587        -0.71062
C         53.65202        35.18921         0.17086
C         54.65553        37.46692        -0.52055
C         53.66254        38.13077         0.14143
C         54.78127        40.35573        -0.31618
C         53.63086        39.59525         0.23252
C         54.96394        41.76738         0.08043
C         53.83556        42.49380         0.71848
C         55.04519        44.52220         0.04285
C         53.82993        43.84260         0.53386
C         54.94741        45.95432        -0.38150
C         53.66512        46.70438        -0.26523
C         54.91322        48.96953        -0.35135
C         53.64500        48.21546        -0.33668
C         54.93297        50.34220        -0.15542
C         53.71297        51.07159         0.22577
C         53.70920        52.48457         0.43186
C         56.01483        23.26753        -3.87583
C         54.98770        22.55504        -3.29198
C         56.15374        24.66597        -3.67508
C         55.17624        25.31688        -2.88788
C         55.87922        27.72982        -3.49681
C         55.33589        26.75329        -2.54575
C         56.27734        28.97977        -3.11510
C         55.56200        29.62287        -2.02148
C         56.38207        31.82650        -2.87121
C         55.65034        30.98338        -1.85768
C         56.69386        33.21844        -2.37184
C         55.72707        33.84217        -1.49564
C         56.88027        36.05352        -1.85419
C         55.64635        35.31950        -1.50126
C         56.98164        37.39750        -1.63078
C         55.79062        38.17117        -1.19022
C         57.26622        40.31974        -0.94233
C         55.93861        39.64099        -0.93829
C         57.43353        41.61690        -0.54308
C         56.34113        42.37377         0.22718
C         57.52775        44.56224        -0.27428
C         56.23797        43.85631        -0.09092
C         57.50527        46.05517        -0.48130
C         56.20183        46.77591        -0.46349
C         57.40235        49.00517        -1.03301
C         56.10668        48.23758        -0.83838
C         57.37470        50.40215        -0.57007
C         56.21861        51.01980        -0.21297
C         58.66322        24.70753        -4.05897
C         57.40284        25.33103        -4.14084
C         58.55990        27.49876        -4.62940
C         57.41676        26.67568        -4.55300
C         58.45706        28.97977        -4.58731
C         57.49355        29.63722        -3.65797
C         58.57764        31.91102        -4.19726
C         57.60967        31.12004        -3.41368
C         58.64925        33.33932        -3.90062
C         57.75811        33.92075        -2.90695
C         59.01306        36.12589        -3.15522
C         58.09719        35.27377        -2.30678
C         59.16102        37.52185        -2.77592
C         58.18600        38.13173        -1.98173
C         59.65968        40.24905        -1.90597
C         58.40194        39.49763        -1.45497
C         59.70208        41.71623        -1.68493
C         58.83769        42.24753        -0.54864
C         59.94479        44.54515        -1.11200
C         58.80260        43.79294        -0.51052
C         60.01105        46.00442        -0.96752
C         58.71991        46.72612        -1.04369
C         60.01662        48.89440        -1.03675
C         58.70902        48.23729        -1.20175
C         59.82688        25.44445        -4.31277
C         59.79468        26.82446        -4.54598
C         59.39958        29.79263        -5.17839
C         59.44024        31.21831        -5.02384
C         59.60471        34.15684        -4.49357
C         59.75432        35.52765        -4.15250
C         60.24895        38.31322        -3.30879
C         60.45591        39.60767        -2.95879
C         60.64079        42.50359        -2.27512
C         60.80181        43.89795        -1.95499
C         61.17489        46.72583        -1.02994
C         61.16484        48.16398        -0.99149
O         31.01708        46.07211         0.61227
O         49.58208        36.39546         0.27760
O         32.89635        37.58928        -2.78564
O         32.41118        23.15007         2.30237
O         48.26052        33.31835         3.59215
O         25.55300        40.39591        -3.45768
O         42.19276        57.44660         0.28751
O         51.62809        26.56297         2.23191
O         43.95616        17.08348         2.99967
O         46.55202        21.22833         3.36682
O         25.36137        30.95801         0.80424
O         39.20211        29.17786        -1.70712
O         28.72567        47.24228         0.24692
O         58.58864        47.34366        -2.36049
O         36.25373        28.98448        -2.09311
O         59.61257        39.53147        -0.63187
O         44.65551        31.10807         2.95991
O         47.45231        29.13031         0.14667
O         54.39500        35.74437        -2.16689
O         32.25336        31.07540         0.55087
O         32.69083        28.76184        -2.13221
O         38.99076        26.66270        -1.81356
O         24.77083        34.60201         1.23142
O         26.13174        45.97207        -0.90761
O         52.75509        33.36254         2.26426
O         52.70961        48.69349        -1.35733
O         36.04564        51.64321         1.67881
O         41.81080        37.71746         3.34659
O         44.21127        26.67389        -0.18518
O         52.85235        45.71144         1.84767
O         36.69545        44.23101        -1.12256
O         58.23365        30.20325        -2.47669
O         55.95231        26.85141        -1.19850
O         47.34271        37.71194         3.77185
O         40.98160        48.78029        -0.02967
O         51.49903        22.44155         1.44246
O         34.38452        51.39964        -2.27958
O         24.30455        38.26844        -2.43364
O         40.15964        45.19817        -0.11126
O         39.30594        39.62859         2.61857
O         33.68268        48.45989        -1.96634
O         35.22858        18.91386         3.23173
O         54.05075        46.09840        -1.53545
O         26.52102        38.33014         0.44416
O         33.89556        27.40567         1.21956
O         36.82535        40.22031        -1.49135
O         23.17165        32.71365        -1.34951
O         42.00352        35.28152         3.20779
O         56.50393        48.69701        -2.15414
O         27.81820        41.64788        -3.91447
O         33.80915        33.57613         0.75136
O         43.20465        50.72453         0.15823
O         34.80143        37.61897         0.50940
O         43.48839        33.42433         0.01054
O         26.89082        25.42950        -1.91356
O         29.53823        50.72453         0.43871
O         40.43907        19.22797        -0.54653
O         56.17053        27.28181        -4.79256
O         41.04894        15.84842        -0.20471
O         23.66086        43.76895        -4.04576
O         27.89533        44.40638        -3.60858
O         30.19156        39.68162        -3.18396
O         41.49263        51.85354         3.05735
O         50.25237        46.19046        -0.60858
O         27.68561        40.54532        -0.52773
O         36.14209        49.64730        -1.50154
O         45.91681        24.81254         3.13418
O         38.67824        20.60582         2.32812
O         51.18386        39.72875         2.75607
O         58.46910        44.24862         0.84552
O         47.18358        40.20860         3.66334
O         37.96227        44.21545         2.45264
O         29.49158        30.07839        -2.38261
O         27.93901        33.22312         0.76790
O         47.92092        48.41536        -0.12114
O         48.73414        46.46543         2.83002
O         24.19473        42.33673        -0.76023
O         51.24774        23.95374        -1.79786
O         51.55037        31.17089         2.66776
O         37.11670        40.67834         2.03001
O         54.46690        41.46295        -1.26399
O         57.00970        46.68310         0.76171
O         30.72506        23.30455        -0.83118
O         36.70732        35.73191        -2.09596
O         27.18369        31.60046        -2.42363
O         31.00738        27.27022         1.19960
O         38.04650        37.83164        -1.42271
O         40.06775        24.27475        -1.32057
O         35.97999        20.09322        -0.26463
O         55.47375        39.14415        -2.24894
O         43.98166        35.88328         0.13726
H         43.77860        35.14643        -0.49116
O         50.92758        28.79271         3.33300
H         51.60783        28.10190         3.50174
O         42.19353        30.00867        -0.93098
H         42.09260        29.32105        -1.62343
O         55.47435        31.97909        -4.00687
H         54.67654        32.45800        -3.69456
O         59.51435        41.83703         0.66150
H         59.17730        42.39745         1.39410
O         32.03680        52.50641        -2.59462
H         32.95955        52.11972        -2.72181
O         48.53689        22.77677         3.56404
H         48.12606        21.96925         3.95961
O         44.84949        37.01194         4.08734
H         45.70708        37.03670         4.57585
O         53.10512        41.59406         2.76101
H         52.48649        40.94248         3.17978
O         46.27041        46.81274         3.65145
H         47.18953        46.88269         3.99884
O         39.67612        50.07379         3.16039
H         39.96381        50.86010         3.68283
O         41.29027        32.93943         3.02772
H         41.62724        33.59865         3.68380
O         52.72530        31.37177        -1.67308
H         51.86812        30.89969        -1.62525
O         38.88617        46.70725         2.91433
H         38.08868        47.18458         3.22679
O         52.95325        37.59591         2.35854
H         53.71592        37.02899         2.59693
O         49.46185        35.70923         3.79252
H         48.89029        35.21057         4.41753
O         55.66541        31.30777         0.50109
H         56.61139        31.50237         0.33409
O         36.90063        55.89155        -0.96148
H         37.73306        56.40955        -0.92812
O         51.06809        38.32631        -0.65949
H         50.64144        37.51444        -1.01743
O         58.84847        34.97725        -1.07188
H         59.71053        34.59244        -1.33829
O         44.17949        43.70318        -0.28121
H         43.29819        43.57647        -0.69374
O         47.95872        54.57415         3.57546
H         48.81464        54.11456         3.71047
O         41.94888        24.63118         2.43964
H         42.37124        24.23587         3.23226
O         37.42219        33.31365        -2.29906
H         37.14555        34.08133        -2.85317
O         41.25656        30.17315         2.56512
H         41.19516        30.95956         3.16036
O         56.68097        42.25887         1.63406
H         57.32210        42.97922         1.84102
O         32.52943        42.80182        -3.17750
H         32.56853        41.95316        -3.66878
O         42.40086        40.35134         3.66170
H         42.23845        39.42878         3.98726
O         42.68407        24.70746        -1.12158
H         42.02150        24.76639        -1.84682
O         23.88463        46.99949        -1.10549
H         24.64497        46.84399        -0.48731
H         23.06209        23.40609        -0.32430
H         20.95868        24.65935        -0.69956
H         20.97265        27.11432        -0.89063
H         21.01411        28.95927        -0.47084
H         20.98949        31.37074        -0.16947
H         21.22910        33.49613         0.83416
H         21.29487        35.86434         0.85190
H         21.10558        37.77399        -0.22708
H         21.06902        40.10616        -0.95790
H         21.01236        42.09630        -1.43862
H         20.95901        44.35491        -2.29617
H         21.53081        46.04893        -4.38555
H         23.90450        49.65571        -4.32640
H         21.90395        48.41884        -5.04361
H         24.61211        22.75824         0.87150
H         25.09937        50.77117        -3.17591
H         26.69148        21.58854         1.37867
H         27.01464        52.01392        -2.30266
H         30.42090        19.31323         1.84581
H         28.34552        20.56454         1.64381
H         30.39361        54.29541        -1.15901
H         28.32294        53.08137        -1.17175
H         32.08891        18.46006         2.29220
H         31.97248        55.23837        -0.45352
H         34.17211        17.15720         2.53983
H         34.00818        56.47743         0.12184
H         37.79900        14.71220         1.61981
H         35.76356        16.04785         1.90873
H         37.52880        58.40801         2.04908
H         35.48850        57.25791         1.34024
H         39.42440        13.65989         1.66638
H         39.20900        59.48114         1.91766
H         43.70615        13.61283         1.79661
H         41.53974        12.44717         1.81931
H         43.41132        59.38840         2.75987
H         41.27765        60.60003         2.60449
H         45.51466        14.59259         1.47584
H         45.19883        58.56263         2.19847
H         47.55121        15.89383         1.53724
H         47.30672        57.30578         2.35466
H         50.88983        18.14847        -0.02426
H         49.01727        16.86753         0.85290
H         50.89968        55.21515         0.83994
H         48.89606        56.42711         1.45709
H         51.96921        19.14328        -1.32775
H         52.61579        54.25975         0.87609
H         53.76055        20.39977        -2.35210
H         54.63564        53.05907         0.30039
H         56.74410        22.74268        -4.50859
H         54.91393        21.47847        -3.49603
H         58.32177        50.95581        -0.49442
H         56.27261        52.07114         0.10070
H         58.74147        23.65354        -3.75769
H         60.06057        49.98767        -0.93247
H         60.80051        24.93992        -4.24324
H         60.73575        27.38793        -4.61381
H         60.16415        29.33690        -5.82490
H         60.21247        31.75872        -5.59026
H         60.26460        33.74856        -5.27114
H         60.48780        36.11025        -4.72713
H         60.90923        37.86266        -4.06216
H         61.23763        40.18569        -3.47112
H         61.32499        42.08354        -3.02552
H         61.61129        44.45454        -2.44671
H         62.14423        46.20793        -1.03572
H         62.12954        48.68282        -0.89874
