         349
 CSIRO Nanostructure Databank - Neutral Graphene Oxide Data Set
C          1.23019         3.45310        -0.76945
C          0.04762         4.14136        -0.74470
C          1.12860         6.24405        -0.08968
C          0.00202         5.54500        -0.45021
C          1.12578         7.68079         0.15494
C         -0.07847         8.41315         0.26034
C          1.13766        10.52320         0.48129
C         -0.06945         9.78327         0.46449
C          1.10985        11.97281         0.60723
C         -0.02116        12.72006         0.87773
C          1.07675        14.91001         0.51050
C         -0.04987        14.14309         0.75585
C          1.02621        16.33528         0.26280
C         -0.13996        17.10103         0.27941
C          1.02182        19.28437         0.10264
C         -0.14108        18.51283         0.18316
C          1.02400        20.72438         0.18294
C         -0.11872        21.48302        -0.03741
C          1.08345        23.63607         0.07931
C         -0.10240        22.89085        -0.04348
C          1.11375        25.07903        -0.06589
C         -0.08265        25.81901        -0.40325
C          1.08178        27.98886        -0.34308
C         -0.09483        27.16412        -0.61405
C          1.19959        29.35554        -0.88804
C          3.67802         3.48059        -0.64088
C          2.47346         4.11137        -0.45990
C          3.65607         6.29086         0.03323
C          2.40011         5.47321         0.19445
C          3.60945         7.65533         0.22863
C          2.35667         8.38572         0.27825
C          3.63801        10.52610         0.26985
C          2.36884         9.81140         0.34908
C          3.60974        11.98520         0.00262
C          2.32871        12.72332         0.22376
C          3.56683        14.89808        -0.14373
C          2.42023        14.18705         0.62628
C          3.55286        16.34987         0.29423
C          2.27973        17.05087        -0.07293
C          3.59730        19.29013        -0.00143
C          2.29048        18.55752        -0.12027
C          3.56207        20.76336         0.25364
C          2.26542        21.45121         0.66882
C          3.52495        23.62650         0.35079
C          2.31504        22.93782         0.32862
C          3.58220        25.04505         0.11493
C          2.34491        25.75345        -0.01813
C          3.65536        27.86825        -0.44708
C          2.38826        27.22409        -0.07278
C          3.66896        29.26995        -0.81907
C          2.40074        29.96593        -1.00446
C          6.12146         3.56025        -0.88369
C          4.94723         4.16816        -0.51523
C          6.10239         6.28862        -0.08550
C          4.91932         5.59364        -0.14928
C          6.10981         7.75221         0.03915
C          4.87069         8.38671         0.62447
C          6.10955        10.57589         0.55510
C          4.84748         9.87297         0.38734
C          6.01894        12.07369         0.77213
C          4.95820        12.69692        -0.15512
C          6.06501        14.93162         0.30773
C          4.89653        14.20249         0.06322
C          6.06601        16.32837         0.53493
C          4.81815        17.09970         0.51756
C          6.04109        19.25140         0.43127
C          4.85442        18.56632         0.32963
C          6.10170        20.70894         0.43199
C          4.82735        21.43444         0.67605
C          6.07077        23.64861         0.44453
C          4.80209        22.94028         0.65287
C          6.08732        25.00419         0.12794
C          4.82429        25.72892         0.00557
C          6.08651        27.72934        -0.83030
C          4.82486        27.11434        -0.38128
C          6.11869        29.20797        -1.18488
C          4.85501        29.93475        -1.06922
C          8.69349         3.63986        -1.01926
C          7.38200         4.36404        -1.11352
C          8.68192         6.33776        -0.05231
C          7.39340         5.59107        -0.23532
C          8.66748         7.76569         0.29806
C          7.41690         8.49558         0.23066
C          8.55792        10.57609         1.11265
C          7.30980         9.90750         0.66364
C          8.56883        12.07468         1.11356
C          7.36379        12.75099         0.54323
C          8.62639        14.97623         0.69493
C          7.38446        14.23115         0.35197
C          8.59861        16.33541         0.84723
C          7.29995        17.03294         0.87504
C          8.58762        19.18630         0.43408
C          7.29446        18.53416         0.79171
C          8.57374        20.68191         0.21613
C          7.28842        21.39679         0.42278
C          8.61868        23.58339         0.33610
C          7.31583        22.86947         0.59198
C          8.56622        25.00363        -0.06715
C          7.35459        25.67343        -0.11202
C          8.57604        27.66701        -1.13363
C          7.38095        27.17404        -0.28672
C          8.61445        29.18478        -1.14035
C          7.43308        29.88575        -1.14704
C         11.11504         3.51672        -1.06749
C          9.90715         4.32103        -0.94599
C         11.08685         6.53562        -0.50373
C          9.92206         5.74605        -0.59864
C         11.15653         7.84005         0.15438
C          9.93125         8.33227         0.89693
C         11.13493        10.64521         0.95984
C          9.88600         9.85013         1.12944
C         11.13531        12.02325         0.95916
C          9.87826        12.80366         1.08145
C         11.09047        14.93039         0.74741
C          9.88081        14.25124         0.77635
C         11.11435        16.38208         0.88845
C          9.83627        17.09338         1.28842
C         11.02637        19.26241         0.82116
C          9.85796        18.54369         0.81550
C         11.03545        20.69445         0.53183
C          9.86659        21.38100         0.31951
C         11.08071        23.60832         0.22966
C          9.85066        22.82413        -0.11658
C         11.07698        24.96838        -0.04563
C          9.83381        25.67006        -0.30842
C         11.07845        27.72335        -0.78490
C          9.85661        27.02867        -0.65231
C         11.09636        29.14352        -1.08475
C          9.89316        29.83787        -1.18085
C         13.64378         3.51861        -1.42947
C         12.32871         4.01042        -1.54363
C         13.59633         6.38829        -0.58963
C         12.29193         6.06204        -1.07611
C         13.63522         7.84168         0.02566
C         12.33918         8.53057         0.23776
C         13.64240        10.67066         0.48468
C         12.44153         9.86655         0.95382
C         13.61451        12.07300         0.55727
C         12.36142        12.78608         0.76159
C         13.55959        14.93211         0.39849
C         12.32372        14.17764         0.67212
C         13.55360        16.44921         0.51861
C         12.27771        17.09614         0.88143
C         13.56540        19.25613         0.96880
C         12.28067        18.54644         1.31361
C         13.52743        20.72809         1.06124
C         12.35216        21.45216         0.40461
C         13.56093        23.68657         0.69854
C         12.23455        22.92750         0.91301
C         13.57786        24.96240        -0.06608
C         12.32672        25.67112        -0.22097
C         13.52108        27.64061        -1.13053
C         12.29577        27.01290        -0.62136
C         13.56891        29.12202        -1.18388
C         12.37454        29.81397        -1.16187
C         16.06486         3.72531        -1.66427
C         14.81103         4.35738        -1.47175
C         16.02474         6.48104        -1.00184
C         14.81676         5.75322        -1.11780
C         16.03971         7.90582        -0.63143
C         14.86290         8.58253        -0.20006
C         16.02541        10.75313        -0.11192
C         14.83617        10.01029         0.04499
C         16.05560        12.13363         0.17897
C         14.83413        12.81684         0.42175
C         16.04838        14.96978         0.54831
C         14.84869        14.23874         0.49267
C         16.01998        16.41013         0.72620
C         14.83761        17.12364         0.78818
C         16.01677        19.26968         1.18943
C         14.80756        18.57963         0.99379
C         16.11238        20.74828         1.50001
C         14.79985        21.48780         1.26129
C         16.06702        23.41787         0.13038
C         14.85604        22.93424         0.83572
C         16.05337        24.77013        -0.37843
C         14.79193        25.50806        -0.46622
C         16.08941        27.56952        -1.43254
C         14.78140        26.82914        -1.15156
C         16.04785        29.05654        -1.07639
C         14.85788        29.75714        -1.09781
C         18.53338         3.73016        -1.67983
C         17.26489         4.44105        -1.62698
C         18.48011         6.60407        -1.43598
C         17.23770         5.83945        -1.36566
C         18.50030         7.98590        -0.93832
C         17.26215         8.62617        -0.68921
C         18.54139        10.75797        -0.22034
C         17.25538        10.13121        -0.70507
C         18.54065        12.13174         0.14635
C         17.29840        12.85585         0.23486
C         18.53912        14.89455         0.80358
C         17.29932        14.24239         0.50760
C         18.49753        16.30243         1.25031
C         17.33330        17.16611         0.77914
C         18.53050        19.28531         1.47486
C         17.22921        18.47023         1.60718
C         18.49675        20.63484         0.83560
C         17.30610        21.35171         0.78122
C         18.47100        23.17572        -0.45123
C         17.23598        22.64686         0.15590
C         18.48500        24.65391        -0.92374
C         17.24754        25.40691        -0.74624
C         18.59443        27.61215        -1.08493
C         17.26697        26.91325        -0.68176
C         18.47710        29.02785        -0.54951
C         17.28111        29.70194        -0.70221
C         19.72624         4.34932        -1.51407
C         20.97736         6.50736        -0.94592
C         19.81919         5.81789        -1.49908
C         20.94058         7.84968        -0.67504
C         19.73927         8.63284        -0.70971
C         20.95748        10.70956         0.02011
C         19.74755        10.03531        -0.29995
C         20.96721        12.04237         0.37260
C         19.76703        12.79613         0.43906
C         20.98771        14.90625         1.06672
C         19.75303        14.19501         0.79553
C         21.03274        16.22707         1.36889
C         19.79937        17.00785         1.56511
C         21.00104        19.15906         0.84462
C         19.83159        18.51834         1.47515
C         20.96187        20.44455         0.43079
C         19.74204        21.23196         0.40523
C         20.97283        23.28308        -0.28171
C         19.75088        22.53033        -0.11015
C         21.00713        24.59693        -0.60128
C         19.82589        25.38963        -1.10270
C         20.72451        27.40631         0.18645
C         19.76380        26.81120        -0.56449
C         20.66227        28.81591         0.50199
C         19.61103        29.60200         0.12004
O          3.89210        16.62481         1.68488
O          8.09058         5.43758         1.03173
O         13.93327        26.89645        -2.35661
O          9.12198        10.07856         2.37449
O         19.35792        19.21965         2.68001
O          1.63391        27.86927         1.00791
O         19.23164         6.44226        -2.68321
O          2.26832        17.73843        -1.35078
O         13.89519        21.26745         2.39225
O         12.21858         5.28022        -2.21186
O         18.93707        16.49578         2.62811
O         13.48575        15.79675        -0.79937
O          8.19875        23.32109         1.69914
O          6.06770        28.12783        -2.21542
O         18.35439        23.54494        -1.87192
O          7.60148        13.30102        -0.77680
O          3.70090        20.27855        -1.10662
O         13.70693         6.64207         0.84594
O          4.76726        22.15895         1.94076
O          2.73679        12.35326        -1.14423
O         14.38025        23.82178         1.91037
O          7.23305        17.91906         2.11581
O          6.70553         8.36711        -1.12859
O          9.09601        12.61679         2.34971
O          8.54781        19.73015        -0.92070
O          7.29087         4.86387        -2.49457
H          7.26288         4.08960        -3.09499
O         12.70316         9.52974         2.35263
H         11.99226         8.91133         2.64097
O         20.06837        25.47272        -2.53188
H         19.67635        24.66386        -2.93132
O         16.30171        27.48040        -2.85831
H         15.40206        27.41322        -3.26621
O         16.41986        20.86054         2.91248
H         15.59209        20.63945         3.39711
O          5.60386        12.32859         2.12893
H          6.28370        11.97654         2.74180
O         12.64411        21.56266        -1.01892
H         12.63763        20.66244        -1.40882
O         17.18577        10.47142        -2.15262
H         17.95378        10.04031        -2.58670
O         17.64558        17.58447        -0.58259
H         17.40361        16.85768        -1.19464
O         17.00462        18.14115         2.98641
H         17.83242        18.36683         3.47616
O          7.50848        27.73852         1.04887
H          8.16785        27.21116         1.54738
O         12.21144        18.55565         2.77361
H         11.38768        18.06658         3.03181
O          2.20067        21.34181         2.12113
H          3.01716        21.77056         2.48178
O         17.10338        27.23865         0.73102
H         16.41009        26.65959         1.11388
O         10.10361         7.73292         2.22349
H          9.44676         8.17127         2.81386
O          3.25591        14.92433        -1.55170
H          3.02972        14.00227        -1.82811
O          4.99935         8.18395         2.07119
H          4.12445         8.34806         2.48231
O          2.34235         5.19296         1.64555
H          1.56842         4.60850         1.79367
O          9.77989        22.78876        -1.57824
H         10.61971        22.39088        -1.89962
O          2.77084        14.14860         2.02703
H          3.13075        15.02942         2.29008
O          9.80579        17.13387         2.75384
H          8.90438        17.45996         3.00150
O         18.81153        27.71136        -2.49937
H         17.98039        28.00384        -2.93931
O         11.89220        22.93624         2.30499
H         12.71876        22.73444         2.80812
O          5.37573        12.41321        -1.50696
H          4.62667        12.62878        -2.10302
O          8.43799        27.22621        -2.50412
H          8.44656        26.24637        -2.51552
H          1.25534         2.40143        -1.09140
H         -0.88864         3.63393        -1.01578
H         -0.96165         6.05979        -0.57185
H         -1.04402         7.89173         0.20968
H         -1.02911        10.30767         0.56626
H         -0.96837        12.21873         1.12282
H         -1.03605        14.62665         0.81470
H         -1.10777        16.60989         0.45639
H         -1.11007        19.02016         0.29506
H         -1.06551        20.98142        -0.28513
H         -1.05492        23.40390        -0.22956
H         -1.00888        25.26008        -0.59351
H         -0.99119        27.64793        -1.03027
H          0.27674        29.88612        -1.16717
H          3.69098         2.44353        -1.01305
H          2.45021        31.00323        -1.36862
H          6.10293         2.51107        -1.22105
H          4.84716        31.02396        -1.22825
H          8.71107         2.55772        -1.22584
H          7.44869        30.98714        -1.14518
H         11.04611         2.45941        -0.77286
H          9.91509        30.93096        -1.31272
H         13.79419         2.44752        -1.22979
H         12.38462        30.91358        -1.20831
H         16.09032         2.64073        -1.84541
H         14.87876        30.84676        -0.93754
H         18.49083         2.63236        -1.74268
H         17.21808        30.75552        -0.38326
H         20.65199         3.76333        -1.41295
H         21.87933         5.92322        -0.71146
H         21.86315         8.31918        -0.30783
H         21.91605        10.17696        -0.02701
H         21.93211        12.51483         0.59767
H         21.93886        14.36568         0.97198
H         22.00766        16.71978         1.49228
H         21.92772        18.58088         0.72299
H         21.86936        20.87630        -0.01213
H         21.92291        22.78857        -0.03450
H         21.98740        25.08754        -0.69344
H         21.59557        26.83696         0.54415
H         21.49783        29.25534         1.06531
H         19.58526        30.66734         0.39562
