         430
 CSIRO Nanostructure Databank - Neutral Graphene Oxide Data Set
C         27.75031        27.80167         1.74840
C         27.87057        28.99726         1.00843
C         26.71530        29.59607         0.41623
C         27.98618        31.60863        -0.10340
C         26.77133        30.85239        -0.12502
C         28.01373        32.99480        -0.47447
C         26.83592        33.69264        -0.87603
C         28.05258        35.80630        -1.04816
C         26.85560        35.03647        -1.15900
C         28.04235        37.23701        -1.23965
C         26.87225        37.94776        -1.63251
C         28.04616        40.09483        -1.54087
C         26.87754        39.31576        -1.78752
C         28.06597        41.52553        -1.70756
C         26.92688        42.24434        -2.17922
C         28.15369        44.34745        -2.09578
C         26.96448        43.60625        -2.36042
C         28.21694        45.75147        -2.35068
C         30.09165        27.96269         2.30173
C         28.84653        27.33296         2.45667
C         30.32092        29.04773         1.43355
C         29.13460        29.65734         0.90098
C         30.42238        31.68261         0.36496
C         29.17428        30.97703         0.35997
C         30.43649        33.02609        -0.06683
C         29.24484        33.71089        -0.42579
C         30.46236        35.89185        -0.55297
C         29.25845        35.13440        -0.70557
C         30.43717        37.30713        -0.66507
C         29.22750        37.98936        -1.00756
C         30.40981        40.16953        -0.81519
C         29.22790        39.41585        -1.13442
C         30.39538        41.57235        -0.89595
C         29.24978        42.25513        -1.38793
C         30.50904        44.42046        -1.38197
C         29.29565        43.67917        -1.59870
C         30.56257        45.81798        -1.66610
C         29.37605        46.45680        -2.15025
C         33.06354        24.67399         2.01274
C         32.08173        25.44728         2.58947
C         33.05652        27.54224         1.68533
C         32.10344        26.85503         2.44550
C         32.94845        28.93957         1.26392
C         31.63270        29.65435         1.19566
C         32.94811        31.69015         0.78146
C         31.62107        30.97989         0.76193
C         32.91580        33.11431         0.34670
C         31.74100        33.70875        -0.35015
C         32.85748        35.90298         0.00902
C         31.69172        35.20923        -0.22461
C         32.89519        37.34448        -0.28004
C         31.63280        38.07442        -0.46979
C         32.85046        40.23239        -0.23832
C         31.62368        39.46528        -0.46870
C         32.82935        41.60618        -0.26120
C         31.53137        42.37220        -0.30346
C         32.84653        44.48197        -0.69047
C         31.66263        43.76824        -0.86924
C         32.93442        45.87167        -0.97456
C         31.78189        46.54250        -1.45521
C         33.06692        48.59410        -1.75588
C         31.87106        47.95799        -1.73312
C         35.37371        23.10928         1.00870
C         35.34709        24.52232         1.12326
C         34.20929        25.29950         1.44708
C         35.34610        27.40794         0.81212
C         34.22020        26.75870         1.30582
C         35.34882        28.82968         0.54473
C         34.08779        29.53009         0.69643
C         35.28024        31.73571        -0.28084
C         33.97952        30.86339        -0.01699
C         35.35591        33.06347         0.44643
C         34.10627        33.79802         0.38813
C         35.28187        35.92692         0.57813
C         34.11552        35.24016         0.29757
C         35.19189        37.40338         0.86576
C         34.14774        38.08843         0.01507
C         35.29001        40.23566         0.30395
C         34.10545        39.56143         0.04446
C         35.32964        41.67674         0.30037
C         34.12912        42.36098        -0.31007
C         35.19361        44.60431         0.39893
C         33.97355        43.82510         0.00865
C         35.32412        45.95532        -0.21115
C         34.21649        46.54486        -0.83459
C         35.61874        48.69384        -1.19288
C         34.31333        47.87878        -1.45836
C         35.62418        50.15346        -1.20904
C         37.79260        23.07982         0.47355
C         36.53371        22.41812         0.71081
C         37.83996        24.47513         0.60176
C         36.66131        25.24738         1.13963
C         37.81602        27.42861         0.69717
C         36.56040        26.59830         0.42820
C         37.79988        28.72647        -0.11081
C         36.51609        29.49092         0.13314
C         37.83655        31.65018         0.29921
C         36.62151        30.93482        -0.32527
C         37.82364        33.06997         0.57355
C         36.54985        33.76617         0.60313
C         37.70111        35.91160         1.02516
C         36.53317        35.21865         0.77732
C         37.75593        37.40929         1.19771
C         36.49691        38.13508         0.80106
C         37.76847        40.23224         0.63337
C         36.51303        39.49077         0.58714
C         37.75331        41.65458         0.71343
C         36.48976        42.37319         0.58231
C         37.73236        44.60113         0.89882
C         36.40519        43.84287         0.99815
C         37.77006        45.98717         0.40385
C         36.59819        46.63725        -0.12055
C         37.80926        48.78077        -0.05833
C         36.67549        48.01286        -0.44450
C         37.79312        50.19667        -0.10495
C         36.65428        50.85794        -0.63215
C         40.16527        20.28487        -0.42927
C         39.01007        20.95095        -0.08221
C         40.20177        23.08809        -0.12879
C         38.98988        22.36535         0.08238
C         40.22983        24.50919         0.00208
C         39.03453        25.20539         0.33929
C         40.24194        27.33692         0.22922
C         39.05743        26.62702         0.40108
C         40.22329        28.78833         0.35525
C         39.06214        29.50434         0.23856
C         40.28818        31.63272         0.66692
C         39.03512        30.94497         0.42010
C         40.28822        33.08242         0.84005
C         39.01143        33.75796         0.85004
C         40.23429        35.96173         0.99494
C         38.97643        35.18575         1.35605
C         40.22969        37.30283         0.68760
C         38.92518        38.01238         0.40395
C         40.21468        40.20126         0.59546
C         38.98398        39.51802         0.61313
C         40.22370        41.63066         0.62112
C         38.99369        42.33539         0.76093
C         40.29703        44.48686         0.55520
C         39.04664        43.80193         0.90144
C         40.31039        45.97957         0.79011
C         39.00566        46.67669         0.42028
C         40.25069        48.82209         0.20657
C         39.01733        48.07451         0.26209
C         40.26030        50.20353         0.22579
C         38.96170        50.92039         0.54347
C         40.20500        53.05607         0.20546
C         39.02982        52.40171         0.28894
C         42.59020        20.31319        -0.97530
C         41.38748        20.98822        -0.62891
C         42.63092        23.12201        -0.66740
C         41.40723        22.40119        -0.47699
C         42.65056        24.54429        -0.51558
C         41.44599        25.23558        -0.18404
C         42.68917        27.38265        -0.15520
C         41.46175        26.64675        -0.02397
C         42.71796        28.77278         0.11348
C         41.51557        29.42857         0.75487
C         42.76092        31.58877         0.72804
C         41.49616        30.92744         0.64883
C         42.77996        33.00984         1.27055
C         41.47996        33.76142         1.07069
C         42.73469        35.89294         0.69791
C         41.52728        35.25650         1.34229
C         42.70300        37.30387         0.18129
C         41.44986        38.05926         0.52372
C         42.70054        40.20365         0.47396
C         41.46046        39.46356         0.50726
C         42.69999        41.61940         0.41345
C         41.46328        42.33592         0.44268
C         42.71277        44.45555        -0.15391
C         41.45346        43.77106         0.33051
C         42.72120        45.95167         0.05190
C         41.53202        46.63012         0.18450
C         42.78782        48.82782        -0.18782
C         41.47385        48.06137        -0.09033
C         42.74930        50.27175         0.07802
C         41.50131        50.94213         0.15453
C         42.69651        53.06086         0.30657
C         41.48089        52.36006         0.23137
C         43.76796        21.00893        -1.14931
C         45.06212        23.16079        -1.14793
C         43.82589        22.42233        -0.99596
C         45.07122        24.57962        -0.98928
C         43.86335        25.27600        -0.68714
C         45.10564        27.42750        -0.66099
C         43.88500        26.69243        -0.50370
C         45.12023        28.83849        -0.38656
C         43.92586        29.49709         0.02311
C         45.24775        31.54765         0.56538
C         43.93819        30.89021         0.44568
C         45.26182        33.08821         0.75527
C         43.99470        33.79033         0.83270
C         45.19376        35.92342         0.45200
C         43.94759        35.18965         0.62809
C         45.18756        37.35133         0.52183
C         43.96531        38.07009         0.49136
C         45.18847        40.19750         0.66031
C         43.95108        39.47880         0.54597
C         45.19659        41.65559         0.61060
C         43.96222        42.35573         0.40941
C         45.20192        44.48850         0.31280
C         43.98412        43.75637         0.26412
C         45.21845        45.92474         0.18613
C         43.98918        46.65982         0.00877
C         45.23137        48.79701         0.21118
C         44.01963        48.06575         0.02775
C         45.22211        50.22779         0.26645
C         43.96454        50.97556         0.23121
C         43.91143        52.38341         0.34774
C         47.47717        23.21915        -1.51270
C         46.28277        22.51298        -1.44371
C         47.51934        24.61329        -1.33734
C         46.29056        25.32133        -1.13747
C         47.50210        27.51451        -1.46977
C         46.28316        26.73767        -1.03936
C         47.55524        28.90395        -0.87497
C         46.37157        29.56136        -0.44616
C         47.62981        31.66696        -0.20850
C         46.43405        30.92186        -0.03953
C         47.64390        33.11790        -0.02348
C         46.46665        33.80862         0.32940
C         47.65714        35.96007         0.27581
C         46.42459        35.23326         0.33375
C         47.67132        37.36244         0.49316
C         46.42086        38.07108         0.60456
C         47.70176        40.22516         0.59248
C         46.39626        39.48024         0.70475
C         47.64605        41.64293         1.17775
C         46.40143        42.37724         0.71530
C         47.66175        44.52456         0.65334
C         46.43109        43.79266         0.57320
C         47.67553        45.91634         0.50635
C         46.44155        46.63383         0.30876
C         47.67923        48.78889         0.43519
C         46.45528        48.07147         0.31067
C         47.64615        50.19393         0.48185
C         46.44838        50.89516         0.40523
C         50.01559        24.64732        -1.20581
C         48.78562        25.33346        -1.29038
C         50.01686        27.44224        -1.30883
C         48.79862        26.75023        -1.29767
C         50.02874        28.94941        -1.44117
C         48.76441        29.60476        -0.91731
C         50.04279        31.72624        -0.92828
C         48.79242        30.98734        -0.64148
C         50.05383        33.23510        -0.74111
C         48.83008        33.86965        -0.24207
C         50.12429        35.95828         0.06225
C         48.87240        35.25612         0.03651
C         50.12066        37.32840         0.45153
C         48.92045        38.02930         0.61998
C         50.16422        40.23207         0.80704
C         48.91332        39.45518         1.12900
C         50.14177        41.64466         0.71276
C         48.93636        42.35875         0.84814
C         50.19999        44.51757         0.63446
C         48.93932        43.83358         1.09762
C         50.18058        45.95098         0.55755
C         48.93300        46.64973         0.54673
C         50.16879        48.75714         0.45477
C         48.93441        48.06235         0.48889
C         51.21949        25.33647        -1.19816
C         52.52141        27.47099        -1.36204
C         51.24753        26.74169        -1.28128
C         52.53886        28.85472        -1.14694
C         51.26322        29.53180        -0.71703
C         52.52139        31.73486        -0.89154
C         51.32309        31.02929        -0.87429
C         52.54446        33.17513        -0.72409
C         51.34883        33.89632        -0.53349
C         52.61207        35.96314        -0.07822
C         51.35759        35.26975        -0.16225
C         52.64935        37.33415         0.28213
C         51.41272        37.98540         0.71294
C         52.66621        40.22652         0.51973
C         51.42888        39.52712         0.87110
C         52.59883        41.64757         0.35901
C         51.40667        42.35210         0.51258
C         52.63559        44.52659         0.32103
C         51.38470        43.81022         0.45748
C         52.65770        45.94472         0.41123
C         51.40494        46.66772         0.47207
C         51.37029        48.08098         0.43793
C         54.92980        27.49876        -1.72839
C         53.73866        26.80513        -1.67308
C         54.96566        28.89840        -1.49705
C         53.75135        29.59232        -1.22116
C         55.00171        31.71028        -1.03601
C         53.77562        31.01553        -1.02386
C         55.02424        33.14233        -0.78550
C         53.80674        33.85553        -0.61396
C         55.07548        35.94910        -0.21007
C         53.83132        35.25683        -0.32092
C         55.09105        37.36311         0.05694
C         53.87131        38.06342         0.27611
C         55.12200        40.22845         0.24879
C         53.86740        39.50884         0.36269
C         55.12888        41.63220         0.18069
C         53.83752        42.35047        -0.13740
C         55.08339        44.50735         0.20260
C         53.85659        43.81936         0.18566
C         55.09244        45.91847         0.32718
C         53.90544        46.61858         0.40811
C         56.18793        29.62916        -1.53106
C         56.20470        30.98189        -1.29084
C         56.24411        33.85542        -0.67650
C         56.27126        35.20825        -0.40241
C         56.31717        38.09820         0.10322
C         56.33318        39.46304         0.21402
C         56.33597        42.39851         0.18702
C         56.32412        43.76817         0.15509
O         38.48277        44.38516         2.13909
O         42.05318        48.42548        -1.39391
O         33.93661        37.58935        -1.33768
O         45.50022        32.14562         1.88573
O         51.51134        38.61160         2.04581
O         34.06598        44.39197         1.34514
O         31.10874        27.52911         3.15759
O         49.90564        32.63381        -2.08692
O         35.07042        32.34768        -1.55769
O         35.33457        48.04063        -2.48616
O         51.05403        29.23568         0.69875
H         51.86183        29.50365         1.18478
O         36.17619        43.73148         2.42706
H         35.19795        43.70013         2.55854
O         36.44321        26.27244        -0.97277
H         36.80115        27.03494        -1.49842
O         53.73135        42.27779        -1.61861
H         54.51545        42.74220        -1.98259
O         31.16538        42.58410         1.11441
H         30.98767        41.70238         1.50591
O         42.94568        32.84656         2.72638
H         43.88138        32.55717         2.86491
O         36.99613        30.86032        -1.73718
H         36.36894        31.52291        -2.17203
O         42.66345        44.29795        -1.62221
H         43.34042        44.89569        -2.00558
O         33.45329        30.52924        -1.30362
H         33.85776        31.20759        -1.91916
O         48.95139        43.96826         2.57219
H         48.31910        43.28532         2.91610
O         47.95467        40.36520        -0.83395
H         47.18134        40.81402        -1.23620
O         32.01318        33.44544        -1.78428
H         32.98596        33.30843        -1.88474
O         47.36450        27.72350        -2.92092
H         48.18906        28.17341        -3.22055
O         47.52219        41.61321         2.63410
H         48.06464        40.84880         2.96317
O         37.98592        37.66449         2.62585
H         38.13192        38.63007         2.73499
O         34.46522        42.40788        -1.75402
H         34.52268        41.48127        -2.07413
O         38.61184        37.79169        -0.99652
H         39.38975        38.05823        -1.52913
O         42.66986        37.18108        -1.30832
H         42.88475        38.06453        -1.67773
O         37.84046        27.86775         2.07164
H         37.73218        27.07508         2.64811
O         38.74596        50.78650         1.99530
H         38.78389        49.82985         2.21107
O         33.45150        31.67450         2.15383
H         32.80786        32.14907         2.71991
O         34.71261        37.53139         2.25099
H         35.43512        37.21863         2.83767
O         50.10247        29.24348        -2.86173
H         50.11423        30.21967        -2.97189
O         36.93286        25.45989         2.57172
H         36.99106        24.57614         2.99280
O         48.85007        39.33861         2.58959
H         49.73230        38.98292         2.86422
O         41.70736        35.43110         2.78587
H         40.86847        35.10223         3.19868
O         41.67235        29.14823         2.19957
H         42.34651        29.77038         2.54828
O         39.01589        35.08231         2.83907
H         38.70576        35.95884         3.17521
O         40.47670        46.16888         2.23468
H         39.75377        45.64034         2.65900
O         37.86979        28.41011        -1.53140
H         37.62066        29.25331        -2.00045
H         26.77395        27.30352         1.82783
H         25.76413        29.04467         0.44184
H         25.85702        31.29263        -0.54390
H         25.88074        33.15637        -0.95241
H         25.91597        35.52526        -1.44865
H         25.93984        37.40326        -1.83284
H         25.94818        39.80942        -2.10162
H         25.99966        41.70499        -2.41461
H         26.07804        44.13844        -2.73485
H         27.31942        46.26213        -2.72903
H         28.75961        26.47722         3.13869
H         29.38375        47.53204        -2.37242
H         33.02406        23.58066         2.10780
H         31.25710        24.98755         3.15011
H         33.12327        49.64409        -2.07344
H         30.96539        48.52181        -1.99257
H         34.43692        22.53924         1.09667
H         34.81264        50.69103        -1.71713
H         36.47374        21.32643         0.60568
H         36.62320        51.95615        -0.65331
H         40.15441        19.19211        -0.55218
H         38.08909        20.37111         0.06684
H         40.22220        54.15250         0.10834
H         38.09140        52.97478         0.30091
H         42.57362        19.22063        -1.09894
H         42.68307        54.15878         0.36519
H         44.67532        20.44835        -1.41107
H         44.83506        52.96823         0.44955
H         48.40171        22.66103        -1.71190
H         46.31043        21.42615        -1.59648
H         48.57337        50.76956         0.59490
H         46.48184        51.99116         0.45556
H         50.03551        23.55097        -1.14883
H         50.18689        49.85324         0.40998
H         52.15645        24.76729        -1.13116
H         52.30068        48.66041         0.38187
H         55.86663        26.97068        -1.95759
H         53.73714        25.72568        -1.87627
H         56.05383        46.45120         0.34924
H         53.94297        47.71266         0.48929
H         57.12440        29.09386        -1.74442
H         57.16711        31.50926        -1.31995
H         57.20098        33.33180        -0.80047
H         57.24740        35.70417        -0.32462
H         57.27529        37.56847         0.02150
H         57.30275        39.97823         0.21052
H         57.30491        41.88443         0.25297
H         57.26939        44.32918         0.17066
