         300
 CSIRO Nanostructure Databank - Neutral Graphene Oxide Data Set
C         31.48398        31.29832        -2.46634
C         31.46846        32.53322        -2.59175
C         31.05653        35.75158        -2.20374
C         31.01401        36.98518        -1.99932
C         30.77268        40.16538        -1.99616
C         30.82679        41.39753        -2.16741
C         33.76574        28.71641        -1.21565
C         32.66846        29.08547        -1.65761
C         33.48754        31.34266        -0.96911
C         31.98950        30.38609        -1.43569
C         33.06191        32.82314        -0.81720
C         32.58183        33.47744        -2.22166
C         33.24332        35.83259        -1.19118
C         32.31975        34.99119        -2.07689
C         33.00315        37.28196        -0.89739
C         31.86772        37.93120        -1.32907
C         33.07318        40.18766        -1.15139
C         31.71347        39.41592        -1.08134
C         33.22456        41.56459        -1.83062
C         31.86720        42.35350        -2.07484
C         33.16094        44.30740        -1.85737
C         32.03804        43.69885        -2.13292
C         35.00753        26.99365         1.57002
C         34.09676        27.88176         0.99155
C         34.53102        28.96925         0.00641
C         35.38478        31.50710         0.61683
C         34.10627        30.75598         0.31672
C         35.53287        32.94481         0.15611
C         34.18934        33.64309        -0.14235
C         35.37269        35.93566         0.23916
C         34.19707        35.13495        -0.26810
C         35.36678        37.41608         0.10779
C         34.31917        38.05094        -0.81090
C         35.55104        40.24834        -0.67540
C         34.19965        39.56714        -0.70034
C         35.64098        41.69816        -1.02893
C         34.28364        42.40388        -1.03645
C         35.51327        44.69397        -0.82420
C         34.37619        43.91726        -1.42859
C         35.81329        46.08842        -1.33655
C         37.59661        27.20921         1.30213
C         36.28311        26.90740         1.27697
C         37.69841        28.70251         1.61334
C         36.66018        29.47321         0.85522
C         37.72814        31.58635         1.65105
C         36.51991        30.85717         1.08929
C         37.72974        33.08770         1.54374
C         36.41103        33.80639         1.14355
C         37.94519        35.86056         0.54206
C         36.63417        35.15667         0.47144
C         37.94973        37.36259         0.26472
C         36.68719        38.13691         0.06434
C         37.89884        40.36585         0.44069
C         36.57397        39.64280         0.31376
C         38.01297        41.80939         0.05812
C         36.90404        42.48808        -0.70950
C         38.05802        44.75703        -0.37815
C         36.88541        43.99126        -1.05056
C         38.00721        46.30716        -0.37212
C         36.89914        46.67518        -1.27882
C         39.95044        24.33533         0.81305
C         38.94969        25.02973         0.99978
C         40.12106        27.10240         1.64583
C         38.85891        26.52146         0.85860
C         40.29098        28.60218         1.32628
C         39.03644        29.39123         1.39973
C         40.33414        31.55341         1.59447
C         39.05475        30.80890         1.94703
C         40.30698        33.04806         1.96763
C         39.03700        33.82131         1.53311
C         40.29857        35.95753         1.49789
C         39.07553        35.15989         1.23438
C         40.39011        37.38917         1.03268
C         39.22447        38.12331         0.47151
C         40.44753        40.39486         0.76763
C         39.20944        39.64199         0.19942
C         40.32064        41.83053         1.26246
C         39.06777        42.60210         0.81545
C         39.89585        45.02122         1.35347
C         39.06353        44.09914         0.53962
C         40.22436        46.28853         0.97638
C         39.22904        47.03288         0.11277
C         41.00913        48.63201        -0.13609
C         39.82455        48.29174        -0.34291
C         42.27082        24.58649        -0.24948
C         41.38453        24.51077         0.95487
C         42.71776        27.10018         1.10413
C         41.44806        26.33899         1.37554
C         42.93411        28.60244         1.51694
C         41.52631        29.32386         1.88745
C         42.85214        31.52749         1.76308
C         41.50393        30.84643         1.52545
C         42.86314        33.00803         1.37096
C         41.56787        33.74208         1.46026
C         42.85422        35.91945         1.16055
C         41.60114        35.22558         1.61293
C         42.83644        37.40263         1.02621
C         41.60643        38.14508         1.52602
C         42.85567        40.26280         1.83867
C         41.66890        39.62089         1.15850
C         42.87452        41.74651         1.94594
C         41.61346        42.49369         1.66765
C         42.85882        44.60504         1.84606
C         41.67398        43.81640         2.05131
C         42.74936        46.07374         1.70425
C         41.46421        46.95002         1.49784
C         42.07197        49.35735         2.00789
C         41.78097        48.39338         1.06906
C         43.32041        25.27888        -0.37009
C         45.03682        27.10430         0.06617
C         43.74545        26.47651         0.22444
C         45.14072        28.66852         0.26294
C         43.80580        29.39153         0.50750
C         45.20892        31.59668         0.47193
C         44.06043        30.80988         1.06429
C         45.12833        33.13104         0.35080
C         44.25658        33.70149         1.49902
C         45.31285        36.03842         0.80442
C         44.19019        35.29334         1.54693
C         45.33877        37.39744         0.83580
C         44.08914        38.24094         0.83011
C         45.42057        40.31614         1.44847
C         44.16052        39.52409         1.65549
C         45.41839        41.81141         1.49476
C         44.21291        42.50807         2.15646
C         45.27731        44.68863         1.40640
C         44.10532        43.96754         1.73347
C         45.15087        46.02045         0.89849
C         43.90485        46.76953         1.04797
C         42.34859        50.22866         2.86825
C         47.02979        27.31678        -1.34588
C         46.09409        26.69169        -0.84656
C         47.38877        28.73051        -1.18234
C         46.28732        29.42886        -0.37376
C         47.33409        31.69242        -1.04981
C         46.15476        30.92700        -0.50733
C         47.59226        33.09557        -0.55123
C         46.50897        33.80542         0.25418
C         47.43144        36.07978        -0.59218
C         46.52488        35.30697         0.34395
C         47.32100        37.61990        -0.61725
C         46.64705        38.13992         0.64933
C         47.67860        40.44587         0.22162
C         46.47097        39.66238         0.59455
C         47.89936        41.79001         0.97801
C         46.53997        42.50916         1.16686
C         47.83108        44.73318         0.92988
C         46.62089        43.98517         1.60740
C         47.35341        45.78815         0.21989
C         46.31660        46.54951         0.27596
C         49.55618        29.00930        -2.57741
C         48.19266        29.52630        -2.18391
C         49.44546        31.80770        -2.54563
C         48.59328        30.95749        -1.56061
C         49.50434        33.34069        -2.36078
C         48.70987        33.87969        -1.17296
C         49.86865        36.14117        -1.46926
C         48.57692        35.38651        -1.25560
C         49.83127        37.66946        -1.59866
C         48.64544        38.35586        -0.96606
C         50.22903        40.34832        -0.31525
C         48.89177        39.66711        -0.24302
C         50.33404        41.86187         0.09001
C         48.93054        42.54313         0.10435
C         50.31783        44.60819         0.27621
C         49.17039        44.19074         1.08775
C         50.52543        29.62911        -3.02094
C         51.76581        31.93677        -3.51450
C         50.60164        31.07419        -3.26420
C         51.77137        33.11242        -3.04249
C         50.96548        33.93953        -2.28287
C         52.16899        36.26031        -2.25329
C         51.13224        35.31461        -1.82083
C         52.21362        37.46914        -2.00441
C         51.15670        38.51832        -1.96878
C         52.39281        40.64129        -1.17710
C         51.36111        39.72959        -1.08913
C         52.63382        41.84758        -0.81609
C         51.36281        42.68831        -0.82526
C         51.31252        44.06550        -0.23092
O         39.69583        29.16695         0.12166
O         37.95901        47.02149         0.86478
O         46.58124        40.35227        -0.69852
O         46.13635        31.49563        -1.86049
O         44.49315        42.52433         3.56307
O         49.38401        31.47744        -3.97280
O         40.51337        44.46787         2.46464
O         40.92407        35.69965         2.80620
O         34.86867        37.93389        -2.09542
O         45.14122        39.61715         2.71115
O         48.90955        33.23256         0.08536
O         42.67050        36.52942        -0.14364
O         41.42417        29.26387         3.27987
O         47.37721        35.66650        -2.01576
O         49.86292        39.50712         0.83132
O         37.53062        35.10903        -0.67221
O         37.45572        32.40966         2.82345
O         43.70614        47.86831         0.50100
O         50.77188        35.63623        -0.44205
O         47.59457        29.05161         0.20021
O         41.99578        46.70116         2.79192
O         38.06623        41.93356        -1.40215
O         48.78434        38.25220        -2.42261
O         48.40203        41.55411         2.23794
O         35.95648        28.84934        -0.10372
O         33.47109        35.67539        -2.63249
O         34.97890        36.81810         1.35565
O         42.43902        26.35103         2.38879
O         39.19689        42.10364         2.16608
O         37.45832        37.71669        -1.08275
O         39.34759        44.33245        -0.89654
O         42.08549        33.28443         0.17550
O         35.94886        40.66916        -2.01131
O         45.30685        30.97546         1.77517
O         33.58749        34.45904         0.89317
O         47.09781        34.46737         1.39611
O         40.23877        37.49413        -0.40049
O         41.54126        40.14615        -0.17682
O         44.34518        35.67194         2.88831
O         45.55548        27.73918         1.26185
O         50.99744        39.03137        -3.29017
H         50.03269        39.07079        -3.49348
O         41.97556        23.85459         1.98913
H         42.66613        24.43858         2.38821
O         35.32940        44.79725         0.58433
H         34.47839        45.24573         0.77078
O         46.39391        37.93667        -1.65852
H         46.74235        37.55618        -2.49579
O         43.99744        38.76957        -0.51773
H         43.74892        38.03089        -1.11838
O         42.61414        40.85764         3.12653
H         44.22015        41.65075         3.93068
O         37.09653        44.06029        -2.46280
H         37.89554        43.52520        -2.67092
O         31.25006        39.58488         0.26495
H         30.41255        39.08812         0.37422
O         42.97700        31.47204         3.19192
H         42.59355        30.59913         3.49848
O         50.85119        41.86548         1.41428
H         50.14045        41.41717         1.97371
O         47.51077        37.83833         1.75309
H         47.03886        38.03210         2.59237
O         34.44275        31.13799        -1.95794
H         34.26123        31.72118        -2.73639
O         39.10760        30.65202         3.38380
H         39.30435        31.54331         3.77173
O         44.46536        33.43559        -0.88711
H         44.88254        32.91633        -1.61472
O         31.13542        30.28117        -0.33877
H         30.60098        31.10363        -0.28146
O         41.63251        38.19880         2.96133
H         41.63500        37.27930         3.32612
O         48.42422        42.82310        -1.13413
H         49.15459        42.96893        -1.78933
O         35.67067        34.07160         2.32468
H         35.89971        33.38702         2.99613
O         44.83817        33.28959         2.71447
H         44.86606        34.10231         3.29633
O         39.08176        26.79850        -0.52358
H         38.31068        26.48993        -1.04252
O         49.48397        30.75367        -0.46982
H         49.02877        30.24214         0.24127
O         48.94647        33.95256        -3.52660
H         49.10902        33.35169        -4.29205
O         39.85340        27.05329         3.03845
H         40.44897        27.73299         3.47005
O         33.89612        42.39157         0.35874
H         32.96691        42.69909         0.42858
O         50.86407        42.73880        -2.15214
H         51.48859        43.24836        -2.71091
O         36.24040        32.81493        -1.09419
H         36.83410        33.58879        -1.24875
O         37.28141        28.86062         2.98721
H         37.98436        29.32540         3.51103
O         49.49345        43.85870         2.37074
H         50.34729        43.35876         2.37039
O         47.41450        29.66865        -3.34128
H         47.93246        30.17292        -4.01204
O         40.36519        33.05464         3.41775
H         41.24080        32.67735         3.67999
O         46.91526        43.93461         2.99435
H         47.51261        43.15808         3.15068
O         32.79970        27.85471         1.26027
H         32.58065        27.07740         1.81396
O         35.91405        39.73567         1.61298
H         35.65993        40.66751         1.78434
O         39.33365        39.75204        -1.23695
H         38.72161        39.09323        -1.64851
O         33.61303        33.29987        -3.17823
H         33.90624        34.18851        -3.50005
O         31.91880        32.83665         0.04587
H         32.06089        33.55637         0.71248
O         43.68511        28.57735         2.70992
H         43.01154        28.59731         3.44708
O         43.15116        29.48743        -0.76841
H         42.31845        30.00045        -0.67939
O         33.24431        30.75126         1.41013
H         32.33256        30.53723         1.08632
O         33.67587        41.32061        -3.15896
H         34.45415        40.71131        -3.13118
