         404
 CSIRO Nanostructure Databank - Neutral Graphene Oxide Data Set
C          1.12830         1.87304         0.36139
C          1.12501         3.23917         0.67248
C          2.31181         1.20054         0.08598
C          2.32737         3.97805         0.66844
C          1.33882         5.98678         1.74833
C          1.52972         7.24288         2.29667
C          2.38548         5.38833         1.01483
C          2.69450         7.97736         1.99891
C          1.71228        11.13084         2.60768
C          1.56618        12.42876         2.14083
C          2.74770        10.31827         2.12967
C          2.50868        12.96082         1.23750
C          1.34799        15.16331         1.31299
C          1.40099        16.54354         1.37133
C          2.47047        14.39812         0.91236
C          2.60266        17.22117         1.06285
C          2.75977        18.59671         1.44723
C          3.56076         1.88364         0.12088
C          3.54544         3.30342         0.38137
C          4.76191         1.21285        -0.18026
C          4.73154         4.07123         0.21669
C          3.55434         6.15745         0.70738
C          3.67129         7.54347         1.09216
C          4.69625         5.46811         0.21271
C          4.81514         8.37831         0.64698
C          3.67174        10.73836         1.14908
C          3.55274        12.11408         0.77896
C          4.79368         9.88105         0.66377
C          4.58633        12.75807        -0.03739
C          3.58466        15.06749         0.32318
C          3.67340        16.50982         0.44288
C          4.66556        14.22653        -0.14878
C          4.86944        17.27576         0.18494
C          3.97123        19.22797         1.37712
C          5.08742        18.56609         0.76438
C          6.05247         1.82200         0.06569
C          6.03170         3.38490         0.25416
C          7.33178         1.23908        -0.30680
C          7.27224         4.13932        -0.01301
C          5.88569         6.23067        -0.28041
C          5.88271         7.70846         0.06568
C          7.20718         5.52309        -0.04198
C          7.05853         8.40807        -0.50683
C          5.88604        10.55687         0.15047
C          5.86439        11.97924        -0.26162
C          7.08514         9.88460        -0.37776
C          7.13153        12.71684        -0.44286
C          5.77935        14.67712        -0.85328
C          5.93195        16.79120        -0.61143
C          7.10112        14.09236        -0.77039
C          7.25171        17.21001        -0.50907
C          6.35589        19.17405         0.64266
C          7.45484        18.49956         0.06314
C          8.52769         1.97096        -0.26454
C          8.50739         3.41228        -0.13209
C          9.77986         1.28476        -0.42178
C          9.69578         4.16550        -0.39741
C          8.46529         6.34578         0.01138
C          8.35895         7.65252        -0.80213
C          9.67544         5.54885        -0.40424
C          9.60990         8.50470        -0.56392
C          8.36887        10.60925        -0.31251
C          8.36563        12.02045        -0.34287
C          9.58615         9.86011        -0.31408
C          9.59495        12.76024        -0.49493
C          8.31213        14.86376        -0.91624
C          8.35137        16.37332        -1.09532
C          9.55527        14.17973        -0.78765
C          9.68213        17.08302        -1.23089
C          8.73116        19.12448        -0.10242
C          9.79641        18.48857        -0.72423
C         10.99572         1.96284        -0.58888
C         10.92912         3.42633        -0.78154
C         12.25844         1.33173        -0.61431
C         12.23800         4.17680        -0.79985
C         10.90258         6.30802        -0.72321
C         10.90300         7.80453        -0.71358
C         12.17993         5.60673        -0.40458
C         12.17332         8.53207        -0.44025
C         10.82636        10.60548         0.14012
C         10.81225        12.06253        -0.31211
C         12.12637         9.89798        -0.21895
C         12.02578        12.72642        -0.56599
C         10.80773        14.81980        -1.12489
C         10.95748        16.27996        -1.38722
C         11.92304        13.98421        -1.21456
C         12.33242        17.07983        -1.23385
C         11.04054        19.17852        -0.78158
C         12.27000        18.54599        -0.95144
C         13.49704         2.04516        -0.62883
C         13.50832         3.46773        -0.62506
C         14.75262         1.37153        -0.56380
C         14.71608         4.21805        -0.54390
C         13.45451         6.37502        -0.32569
C         13.42573         7.83927        -0.42326
C         14.71661         5.64475        -0.50872
C         14.66774         8.53313        -0.37860
C         13.37913        10.62297         0.02676
C         13.30945        12.15712        -0.09023
C         14.67648         9.94489        -0.19164
C         14.63058        12.89596        -0.07246
C         13.83118        15.10489        -1.03987
C         13.60171        16.46311        -0.82993
C         14.71896        14.34714        -0.28429
C         14.56313        17.24166         0.06293
C         13.47781        19.27276        -0.80554
C         14.70834        18.64336        -0.49531
C         15.96678         2.07032        -0.55962
C         15.96924         3.52327        -0.58553
C         17.21430         1.38455        -0.44313
C         17.17141         4.24933        -0.63184
C         15.91797         6.37776        -0.56547
C         15.91285         7.81979        -0.50091
C         17.16205         5.67129        -0.62212
C         17.13715         8.53811        -0.59091
C         15.90388        10.64307        -0.28814
C         15.93023        12.11281        -0.12528
C         17.11715         9.95988        -0.51755
C         17.17300        12.88134        -0.46242
C         15.91553        15.03020         0.23305
C         15.90929        16.52232         0.25787
C         17.18429        14.33564        -0.15457
C         17.20296        17.19873        -0.01850
C         15.94228        19.27733        -0.55897
C         17.19462        18.60153        -0.32885
C         18.43832         2.06223        -0.47346
C         18.45816         3.50839        -0.91770
C         19.66094         1.41396        -0.23970
C         19.68939         4.23991        -0.45595
C         18.38216         6.41890        -0.58053
C         18.39892         7.82256        -0.65201
C         19.62044         5.68772        -0.28569
C         19.65891         8.53036        -0.79484
C         18.35440        10.71485        -0.86073
C         18.45393        12.15537        -0.54966
C         19.62553         9.96924        -1.15969
C         19.66217        12.84695        -0.48112
C         18.45904        14.99698         0.30937
C         18.40814        16.48399        -0.00710
C         19.69232        14.27197        -0.19013
C         19.64071        17.16501        -0.17324
C         18.41826        19.27569        -0.45550
C         19.65576        18.59042        -0.32689
C         20.90034         2.11293        -0.22611
C         20.89061         3.57310        -0.30106
C         22.10808         1.43645        -0.05041
C         22.14884         4.29407        -0.29094
C         20.94365         6.47472        -0.27943
C         20.88877         7.89120        -0.67889
C         22.17689         5.70296        -0.44972
C         22.15190         8.58585        -0.85775
C         20.93575        10.75944        -1.35938
C         20.91980        12.17370        -0.77338
C         22.18430         9.98953        -0.97546
C         22.10782        12.87121        -0.72489
C         20.88115        14.97681        -0.20446
C         20.87356        16.43730        -0.12504
C         22.13766        14.27776        -0.38866
C         22.07570        17.13924        -0.08217
C         20.90021        19.26901        -0.34748
C         22.11267        18.57275        -0.18000
C         23.35999         2.12180        -0.05986
C         23.37072         3.55060        -0.24394
C         24.57678         1.43285         0.05706
C         24.61075         4.21569        -0.41154
C         23.37155         6.40938        -0.77339
C         23.36841         7.81595        -0.89603
C         24.60465         5.60628        -0.89194
C         24.62551         8.56249        -1.10432
C         23.41992        10.71688        -0.97370
C         23.39888        12.22892        -1.18571
C         24.62212        10.03016        -0.94078
C         24.63777        12.92629        -0.64262
C         23.34404        14.94694        -0.18187
C         23.31722        16.38314         0.15736
C         24.61583        14.25921        -0.26638
C         24.60890        17.14527         0.23694
C         23.36823        19.25943        -0.18747
C         24.59861        18.60182        -0.04018
C         25.82456         2.11148         0.01141
C         25.83466         3.52890        -0.25537
C         27.04259         1.42655         0.19402
C         27.08523         4.24814        -0.20757
C         25.96634         6.33959        -0.93061
C         25.95493         7.83297        -1.03015
C         27.11343         5.64160        -0.37367
C         27.16122         8.57764        -0.60076
C         25.93079        10.72279        -1.02901
C         25.92486        12.24132        -0.83473
C         27.17599         9.98985        -0.70193
C         27.15338        12.88000        -0.33051
C         25.86765        14.99684        -0.05136
C         25.87705        16.40215         0.08626
C         27.11036        14.29999        -0.03550
C         27.08353        17.13578         0.18807
C         25.83389        19.26438        -0.13949
C         27.07944        18.59456         0.05965
C         28.28912         2.11079         0.20746
C         28.30343         3.53648         0.08235
C         29.51516         1.41327         0.33610
C         29.54925         4.24031         0.13498
C         28.27100         6.42212         0.18286
C         28.32417         7.86769        -0.25631
C         29.57296         5.66260         0.06266
C         29.54568         8.56124        -0.18301
C         28.36940        10.70585        -0.43234
C         28.32421        12.14376        -0.24705
C         29.58609         9.97294        -0.23856
C         29.54368        12.80960         0.24938
C         28.30130        15.02263         0.23519
C         28.29972        16.42735         0.31971
C         29.55236        14.29068         0.50239
C         29.55156        17.15148         0.62381
C         28.28257        19.29692        -0.00911
C         29.55578        18.70210         0.38831
C         30.76001         2.08699         0.31653
C         30.77849         3.52539         0.22126
C         31.98612         1.38604         0.39043
C         32.01989         4.22447         0.23338
C         30.79405         6.33955         0.03288
C         30.80318         7.79284        -0.21060
C         32.03325         5.64882         0.14200
C         32.11159         8.53248        -0.04107
C         30.84402        10.64168         0.03897
C         30.84591        12.12301         0.03935
C         32.02876         9.96858         0.22745
C         32.07962        12.87534         0.37212
C         30.84308        15.03040         0.51833
C         30.84263        16.45016         0.52335
C         32.04924        14.33858         0.59945
C         32.05638        17.16114         0.47040
C         30.84929        19.30015         0.09537
C         32.05650        18.60248         0.25675
C         33.23115         2.06194         0.37201
C         33.25089         3.49729         0.30900
C         34.45763         1.34768         0.41555
C         34.49797         4.18829         0.30229
C         33.28365         6.36795         0.26239
C         33.32238         7.77797         0.32650
C         34.51295         5.64185         0.34812
C         34.53072         8.48938         0.57749
C         33.23701        10.62943         0.78071
C         33.23853        12.12078         0.92271
C         34.53603         9.91602         0.72825
C         34.52170        12.87445         1.06982
C         33.29869        15.02585         0.62592
C         33.29858        16.44769         0.49312
C         34.53188        14.31220         0.71600
C         34.54114        17.12433         0.35594
C         33.30764        19.25386         0.09924
C         34.53748        18.55718         0.15965
C         35.69401         2.01728         0.37383
C         35.69719         3.44490         0.30602
C         36.94483         1.30492         0.36780
C         36.98512         4.13933         0.20156
C         35.71872         6.35605         0.48464
C         35.76059         7.76908         0.63906
C         36.99026         5.63463         0.33215
C         37.00596         8.49013         0.76005
C         35.74785        10.60961         0.84356
C         35.80322        12.08647         1.04569
C         36.98162         9.89826         0.83709
C         37.04736        12.81972         0.71353
C         35.76337        14.97455         0.56373
C         35.76356        16.39794         0.36541
C         37.01571        14.24119         0.55228
C         37.00452        17.08392         0.19193
C         35.76899        19.22141         0.00186
C         36.99747        18.51528         0.01592
C         38.18286         1.95318         0.37546
C         38.24188         3.39025         0.40213
C         39.43613         1.24207         0.35872
C         39.45428         4.06345         0.46373
C         38.23406         6.30643         0.80337
C         38.26718         7.78330         0.75751
C         39.50963         5.51945         0.75041
C         39.50099         8.42070         0.73443
C         38.23892        10.65827         0.99617
C         38.25143        12.11179         0.68412
C         39.55586         9.88930         0.90790
C         39.49051        12.79146         0.48073
C         38.23711        14.93433         0.35423
C         38.23076        16.36752         0.18630
C         39.47839        14.21590         0.32176
C         39.45943        17.06951         0.00521
C         38.22091        19.19336        -0.14966
C         39.44596        18.49578        -0.15743
C         40.63293         1.90907         0.33331
C         40.69075         3.34418         0.38797
C         41.89348         4.06987         0.33578
C         40.77493         6.25140         0.54263
C         40.74575         7.69829         0.53729
C         41.92316         5.47902         0.34573
C         41.90085         8.45621         0.28031
C         40.76420        10.62097         0.49321
C         40.73056        12.06694         0.41544
C         41.89395         9.86074         0.19531
C         41.91909        12.80226         0.23525
C         40.70854        14.92085         0.13661
C         40.70484        16.36915        -0.01698
C         41.90859        14.18525         0.10894
C         41.89029        17.10187        -0.19060
C         40.67519        19.19188        -0.32956
C         41.87142        18.49832        -0.34270
O         37.10438         5.02496        -0.99996
O          5.64519        15.84608        -1.59524
O         13.19738        11.49527         1.21245
O         12.70796         5.87705         0.91648
O          6.13362         2.50953         1.38100
O         11.52880         3.88001        -2.04449
O         10.95874         7.03373        -1.99209
O          2.89011         9.10616         2.79384
O          6.75583         9.24661        -1.69223
O         20.23766         6.16695         0.96444
O         18.71324        10.31180        -2.26023
O         11.76506        16.68603        -2.51999
O         31.72146        12.61898        -1.04653
O         39.00156        10.33066         2.20064
O         23.91379        16.73641         1.47052
O         32.92214        11.29128         2.07494
O         38.81176         5.78932         2.04661
O         35.21978        12.55804         2.31363
O         25.38265         5.73426        -2.12057
O          4.86732        12.13854        -1.34063
O         15.38300        12.55720         1.15176
O         26.06435        11.63287        -2.17902
O         15.90942        15.72349         1.52561
O         25.42400         8.24936        -2.32131
O          8.80492        16.88927        -2.39418
O         29.47604        18.06697         1.72639
O         17.07814        13.90116        -1.54761
O         31.61869         8.16047        -1.38038
O         13.02270        14.41673        -1.94948
O         29.41762        13.33043         1.61857
O         21.09670        10.93626        -2.79233
H         20.19068        11.02568        -3.17154
O          8.29249         7.25582        -2.19044
H          8.08704         8.06917        -2.70661
O         10.72629        10.59885         1.59660
H         11.57106        10.98666         1.93474
O         28.01555         6.52521         1.64320
H         28.06287         5.61642         2.01132
O          5.75992         6.19000        -1.75018
H          6.61099         6.53916        -2.13011
O         18.49562        14.85604         1.75889
H         17.65496        15.24071         2.10902
O          8.64252         6.78225         1.40139
H          8.77161         5.98483         1.95746
O         13.93380        17.38936         1.36325
H         14.34502        16.71268         1.95251
O         18.55966         3.47214        -2.38938
H         17.80852         2.93463        -2.72030
O         23.46642        12.44822        -2.62523
H         24.31412        12.04659        -2.93473
H          0.17577         1.32503         0.34159
H          0.16826         3.73668         0.88159
H          2.29626         0.12494        -0.14024
H          0.42976         5.41971         1.98791
H          0.79386         7.67347         2.98805
H          1.03530        10.73233         3.37407
H          0.75033        13.04278         2.54062
H          0.42359        14.66331         1.62983
H          0.54043        17.11313         1.75010
H          1.89523        19.10934         1.89439
H          4.72435         0.20355        -0.61596
H          4.09728        20.24960         1.76280
H          7.35607         0.18879        -0.63324
H          6.49896        20.19523         1.02456
H          9.77843         0.18516        -0.38008
H          8.87127        20.14803         0.27647
H         12.29668         0.23436        -0.53817
H         11.03928        20.24523        -0.50709
H         14.76786         0.27199        -0.52699
H         13.43554        20.37209        -0.86530
H         17.20427         0.29759        -0.26857
H         15.98400        20.31986        -0.91114
H         19.66293         0.33183        -0.03634
H         18.42137        20.35897        -0.64694
H         22.10398         0.34145         0.05745
H         20.91532        20.36337        -0.45848
H         24.56701         0.34235         0.20176
H         23.36512        20.34852        -0.34621
H         27.02952         0.33617         0.34006
H         25.84485        20.34982        -0.32064
H         29.50055         0.31654         0.42356
H         28.27252        20.35145        -0.32369
H         31.97365         0.28771         0.45428
H         30.87431        20.32997        -0.29153
H         34.43617         0.24883         0.46192
H         33.32241        20.34089        -0.07026
H         36.91600         0.20491         0.36212
H         35.78118        20.31124        -0.14839
H         39.41721         0.14246         0.33868
H         38.22083        20.28593        -0.27822
H         41.57666         1.34577         0.28707
H         42.84261         3.52276         0.23999
H         42.89812         5.96998         0.21553
H         42.85150         7.94109         0.08609
H         42.82803        10.35591        -0.10401
H         42.88606        12.28263         0.20742
H         42.86956        14.70008        -0.01992
H         42.86237        16.59190        -0.20939
H         40.66023        20.28427        -0.45144
H         42.81966        19.03770        -0.47474
