         317
 CSIRO Nanostructure Databank - Neutral Graphene Oxide Data Set
C         30.40412        31.57150         0.67862
C         30.32056        32.79355         0.52064
C         30.29965        36.10655        -0.33364
C         30.30335        37.33855        -0.31841
C         30.32661        40.56899         0.18907
C         30.26046        41.77477         0.44518
C         32.95153        28.81775         0.21234
C         31.87032        29.34754         0.49547
C         32.78996        31.55568         0.05875
C         31.40549        30.69484         0.01934
C         32.67933        33.02678         0.45839
C         31.35582        33.71118        -0.09160
C         32.62520        36.00596         0.31244
C         31.33202        35.19668         0.20477
C         32.69495        37.47822         0.02286
C         31.43848        38.30898        -0.38615
C         32.70099        40.32118         0.40988
C         31.36284        39.52993         0.50945
C         32.66477        41.79087         0.62762
C         31.36052        42.42988         1.24597
C         32.74395        44.44411         1.38327
C         31.64687        43.90038         1.25489
C         35.52968        27.39483        -0.53349
C         35.40688        28.87470        -0.74447
C         33.99157        29.46775        -0.66598
C         35.30655        31.68481        -0.26130
C         33.96690        30.95535        -0.22868
C         35.21427        33.05361         0.45075
C         33.94088        33.80528        -0.01264
C         35.20913        35.99495         0.40376
C         33.92288        35.25404         0.45597
C         35.18439        37.41379        -0.15238
C         33.87835        38.17043         0.07030
C         35.15883        40.40112         0.14224
C         33.88755        39.65109         0.17587
C         35.20919        41.73735         0.43834
C         33.97940        42.51861         0.71270
C         35.36137        44.60057         1.32710
C         34.08625        43.81178         1.59614
C         35.51564        46.03352         1.04736
C         37.72532        27.15424         0.51387
C         36.46405        26.72781        -0.09798
C         37.69227        28.68924         0.58248
C         36.46445        29.49490         0.19512
C         37.73871        31.57589         0.69696
C         36.45051        30.85442         0.30094
C         37.76070        33.11199         0.47757
C         36.48603        33.86609         0.29640
C         37.75261        36.02033         0.45740
C         36.47841        35.22574         0.22517
C         37.73610        37.47857        -0.07438
C         36.42796        38.24947         0.26831
C         37.76384        40.44073        -0.36079
C         36.37634        39.65397        -0.41973
C         37.70383        41.72932         0.49483
C         36.45536        42.53578         0.11407
C         37.74387        44.68525         0.16975
C         36.56822        43.92093         0.72258
C         37.70862        46.21329        -0.12586
C         36.46156        46.66855         0.58301
C         40.28376        24.49580        -0.39024
C         39.24708        25.07252        -0.03140
C         40.39816        27.22528         0.55871
C         39.03534        26.43548         0.47664
C         40.25284        28.67743         0.10532
C         39.03090        29.40988         0.41200
C         40.15189        31.60615        -0.47548
C         38.85640        30.81720        -0.15463
C         40.19370        33.10703        -0.42745
C         39.01790        33.85555         0.12387
C         40.29166        35.94527         0.33733
C         38.98210        35.32057        -0.09940
C         40.29365        37.46611         0.27578
C         38.96642        38.22090         0.48221
C         40.19846        40.31388        -0.10698
C         39.01162        39.65008        -0.00539
C         40.23863        41.79213        -0.06323
C         39.00356        42.55094         0.30559
C         40.16874        44.73043        -0.39668
C         38.91607        44.01757         0.01584
C         40.26461        46.18408        -0.15617
C         38.98871        46.83837         0.45047
C         40.20338        48.90596        -0.12788
C         39.16743        48.29731         0.17080
C         42.83176        24.65886        -0.99908
C         41.69868        24.77107        -0.08848
C         42.88679        27.28155        -0.20413
C         41.48686        26.63100        -0.35598
C         42.79628        28.80095        -0.16896
C         41.51020        29.52125         0.17246
C         42.71143        31.66081        -0.18408
C         41.48169        30.84044        -0.63566
C         42.72934        33.14731        -0.15154
C         41.51382        33.86195        -0.68902
C         42.71767        35.96690        -0.40078
C         41.51787        35.31990        -0.29902
C         42.75432        37.44233        -0.70540
C         41.50625        38.16846        -0.23235
C         42.75391        40.29663        -0.77047
C         41.36299        39.58402        -0.74607
C         42.66841        41.78648        -0.50127
C         41.49852        42.47533        -0.43876
C         42.76209        44.68797        -0.53515
C         41.46834        43.95794        -0.56706
C         42.73088        46.14792        -0.54885
C         41.47250        46.87464        -0.42150
C         42.76876        48.90677        -0.49244
C         41.49431        48.35605        -0.39161
C         43.81219        25.33864        -1.32854
C         45.27394        27.50811        -1.22036
C         43.87797        26.85011        -1.36731
C         45.23164        28.74964        -0.26888
C         43.96109        29.51048        -0.21552
C         45.22072        31.65090        -0.08491
C         44.03163        30.96961        -0.18566
C         45.33328        33.14813        -0.28991
C         44.01716        33.88746        -0.27278
C         45.26071        36.05608        -0.63190
C         43.98550        35.24190        -0.44459
C         45.14710        37.46218        -0.01817
C         43.97891        38.13624        -0.14412
C         45.20036        40.29077        -0.05045
C         43.82958        39.63060         0.16627
C         45.24326        41.74176        -0.42269
C         43.94973        42.51615        -0.18355
C         45.24883        44.67748        -0.87596
C         43.93940        43.97029        -0.58721
C         45.22219        46.03710        -0.09903
C         43.98995        46.81803        -0.48300
C         43.82441        48.20030        -0.46598
C         47.55802        27.35116        -0.45138
C         46.48772        26.78144        -0.69460
C         47.79692        28.79837        -0.32004
C         46.49249        29.44858         0.12432
C         47.73679        31.70024         0.39211
C         46.42917        30.93585         0.53431
C         47.70774        33.09140         0.49570
C         46.38954        33.88074         0.57225
C         47.71532        36.04501         0.23257
C         46.55161        35.19818        -0.26589
C         47.63062        37.36639         0.53800
C         46.30005        38.07688         0.74941
C         47.67806        40.24752         0.12943
C         46.37187        39.66789         0.70908
C         47.77569        41.79545         0.09237
C         46.50589        42.52239        -0.34994
C         47.83144        44.57187        -0.82776
C         46.51015        43.85392        -0.61044
C         47.63488        45.99601        -0.51829
C         46.57730        46.61029        -0.37482
C         50.36634        28.94944         0.07775
C         49.05566        29.57411        -0.22088
C         50.24072        31.69351         0.41544
C         48.97253        30.99190         0.25987
C         50.15158        33.08027         1.03175
C         49.02247        33.85505         0.30300
C         50.20943        36.06126         0.84620
C         48.89873        35.28746         0.83422
C         50.14528        37.39231         1.09593
C         48.82502        38.14369         1.08896
C         50.33689        40.11078         0.02765
C         48.94669        39.46419         0.28394
C         50.28238        41.65495         0.04389
C         49.06088        42.24186        -0.69333
C         50.46541        44.32364        -0.66303
C         49.09930        43.80263        -0.85011
C         51.25537        29.48676         0.76102
C         52.45331        31.65446         1.55086
C         51.43319        30.62662         1.63524
C         52.54810        32.88984         1.45026
C         51.51403        33.80419         0.91061
C         52.58242        36.18872         1.30660
C         51.52351        35.28949         0.84765
C         52.47558        37.33602         1.75268
C         51.34477        38.22557         1.48986
C         52.64416        40.42318         0.79524
C         51.42212        39.63035         1.01524
C         52.75125        41.51333         0.22141
C         51.91141        42.29365        -0.70033
C         51.52141        43.69309        -0.53015
O         45.93738        33.37288        -1.64854
O         48.45508        44.21368        -2.09233
O         38.66009        33.62611         1.55194
O         48.38994        29.38467        -1.51829
O         39.96256        42.25235         1.36978
O         48.18442        39.45411        -0.96719
O         38.25465        26.52963         1.69919
O         45.79564        28.58455         1.07542
O         36.43966        44.09072         2.16808
O         51.75955        34.47440        -0.33074
O         51.01485        39.34083         2.37157
O         31.76561        35.66027         1.47945
O         39.85053        32.40798        -1.67197
O         41.30587        38.01811         1.20318
O         33.15313        42.60370        -0.49178
O         38.43877        29.12242         1.73123
O         45.41889        40.68963        -1.42592
O         40.65435        44.34621        -1.73451
O         34.60650        35.63249         1.69415
O         42.52245        32.39833         1.07681
O         45.24055        45.03826        -2.27262
H         45.37242        44.23353        -2.81516
O         31.23798        33.55613        -1.48831
H         31.09567        32.60132        -1.69310
O         35.22653        37.12312        -1.58419
H         35.11576        37.98374        -2.06005
O         38.07126        40.88199        -1.72194
H         38.83638        40.35574        -2.05937
O         50.76601        39.65844        -1.26526
H         50.02031        39.84513        -1.88736
O         46.24944        40.15483         2.06346
H         46.79085        39.55012         2.63160
O         35.88096        29.18253        -2.07234
H         36.86475        29.12568        -2.08084
O         31.04184        30.58729        -1.33490
H         31.73512        30.04858        -1.79720
O         41.64358        30.50582        -2.01656
H         41.32445        31.27295        -2.54446
O         35.12872        32.78868         1.86867
H         35.15464        33.66511         2.32225
O         45.11867        45.74940         1.29435
H         45.16319        46.58834         1.79794
O         34.11651        43.36893         2.94819
H         35.01517        43.52870         3.31564
O         38.27795        30.52985        -1.46318
H         38.46297        31.30810        -2.04299
O         38.98384        46.59204         1.84863
H         39.68834        47.11893         2.27809
O         48.50830        38.48941         2.46371
H         49.30616        38.95813         2.82656
O         48.53349        35.18032         2.24937
H         48.43220        36.08835         2.61611
O         45.33703        36.35935        -2.05515
H         45.86938        35.63815        -2.47813
O         33.44996        29.43638        -1.99612
H         33.66680        28.56831        -2.39894
O         36.31114        38.48270         1.67037
H         36.72309        37.73009         2.15617
O         31.23651        41.98067         2.57822
H         30.50963        42.46619         3.01998
O         40.48792        35.57466         1.74516
H         41.03179        36.29238         2.14557
O         40.95779        26.78018        -1.63870
H         41.67868        26.75740        -2.31517
O         35.65773        31.92407        -1.65564
H         35.67625        31.03689        -2.10356
O         31.63563        38.75774        -1.72107
H         31.54302        37.99620        -2.32939
O         42.83578        37.52637        -2.15925
H         43.65950        37.03240        -2.41914
O         45.98044        37.74689         2.13910
H         45.88801        36.77159         2.21185
O         43.40982        39.83136         1.51902
H         44.19634        39.73569         2.10372
O         37.83237        36.12248         1.90515
H         38.22303        35.27407         2.23245
O         36.05063        39.49736        -1.81912
H         36.73974        39.98913        -2.33680
O         36.41659        42.81602        -1.30489
H         36.08897        42.02236        -1.77952
O         43.48426        26.85048         1.02158
H         42.79760        26.84919         1.72522
O         49.33639        33.95385        -1.08892
H         49.94488        33.22346        -1.34939
O         40.81985        27.20336         1.94327
H         39.99285        27.26647         2.48277
O         50.34484        42.04900         1.37719
H         50.20334        43.01528         1.45753
O         37.90188        37.44692        -1.50107
H         37.03283        37.15800        -1.88369
O         38.83480        38.40038         1.90856
H         39.73015        38.62936         2.24674
O         45.95133        34.11710         1.90032
H         45.91508        33.24969         2.36390
O         49.84461        32.90588         2.42214
H         49.32885        33.69039         2.73691
O         51.00915        31.72572        -0.75299
H         50.90922        30.88129        -1.24344
O         41.58819        29.90353         1.57312
H         41.50443        29.07728         2.10647
O         49.02929        41.68610        -2.00566
H         48.68424        42.37843        -2.61802
O         40.86751        39.50013        -2.11377
H         41.56018        39.90808        -2.69489
O         43.31459        27.30377        -2.58845
H         44.03503        27.36746        -3.25698
O         31.18130        39.12957         1.85245
H         31.13147        39.93886         2.41258
O         52.07139        41.95511        -2.01512
H         52.17544        40.98036        -2.08684
O         42.02357        24.44691         1.20773
H         41.21694        24.40996         1.75953
O         41.73302        33.86489        -2.12788
H         41.00859        34.37184        -2.55177
O         32.55117        33.08780         1.87729
H         33.32206        32.62707         2.28277
O         43.20443        40.20673        -2.13902
H         43.37181        39.24742        -2.33838
O         37.68097        46.44986        -1.51170
H         36.87711        46.04639        -1.89861
O         33.91145        33.92035        -1.44475
H         34.42103        33.17723        -1.85161
O         37.91877        31.37462         2.09254
H         38.48297        32.09921         2.44738
O         45.64115        27.98612        -2.51629
H         46.58008        28.27596        -2.50947
O         37.56035        41.39600         1.87035
H         38.46138        41.27691         2.24802
O         46.90294        34.51906        -1.53214
O         46.15366        30.98410         1.96224
H         45.68784        30.14014         2.18650
O         50.90411        30.43258         2.87179
H         50.92286        31.27290         3.37745
O         47.91941        42.21672         1.46591
H         47.18193        41.79952         1.97867
O         43.97217        42.58590         1.29496
H         43.08750        42.86859         1.61250
