         349
 CSIRO Nanostructure Databank - Neutral Graphene Oxide Data Set
C          1.32689         2.15228        -0.38865
C          1.21566         3.50504        -0.08397
C          2.48812         1.42513        -0.15766
C          2.46480         4.30810         0.12487
C          1.20798         6.50484         0.13040
C          1.25094         7.84868         0.05654
C          2.28426         5.69565         0.81171
C          2.42210         8.59705         0.47987
C          1.19957        10.76166         0.52501
C          1.18126        12.13641         0.48725
C          2.40207         9.98933         0.62552
C          2.37104        12.93444         0.48155
C          1.20354        15.14118         0.50679
C          1.27681        16.50606         0.59572
C          2.38272        14.32499         0.41831
C          2.52552        17.20518         0.37893
C          2.59115        18.65884         0.41945
C          3.55159         1.95320         0.76376
C          3.56000         3.48803         0.82352
C          4.90339         1.37792         0.42280
C          4.84244         4.22774         1.01809
C          3.62100         6.44295         0.81793
C          3.62933         7.83485         0.71868
C          4.86475         5.70984         0.79441
C          4.88949         8.56351         0.93717
C          3.66614        10.72825         0.84469
C          3.66597        12.22844         0.68791
C          4.93671        10.00999         0.68147
C          4.90967        12.87286         0.19668
C          3.72296        15.02503         0.52122
C          3.66506        16.47579         0.12024
C          4.86045        14.22679        -0.08121
C          4.86177        17.18097        -0.37307
C          3.77406        19.32213         0.31118
C          4.99308        18.63035        -0.07409
C          6.09535         2.02092         0.62757
C          6.15829         3.46137         1.15525
C          7.33983         1.33534         0.41509
C          7.28188         4.14568         0.39530
C          6.07961         6.35890         0.58476
C          6.19937         7.78245         0.89793
C          7.24989         5.60550         0.08290
C          7.52840         8.53042         0.78153
C          6.14257        10.68043         0.38266
C          6.11974        12.09253         0.07164
C          7.38744         9.97061         0.30144
C          7.32912        12.73688        -0.28733
C          6.01857        14.90077        -0.69193
C          6.07242        16.39653        -0.77526
C          7.31835        14.14579        -0.73198
C          7.38868        17.07361        -0.76542
C          6.17872        19.25972        -0.29272
C          7.35316        18.57683        -0.96490
C          8.58904         1.97404         0.44721
C          8.59872         3.45481         0.53166
C          9.82169         1.29913         0.34732
C          9.84755         4.19764         0.14936
C          8.48682         6.35865        -0.42807
C          8.60184         7.78952         0.02434
C          9.81322         5.62058        -0.26354
C          9.79399         8.46600        -0.23634
C          8.56834        10.63976        -0.06729
C          8.53551        12.03167        -0.35877
C          9.82253         9.90425        -0.19902
C          9.76253        12.69853        -0.94311
C          8.60137        14.90210        -0.75173
C          8.57231        16.37101        -0.75590
C          9.77339        14.21124        -0.82268
C          9.85121        17.07777        -0.71454
C          8.65838        19.23220        -0.63045
C          9.83714        18.52989        -0.57440
C         11.05424         1.99405         0.17209
C         11.04332         3.38683        -0.05622
C         12.30754         1.28195         0.06139
C         12.28015         4.06143        -0.44436
C         10.98464         6.29673        -0.52145
C         11.01691         7.75251        -0.54268
C         12.26578         5.55617        -0.65546
C         12.23389         8.45091        -0.58702
C         11.03631        10.57954        -0.36783
C         11.01980        12.06613        -0.37908
C         12.26378         9.87029        -0.46109
C         12.31046        12.80597        -0.46737
C         11.05273        14.94144        -1.18310
C         11.05203        16.39476        -0.78524
C         12.33475        14.24339        -0.81277
C         12.32247        17.08523        -0.71600
C         11.09950        19.20450        -0.43829
C         12.30020        18.52682        -0.53236
C         13.53066         1.94285        -0.01189
C         13.53123         3.44648         0.13755
C         14.78126         1.28439        -0.05268
C         14.78840         4.14704        -0.29053
C         13.53773         6.26393        -0.54293
C         13.54140         7.73605        -0.87394
C         14.75518         5.56492        -0.46519
C         14.72266         8.41195        -0.18783
C         13.52927        10.59711        -0.47542
C         13.55929        12.02035        -0.52408
C         14.75397         9.89343        -0.45726
C         14.77536        12.70731        -0.62032
C         13.51667        14.94635        -0.81142
C         13.53598        16.40216        -0.79933
C         14.78796        14.17300        -0.83000
C         14.86535        17.15778        -0.91663
C         13.54293        19.24332        -0.47351
C         14.78117        18.64849        -0.54842
C         16.00450         1.98225        -0.13482
C         16.00598         3.44104        -0.30897
C         17.22866         1.28667        -0.03041
C         17.22246         4.13758        -0.49342
C         16.01569         6.29049        -0.54758
C         16.01620         7.69254        -0.50177
C         17.25595         5.56413        -0.58274
C         17.23247         8.41586        -0.55572
C         15.98672        10.57541        -0.49831
C         16.00427        11.99602        -0.57090
C         17.23890         9.84745        -0.51182
C         17.25389        12.69049        -0.39455
C         16.08815        14.90370        -0.61872
C         16.02334        16.35780        -0.31265
C         17.25685        14.09269        -0.19932
C         17.17392        16.88905         0.18625
C         15.91648        19.55435        -0.56661
C         17.17531        19.29030        -0.05254
C         18.47491         1.94209        -0.09003
C         18.48330         3.37782        -0.46731
C         19.69683         1.28461         0.10615
C         19.75541         4.14722        -0.29302
C         18.48721         6.29186        -0.59591
C         18.47403         7.71545        -0.61442
C         19.75000         5.62441        -0.32676
C         19.70201         8.45418        -0.68047
C         18.46416        10.53921        -0.53990
C         18.47834        11.96570        -0.33250
C         19.70602         9.84002        -0.69855
C         19.69939        12.62476        -0.02350
C         18.43397        14.71022         0.26243
C         18.41853        16.15055         0.34073
C         19.65151        13.98188         0.36029
C         19.58691        16.88276         0.24772
C         18.37434        20.07878        -0.02678
C         19.61142        19.38726         0.05723
C         20.93960         1.97770         0.22331
C         20.89816         3.45936         0.36353
C         22.16720         1.34903         0.29013
C         22.10643         4.24643         0.75036
C         20.93256         6.31369        -0.20943
C         20.98995         7.68617        -0.84960
C         22.12246         5.77776         0.57882
C         22.19912         8.50480        -0.37127
C         20.92928        10.68344        -1.05465
C         20.98702        11.95241        -0.21077
C         22.27902         9.84995        -1.11159
C         22.17225        12.61784        -0.03308
C         20.88766        14.68210         0.72554
C         20.86918        16.24301         0.55031
C         22.20749        13.98408         0.55131
C         22.11632        16.87676         0.17588
C         20.88063        19.89840         0.37939
C         22.08503        19.14781         0.20959
C         23.40891         2.07549         0.42341
C         23.41309         3.48959         1.01513
C         24.58247         1.42888         0.16779
C         24.67103         4.27520         0.68452
C         23.46201         6.36788         0.19686
C         23.50330         7.68930        -0.54039
C         24.66197         5.73226         0.49722
C         24.73995         8.51827        -0.26832
C         23.49264        10.61324        -0.66501
C         23.41471        12.10720        -0.75592
C         24.70927         9.93538        -0.44318
C         24.70891        12.79504        -0.39650
C         23.46350        14.81262         0.44941
C         23.38330        16.30801         0.36458
C         24.71994        14.18793        -0.05020
C         24.54520        17.10747         0.35076
C         23.34231        19.39242         0.72340
C         24.52436        18.54381         0.57619
C         25.88684         2.15063         0.05269
C         25.83927         3.56964         0.57213
C         27.09800         1.40000         0.51485
C         27.12483         4.23449         0.78894
C         25.91182         6.45611         0.36103
C         25.95955         7.85278        -0.00063
C         27.13645         5.78054         0.75699
C         27.19235         8.60262        -0.05010
C         25.95337        10.67261        -0.49591
C         25.91039        12.10395        -0.56474
C         27.19744         9.97436        -0.41184
C         27.17761        12.84974        -0.61238
C         25.88123        14.92019         0.10035
C         25.84436        16.43170        -0.04672
C         27.19634        14.30389        -0.18108
C         27.15141        17.10509         0.40163
C         25.73893        19.16437         0.83884
C         26.97877        18.40366         1.17289
C         28.31713         2.06358         0.57188
C         28.36905         3.50071         0.58308
C         29.56589         1.33811         0.62413
C         29.60463         4.18762         0.43829
C         28.46502         6.45072         0.58133
C         28.47508         7.92255         0.28575
C         29.65924         5.61169         0.28901
C         29.76532         8.52260        -0.19941
C         28.45029        10.71781        -0.62105
C         28.43929        12.09415        -0.66365
C         29.74081         9.94762        -0.69607
C         29.63932        12.94330        -0.69507
C         28.42195        14.82497         0.58721
C         28.47090        16.38380         0.58087
C         29.68298        14.12423         0.09530
C         29.57474        17.18281         1.23241
C         28.20207        19.24497         1.11825
C         29.44358        18.62467         1.28080
C         30.75500         1.99229         0.48318
C         30.80400         3.41718         0.30855
C         32.01198         4.07205        -0.00935
C         30.83737         6.20752        -0.19908
C         30.83768         7.60135        -0.65235
C         32.01625         5.42344        -0.30975
C         31.79287         8.05969        -1.52585
C         30.78507        10.27026        -1.69574
C         30.82227        12.54518        -1.34604
C         31.75257         9.38127        -2.06942
C         32.05722        13.15113        -1.10621
C         30.95531        14.55957         0.50706
C         30.82076        16.67473         1.62471
C         32.13878        14.09763        -0.08224
C         31.88558        17.48530         2.05926
C         30.57090        19.44347         1.60950
C         31.76622        18.88086         2.01542
O          5.14992        16.90114        -1.81915
O         20.74037        11.22342        -2.35462
O         30.27013         9.62266         0.63859
O         11.55505        12.65215         0.84001
O         20.85287        15.56265         1.85911
O         21.08587         3.89661         1.76621
O         12.30844         4.57698        -1.80286
O         28.62251         7.44360         1.66492
O          5.56397         8.12487         2.18091
O         30.76828        11.51553        -2.31238
O         28.12463        17.06503        -0.68027
O          9.39210         4.04125         1.59345
O         21.99232        18.00148        -0.62045
O         19.40361         3.61799        -1.61255
O         23.08113        14.18459         1.72217
O         17.32462        18.14979         0.72786
O          3.72099        11.63970         2.03342
O          6.50237        14.30174        -1.94993
O          6.87308         4.56054        -0.93075
O         15.63796        14.54879        -1.98681
O          3.93459         3.94230         2.16785
O         19.52316        18.07578        -0.45268
O         27.30190        13.97235        -1.58998
O         27.08949         5.04851         2.01382
O         31.07840        15.30514         1.68986
O         23.50423         3.29297         2.45119
H         22.58427         3.16259         2.77777
O         25.78885        16.59047        -1.49835
H         26.71631        16.50784        -1.82982
O         13.40529         3.71223         1.57627
H         14.12971         3.23723         2.03536
O         21.89748         6.31527         1.93729
H         21.28496         5.68378         2.38671
O         23.17007        12.43438        -2.16453
H         22.25463        12.06951        -2.40108
O          8.30331         6.46681        -1.88255
H          7.89248         5.62058        -2.17794
O         11.06377        14.95000        -2.66095
H         10.37218        15.57970        -2.95847
O         13.77249         7.81854        -2.30778
H         13.08650         7.28435        -2.76154
O         21.14064         7.43662        -2.27676
H         20.32887         6.98163        -2.58596
O         22.56024         9.63424        -2.51188
H         21.83042        10.15186        -2.98832
O         22.03094         8.86512         1.00871
H         21.95852         8.04048         1.55549
O         14.49618         8.25173         1.24464
H         15.20893         8.72532         1.72207
O          9.77307        12.36963        -2.36179
H          9.01744        12.82703        -2.78772
O         23.69158         7.30680        -1.93849
H         23.28819         8.02816        -2.49320
O          2.97729         4.62174        -1.20894
H          2.92106         3.81151        -1.75838
O          3.20635         1.45577         2.09572
H          3.45604         2.15891         2.73807
O          7.12618        18.77604        -2.40658
H          6.32486        18.23885        -2.62612
O         28.18560        14.44559         1.96309
H         29.00765        14.62190         2.47055
O          1.81773         5.51303         2.16480
H          2.53932         5.06524         2.66578
O          4.03824        15.07318         1.96904
H          3.89817        14.17030         2.33250
O          8.06408         8.63605         2.14201
H          7.28462         8.73539         2.73924
O         26.09997         2.34211        -1.40945
H         25.27409         2.72199        -1.77964
O         15.15014        17.20163        -2.34833
H         15.27037        16.26209        -2.63914
O          6.52731         3.42835         2.54206
H          5.70233         3.32246         3.06443
O         26.80803        17.94325         2.58001
H         26.72861        18.74052         3.14567
H          0.45510         1.63324        -0.81786
H          0.25505         4.01395        -0.24042
H          2.53526         0.36349        -0.43859
H          0.30184         5.98153        -0.20697
H          0.39875         8.39549        -0.37190
H          0.23850        10.23096         0.47898
H          0.20882        12.64254         0.40932
H          0.22075        14.65177         0.56282
H          0.36117        17.09818         0.73686
H          1.66816        19.21089         0.64965
H          4.92131         0.33015         0.08248
H          3.81660        20.41285         0.44583
H          7.30268         0.25023         0.23209
H          6.24421        20.35086        -0.15680
H          9.83054         0.19904         0.35167
H          8.67686        20.32967        -0.54847
H         12.28586         0.18164         0.05493
H         11.10074        20.29846        -0.32067
H         14.80593         0.18495        -0.00149
H         13.48648        20.33343        -0.32611
H         17.20534         0.20285         0.15874
H         15.72921        20.56522        -0.96260
H         19.69990         0.19010         0.22099
H         18.34605        21.17494        -0.10080
H         22.22459         0.26049         0.13538
H         20.94756        20.89727         0.83116
H         24.55579         0.38007        -0.16937
H         23.49713        20.33301         1.27249
H         27.06187         0.30284         0.58295
H         25.74351        20.24695         1.04359
H         29.53435         0.24211         0.70352
H         28.12157        20.34041         1.17767
H         31.69977         1.42972         0.46031
H         32.94166         3.48916        -0.07639
H         32.95826         5.89879        -0.61365
H         32.59625         7.39431        -1.86888
H         32.50176         9.68123        -2.81258
H         32.95365        12.80835        -1.63768
H         33.10743        14.48412         0.25797
H         32.82073        17.00800         2.37793
H         30.44512        20.53510         1.59501
H         32.61376        19.51638         2.30548
