         404
 CSIRO Nanostructure Databank - Neutral Graphene Oxide Data Set
C          1.18194         2.00155        -0.72456
C          1.14828         3.40033        -0.65436
C          2.38444         1.30722        -0.66916
C          2.33512         4.15137        -0.54196
C          1.13248         6.34355        -0.36758
C          1.14264         7.71857        -0.27336
C          2.33906         5.59875        -0.44443
C          2.35629         8.46060        -0.28680
C          1.15608        10.65644        -0.16668
C          1.17441        12.03093        -0.24089
C          2.35900         9.90170        -0.22796
C          2.39487        12.75698        -0.33624
C          1.21818        14.90453        -0.84075
C          1.24671        16.24612        -1.18132
C          2.40677        14.18726        -0.55683
C          2.47224        16.94764        -1.24327
C          2.53049        18.32254        -1.65025
C          3.61403         2.00205        -0.54248
C          3.58261         3.44805        -0.49618
C          4.83862         1.29021        -0.49887
C          4.79045         4.16769        -0.39400
C          3.56921         6.31403        -0.42311
C          3.58486         7.74689        -0.38609
C          4.81035         5.59043        -0.42422
C          4.82682         8.47040        -0.47162
C          3.59582        10.60758        -0.26826
C          3.61870        12.04719        -0.27785
C          4.81143         9.87993        -0.40765
C          4.86624        12.77573        -0.21470
C          3.65070        14.88459        -0.56476
C          3.67316        16.26741        -0.90458
C          4.87881        14.19715        -0.28697
C          4.91923        16.96957        -0.90406
C          3.72482        18.98632        -1.71602
C          4.95523        18.35219        -1.33412
C          6.07817         1.94444        -0.32402
C          6.02969         3.40983        -0.14108
C          7.31732         1.28623        -0.34525
C          7.33732         4.14781        -0.24170
C          6.03594         6.31738        -0.54097
C          6.06588         7.72458        -0.61804
C          7.28475         5.55442        -0.72590
C          7.32713         8.41443        -0.71465
C          6.05259        10.66019        -0.58042
C          6.10612        12.08894        -0.18381
C          7.33381         9.89136        -0.74152
C          7.33491        12.76365         0.06596
C          6.11661        14.91580        -0.17369
C          6.08592        16.32210        -0.45851
C          7.34136        14.21716         0.15670
C          7.27680        17.16721        -0.27649
C          6.16487        19.05036        -1.41852
C          7.37234        18.48457        -0.94196
C          8.58005         1.97735        -0.33031
C          8.57779         3.38434        -0.39477
C          9.82662         1.25220        -0.34407
C          9.82659         4.14648        -0.30078
C          8.59383         6.29314        -0.87811
C          8.55757         7.75203        -0.75866
C          9.86356         5.59780        -0.59953
C          9.80783         8.46059        -0.67109
C          8.56415        10.58637        -0.34541
C          8.54148        11.92857         0.09664
C          9.77548         9.84369        -0.42398
C          9.78097        12.36418         0.68016
C          8.54050        15.01644         0.36525
C          8.55022        16.48744         0.13824
C          9.73378        14.57393         0.93088
C          9.82138        17.18846        -0.12698
C          8.60309        19.14124        -1.01081
C          9.82394        18.52160        -0.60732
C         11.08082         1.88766        -0.30345
C         11.09638         3.36766        -0.19097
C         12.33108         1.23140        -0.27770
C         12.36899         4.08493        -0.48292
C         11.04023         6.30344        -0.56659
C         11.07379         7.75382        -0.64737
C         12.33618         5.57906        -0.55650
C         12.31216         8.42121        -0.54856
C         11.03123        10.59546        -0.44398
C         11.01209        11.82688         0.34748
C         12.35786         9.88702        -0.67163
C         12.26709        12.35840         0.81367
C         10.99549        15.24893         0.78447
C         11.03788        16.54472         0.17594
C         12.22670        14.61526         1.05627
C         12.29388        17.21193         0.01903
C         11.08148        19.20394        -0.69494
C         12.27971        18.59057        -0.37408
C         13.57402         1.93262        -0.09018
C         13.59829         3.36581        -0.09350
C         14.80226         1.26882         0.12229
C         14.74876         4.08900         0.22054
C         13.52757         6.32646        -0.12327
C         13.51751         7.71100        -0.13662
C         14.65214         5.55422         0.42697
C         14.73168         8.45170         0.22106
C         13.65925        10.67667        -0.48298
C         13.48067        11.95642         0.33809
C         14.77747         9.85986         0.12635
C         14.70490        12.77294         0.54688
C         13.46522        15.13696         0.62775
C         13.50966        16.49869         0.22694
C         14.70581        14.29960         0.64373
C         14.78474        17.20215         0.11340
C         13.55944        19.39993        -0.36459
C         14.81939        18.58994        -0.14539
C         16.00560         1.98460         0.35312
C         15.97804         3.41593         0.45233
C         17.25504         1.31277         0.48921
C         17.19509         4.15312         0.67793
C         15.92085         6.31301         0.77056
C         15.92619         7.76962         0.56071
C         17.18887         5.56744         0.77560
C         17.15407         8.46708         0.73367
C         15.95515        10.56096         0.45060
C         15.96962        12.03208         0.19426
C         17.15250         9.89176         0.72735
C         17.26378        12.77191         0.20225
C         15.95795        15.02045         0.21473
C         16.00145        16.49803         0.27489
C         17.25846        14.27471         0.11955
C         17.25581        17.14821         0.18945
C         16.06166        19.23790        -0.19929
C         17.26760        18.54748        -0.01498
C         18.45812         2.01593         0.65230
C         18.43958         3.45317         0.73133
C         19.71920         1.33860         0.70690
C         19.66119         4.17751         0.83745
C         18.40206         6.30399         0.85079
C         18.37577         7.72449         0.87306
C         19.65117         5.59254         0.86977
C         19.64987         8.44794         0.83018
C         18.37212        10.66968         1.17408
C         18.47713        12.10475         0.69203
C         19.66588         9.95375         0.87874
C         19.65427        12.80634         0.85452
C         18.51933        14.99274         0.40191
C         18.50950        16.40341         0.34480
C         19.70125        14.26118         0.70783
C         19.74916        17.09724         0.41870
C         18.55677        19.32741        -0.07763
C         19.80683        18.50680         0.15005
C         20.92411         2.02615         0.82429
C         20.92042         3.47585         0.90208
C         22.18570         1.33610         0.78999
C         22.12181         4.18539         1.00304
C         20.88996         6.31591         0.97276
C         20.88727         7.70262         1.04984
C         22.14715         5.60710         1.02763
C         22.12345         8.41526         1.38551
C         20.89398        10.69664         1.22126
C         20.88776        12.08727         1.18867
C         22.12246         9.92723         1.47968
C         22.10243        12.82700         1.40542
C         20.91733        14.95357         0.95002
C         20.95634        16.38056         0.72183
C         22.10852        14.22200         1.32009
C         22.18330        17.08517         0.73386
C         21.02445        19.14400         0.06293
C         22.24667        18.45341         0.34104
C         23.39600         2.00351         0.86712
C         23.42093         3.46690         1.24644
C         24.64859         1.33403         0.75947
C         24.59479         4.22589         0.69452
C         23.37552         6.32406         0.99875
C         23.40832         7.74074         1.12229
C         24.61092         5.61527         0.72426
C         24.60287         8.47784         1.01129
C         23.40745        10.61469         1.35957
C         23.34987        12.05490         1.67550
C         24.61029         9.92229         1.20034
C         24.66667        12.75954         1.80902
C         23.33777        14.98002         1.66325
C         23.39882        16.45418         1.27223
C         24.65386        14.26137         1.85037
C         24.70566        17.09208         1.00831
C         23.48607        19.11807         0.27388
C         24.71638        18.45284         0.54016
C         25.83373         2.03104         0.51531
C         25.72915         3.47840         0.08092
C         27.08656         1.38606         0.45797
C         27.01267         4.25240         0.13636
C         25.80831         6.37276         0.45122
C         25.82108         7.79494         0.61860
C         27.02268         5.64024         0.14251
C         27.00191         8.54243         0.37473
C         25.86585        10.65181         1.12870
C         25.89557        12.04275         1.38571
C         27.05712         9.95226         0.65003
C         27.10603        12.79274         1.28674
C         25.94260        14.99325         1.63668
C         25.91611        16.40949         1.19158
C         27.17811        14.19996         1.39158
C         27.15510        17.07194         0.99706
C         25.94528        19.11822         0.37715
C         27.17373        18.46146         0.63410
C         28.26652         2.05212         0.07761
C         28.20043         3.49379        -0.27643
C         29.51691         1.41840         0.10900
C         29.46121         4.25151        -0.58423
C         28.26183         6.36423        -0.09031
C         28.11282         7.83986        -0.39430
C         29.45602         5.71236        -0.33270
C         29.45104         8.59323        -0.46491
C         28.25860        10.67086         0.50027
C         28.34739        12.01967         1.09722
C         29.46486        10.06551        -0.11297
C         29.63547        12.77242         1.15034
C         28.40057        14.92527         1.32296
C         28.39569        16.37296         1.19874
C         29.65053        14.24734         1.25552
C         29.60129        17.08011         1.18891
C         28.40877        19.13739         0.54205
C         29.63118        18.49068         0.87387
C         30.73625         2.08321        -0.15400
C         30.77280         3.48699        -0.74465
C         31.94770         1.41248        -0.01770
C         31.98930         4.27016        -0.31171
C         30.72705         6.43753        -0.36747
C         30.72822         7.81979        -0.41843
C         31.97908         5.67975        -0.29313
C         32.01986         8.54474        -0.44315
C         30.77675        10.81902        -0.05361
C         30.83964        12.19792         0.49670
C         32.06133        10.06319        -0.23716
C         32.11721        12.83279         0.88966
C         30.88552        14.91213         1.28761
C         30.86765        16.37883         1.49567
C         32.13201        14.17834         1.24574
C         32.15148        17.16211         1.58183
C         30.83540        19.20206         0.85117
C         32.12934        18.68656         1.42368
C         33.19552         2.09423        -0.13744
C         33.19852         3.54241        -0.19369
C         34.40757         1.39215        -0.11054
C         34.44013         4.22793        -0.11593
C         33.22434         6.37613        -0.16362
C         33.25981         7.80102        -0.16496
C         34.45407         5.65035        -0.09915
C         34.47731         8.49849        -0.03137
C         33.30564        10.64417         0.29520
C         33.31758        12.00183         0.87570
C         34.48641         9.91748         0.22954
C         34.67173        12.78114         0.81919
C         33.44029        14.89014         1.35381
C         33.45783        16.42718         1.38487
C         34.62885        14.23144         0.78048
C         34.56929        17.09471         0.68967
C         33.31515        19.22943         0.67920
C         34.45890        18.51433         0.40486
C         35.65801         2.05702        -0.12328
C         35.67098         3.49960        -0.08980
C         36.87926         1.33958        -0.20338
C         36.89395         4.19743        -0.03797
C         35.70226         6.34307        -0.10589
C         35.72174         7.76938        -0.09224
C         36.93081         5.61665        -0.10582
C         36.95236         8.43894        -0.25320
C         35.78666        10.61729         0.38919
C         35.81830        12.08285         0.26978
C         37.04015         9.89262        -0.03118
C         36.93344        12.77776        -0.17406
C         35.75160        14.93409         0.33780
C         35.70935        16.38340         0.28572
C         36.92384        14.23116        -0.14481
C         36.86859        17.08382        -0.20468
C         35.60477        19.18450        -0.16011
C         36.78865        18.52323        -0.39619
C         38.12004         1.98714        -0.15234
C         38.13886         3.43733         0.08411
C         39.36021         1.31643        -0.33460
C         39.47314         4.19642        -0.17208
C         38.17235         6.31226        -0.31720
C         38.15251         7.72992        -0.48192
C         39.39950         5.62637        -0.49037
C         39.33380         8.42710        -0.89487
C         38.11624        10.66258        -0.67704
C         38.07140        12.04317        -0.71575
C         39.21411         9.85856        -1.26578
C         39.16640        12.83499        -1.32147
C         38.06946        14.96113        -0.53263
C         38.04396        16.39299        -0.51301
C         39.25090        14.27728        -1.02157
C         39.33294        17.16943        -0.67285
C         37.93176        19.21794        -0.94524
C         39.12022        18.57976        -1.17889
C         40.54839         1.99825        -0.57359
C         40.61475         3.41109        -0.63838
C         41.72110         4.12338        -1.15695
C         40.56309         6.29336        -0.95326
C         40.52558         7.73097        -1.14084
C         41.71468         5.50760        -1.25996
C         41.72080         8.48435        -1.46469
C         40.46263        10.58861        -1.76337
C         40.43766        12.09826        -1.79354
C         41.71806         9.82796        -1.67040
C         41.67328        12.88444        -1.74515
C         40.41192        14.97203        -1.37968
C         40.42383        16.42504        -1.40510
C         41.62643        14.24134        -1.65947
C         41.40447        17.13567        -2.05031
C         40.22976        19.25819        -1.79900
C         41.33974        18.56283        -2.18864
O          7.88249         5.72908        -2.05096
O         33.78960        15.63923         2.56200
O         12.21263        13.40467         1.75111
O         16.67974        12.24343        -1.05970
O         31.47170        16.77468         2.81133
O         11.63770        10.50921        -1.79186
O         12.48882         4.74458        -1.78960
O         29.32794         9.60458        -1.52109
O          7.72027        17.20348         1.13353
O         16.53403        14.67119        -1.09594
O         36.75551        10.16192         1.39594
O          9.72852        13.36982         1.64463
O         10.47911         3.86948         1.03774
O         23.15729        16.01006         2.66694
O         39.48553        10.04033        -2.69637
O         30.70768        11.99503        -0.95416
O         14.87787        13.46065         1.83705
O         23.98698        12.24882         3.00138
O         22.03395         9.08556         2.70366
O          6.71348         3.92202         1.06743
O         25.40402        14.77779         2.99144
O         32.18860         9.48307        -1.56686
O         34.15550        12.16828         2.04913
O         19.74442         9.31626        -0.42778
O          6.66424        10.46432        -1.92085
O         39.00659         3.86229         1.17417
O         28.54783         3.84723        -1.68180
O         14.96752         5.91056         1.82490
O         39.44477        12.58268        -2.74100
O         29.22043        12.04010         2.34796
O         18.64755        20.02169        -1.33562
H         18.63040        19.35529        -2.05284
O         14.13675        11.04526        -1.79752
H         13.34296        11.18296        -2.36383
O         39.84441        17.31967         0.70470
H         39.17944        17.83728         1.20752
O         25.42152         3.41297        -1.37236
H         26.27471         3.43894        -1.86071
O         13.67823        20.17582        -1.56760
H         13.77498        19.55862        -2.32132
O         27.58454         7.80366        -1.76335
H         27.94305         8.60453        -2.21786
O         23.60821         3.47353         2.71452
H         22.80267         3.08041         3.11332
O         32.19068        19.26792         2.76651
H         31.75162        18.61484         3.36268
O         30.98570         3.29035        -2.17465
H         30.08996         3.21833        -2.58103
O         18.29258        10.73474         2.63324
H         17.47238        11.21051         2.88251
H          0.23805         1.44672        -0.81977
H          0.17341         3.90425        -0.69449
H          2.39113         0.20895        -0.71736
H          0.16542         5.82320        -0.36641
H          0.18111         8.24308        -0.19857
H          0.18644        10.14700        -0.09331
H          0.21806        12.56980        -0.22124
H          0.24939        14.38797        -0.82750
H          0.31173        16.77163        -1.42315
H          1.59517        18.83156        -1.92488
H          4.81757         0.19496        -0.60446
H          3.75837        20.03530        -2.04472
H          7.32708         0.18835        -0.42315
H          6.17277        20.07100        -1.82950
H          9.78570         0.15265        -0.36546
H          8.64284        20.15469        -1.43738
H         12.35637         0.13171        -0.31478
H         11.09019        20.25647        -1.01477
H         14.83386         0.16915         0.10013
H         13.48338        20.14779         0.47415
H         17.27906         0.21460         0.42256
H         16.09247        20.31708        -0.40723
H         19.73068         0.24087         0.63029
H         18.51923        20.12915         0.71027
H         22.17856         0.25057         0.60517
H         21.06260        20.21106        -0.19954
H         24.67266         0.23379         0.81802
H         23.51025        20.17641        -0.02395
H         27.15138         0.32525         0.74593
H         25.95201        20.17019         0.05726
H         29.55932         0.36277         0.42044
H         28.42379        20.20094         0.26277
H         31.95041         0.34156         0.23837
H         30.80081        20.27472         0.60527
H         34.38896         0.29215        -0.08718
H         33.30222        20.30793         0.46019
H         36.84643         0.24593        -0.32216
H         35.53260        20.26428        -0.35746
H         39.35596         0.21789        -0.39148
H         37.81428        20.27847        -1.21665
H         41.45298         1.42065        -0.81536
H         42.61193         3.56303        -1.47670
H         42.61495         6.00232        -1.64866
H         42.68682         7.96045        -1.46058
H         42.67456        10.35678        -1.79064
H         42.64471        12.37324        -1.80132
H         42.57086        14.80251        -1.69297
H         42.23929        16.61345        -2.53914
H         40.14171        20.33558        -2.00284
H         42.17032        19.08106        -2.68789
