         651
 CSIRO Nanostructure Databank - Neutral Graphene Oxide Data Set
C          5.72833        31.71654         0.83243
C          5.73606        33.08878         0.83985
C          8.15557        27.38230         0.70885
C          8.10898        28.75734         0.59857
C          6.92032        29.54452         0.74200
C          8.17701        31.65500         0.44433
C          6.92535        30.93467         0.66259
C          8.19056        33.11365         0.51462
C          6.94869        33.85317         0.71494
C          8.17126        36.00998         0.63652
C          6.95652        35.24779         0.68605
C          8.21431        37.39095         0.54710
C         10.76786        23.21618         0.26726
C         10.69976        24.53991         0.65901
C          9.47370        25.27172         0.56190
C         10.63754        27.40169         0.87434
C          9.41255        26.66234         0.70157
C         10.64508        28.79356         0.66062
C          9.36792        29.44582         0.14483
C         10.61248        31.61748         0.01398
C          9.34756        30.93876         0.31246
C         10.60402        33.14285         0.02989
C          9.37130        33.81716         0.41122
C         10.70580        35.97992         0.45593
C          9.45258        35.24693         0.87790
C         10.70532        37.39157         0.46274
C          9.45466        38.13345         0.50130
C         10.71814        40.26509         0.35277
C          9.49063        39.52616         0.44694
C         10.75005        41.67115         0.22640
C         13.28682        18.99909        -0.48552
C         13.25353        20.40081        -0.23398
C         12.03108        21.11724        -0.13507
C         13.20629        23.12213         0.64076
C         11.99821        22.46107         0.28570
C         13.22971        24.42930         1.41965
C         11.80565        25.16094         1.50671
C         13.18266        27.38650         1.04062
C         11.86684        26.68350         1.29066
C         13.13480        28.78735         0.53465
C         11.85273        29.52281         0.58942
C         13.07338        31.66084         0.30605
C         11.88437        30.92398         0.30314
C         13.05419        33.07718         0.07165
C         11.88936        33.83382         0.14289
C         13.16297        35.96952         0.32691
C         11.91859        35.26911         0.27397
C         13.15188        37.35612         0.47531
C         11.94082        38.09264         0.43457
C         13.17478        40.23234         0.21953
C         11.96304        39.54147         0.36020
C         13.20429        41.64867         0.06475
C         11.96468        42.38495         0.08183
C         13.22110        44.50058        -0.20861
C         12.01547        43.80479        -0.07509
C         13.26858        45.93609        -0.37910
C         15.76359        14.62994        -0.55668
C         15.72733        16.07444        -0.10706
C         14.48459        16.84587        -0.46233
C         15.77774        18.97075        -0.52276
C         14.48604        18.23158        -0.46848
C         15.74643        20.46473        -0.32607
C         14.46731        21.12597        -0.01489
C         15.68390        23.17829         0.69569
C         14.44034        22.46340         0.43281
C         15.70506        24.53831         0.90418
C         14.43687        25.26315         0.98963
C         15.70898        27.35540         0.46460
C         14.43631        26.61379         0.85649
C         15.68085        28.79420         0.98919
C         14.42538        29.54030         0.54353
C         15.61231        31.67119         0.34462
C         14.34327        31.02528         0.85814
C         15.49891        32.87522        -0.25749
C         14.32597        33.76211        -0.21323
C         15.72965        35.98373         0.39619
C         14.44955        35.27087         0.02957
C         15.69367        37.33999         0.66642
C         14.40463        38.10413         0.83316
C         15.65935        40.27755         0.62142
C         14.46852        39.45123         0.10960
C         15.70034        41.57832        -0.14095
C         14.42930        42.34730        -0.12151
C         15.70533        44.45020        -0.31650
C         14.46775        43.75711        -0.22191
C         15.71092        45.89876        -0.11990
C         14.45709        46.64296        -0.35666
C         15.73519        48.78492        -0.47716
C         14.54896        48.07736        -0.48303
C         15.68906        50.29227        -0.64439
C         18.24863        10.53057        -1.60013
C         18.19784        11.73997        -0.98262
C         16.86354        12.38414        -0.65059
C         18.17189        14.55680        -0.06654
C         16.89162        13.89438        -0.44820
C         18.28328        16.03629        -0.31029
C         17.01252        16.80325        -0.46345
C         18.25820        18.89789        -0.01305
C         17.06142        18.26612        -0.28781
C         18.32035        20.37256         0.12655
C         17.03281        21.13791         0.04214
C         18.22282        23.09765         1.16410
C         16.93484        22.40879         0.80846
C         18.20507        24.56844         1.17423
C         16.97438        25.25482         1.02237
C         18.20410        27.38045         0.96754
C         16.98644        26.66151         0.91198
C         18.18639        28.83929         0.79934
C         16.98140        29.51183         0.66379
C         18.24020        31.71532         0.64728
C         16.91414        30.99049         0.65207
C         18.36414        33.20006         0.56849
C         17.29750        34.03098         0.09249
C         18.07981        35.93108         1.36068
C         16.99391        35.27941         0.58408
C         18.14676        37.43679         1.23205
C         16.92349        38.12504         0.75949
C         18.22006        40.17741         0.28940
C         16.93881        39.47876         0.52787
C         18.26310        41.64103         0.16191
C         17.01015        42.27607        -0.29831
C         18.31930        44.49321        -0.43071
C         16.97087        43.74926        -0.52471
C         18.28163        45.93162        -0.25713
C         17.03611        46.66167        -0.12788
C         18.21388        48.81039        -0.54530
C         17.02181        48.12693        -0.38117
C         18.24472        50.25015        -0.73661
C         17.03030        50.96095        -0.87850
C         18.28184        53.02429        -1.28123
C         17.06800        52.32102        -1.21733
C         18.31643        54.46642        -1.76153
C         20.77692         6.55784        -3.22234
C         20.74483         7.84657        -2.65382
C         19.50837         8.51060        -2.37896
C         20.73216        10.41417        -1.50687
C         19.48889         9.77991        -1.81156
C         20.69406        11.80983        -1.06493
C         19.45629        12.28175        -0.31614
C         20.72675        14.61859        -0.35584
C         19.45348        13.80091        -0.08410
C         20.72387        15.99901         0.26246
C         19.50981        16.75607         0.10779
C         20.68786        18.85433         0.62439
C         19.48077        18.15099         0.24780
C         20.71859        20.23746         0.81195
C         19.52025        21.01454         0.72938
C         20.70439        23.12815         1.33031
C         19.51542        22.38783         1.00414
C         20.66844        24.51445         1.41968
C         19.43526        25.26534         1.22882
C         20.70463        27.40919         1.18619
C         19.44020        26.68951         1.15408
C         20.72028        28.81690         0.95582
C         19.46363        29.54845         0.75655
C         20.74658        31.67990         0.54551
C         19.47757        30.92077         0.58481
C         20.74319        33.09839         1.02824
C         19.44558        33.78782         1.16408
C         20.68013        35.97045         1.62442
C         19.38460        35.20835         1.53740
C         20.65581        37.42775         1.40435
C         19.46102        38.09630         1.19786
C         20.69079        40.28730         0.96026
C         19.51371        39.46828         0.65588
C         20.69715        41.64736         0.68533
C         19.47242        42.33137         0.26852
C         20.74904        44.44327         0.07015
C         19.54326        43.74495        -0.01872
C         20.74654        45.80971        -0.59247
C         19.56352        46.68355        -0.10736
C         20.75070        48.84809        -0.59332
C         19.49348        48.04648        -0.83736
C         20.74855        50.22610        -0.58633
C         19.48351        50.95630        -0.74870
C         20.71927        53.14418        -0.72713
C         19.47824        52.35595        -0.94633
C         20.76110        54.55081        -1.17368
C         19.44284        55.27459        -1.09051
C         20.75547        57.34369        -1.76656
C         19.53725        56.69990        -1.53977
C         20.80162        58.74513        -2.00795
C         23.25541         4.01881        -4.41189
C         22.04152         4.62410        -4.11075
C         23.23806         6.59297        -3.24936
C         22.00127         5.92260        -3.52712
C         23.22703         7.88215        -2.66378
C         21.98589         8.51322        -2.37129
C         23.22087        10.48894        -1.48402
C         21.96789         9.82464        -1.81354
C         23.23335        11.74659        -0.89116
C         21.99778        12.52496        -0.80452
C         23.21176        14.52040         0.20418
C         21.91519        13.75905         0.09063
C         23.19909        15.87089         0.50496
C         21.93284        16.60861         0.55769
C         23.18318        18.75930         1.25802
C         21.88885        18.03930         0.95838
C         23.24191        20.22689         1.19265
C         22.00989        21.02938         0.87588
C         23.26229        23.07311         1.63302
C         21.93662        22.31804         1.71284
C         23.23485        24.54157         1.86485
C         21.90018        25.27895         1.73827
C         23.17513        27.40810         1.34327
C         21.93138        26.72560         1.41281
C         23.18254        28.81632         1.13519
C         21.95281        29.49707         0.97046
C         23.22514        31.69819         1.02663
C         22.04520        30.91729         0.48728
C         23.23601        33.07977         1.22349
C         21.96085        33.77938         1.61796
C         23.21416        35.99512         1.42908
C         21.93147        35.25146         1.14655
C         23.16300        37.43306         1.47254
C         21.92530        38.11083         1.40398
C         23.18960        40.34777         1.53692
C         21.86202        39.57618         1.49748
C         23.13520        41.76776         1.14337
C         21.94237        42.39775         0.79750
C         23.19782        44.52646         0.54294
C         21.96377        43.80228         0.46532
C         23.16039        45.98534         0.35134
C         22.03880        46.60653        -0.42238
C         23.26615        48.84776        -0.20812
C         22.01612        48.10402        -0.48371
C         23.21905        50.28028        -0.37557
C         22.01658        50.94426        -0.50495
C         23.27303        53.16367        -0.76845
C         22.01667        52.42712        -0.48615
C         23.21893        54.47519        -1.21297
C         21.96316        55.18336        -1.41527
C         23.20111        57.24875        -2.08750
C         22.00512        56.60222        -1.76870
C         23.23939        58.65850        -2.32036
C         22.01707        59.41210        -2.23819
C         23.26358        61.46430        -2.64281
C         22.06197        60.82873        -2.41153
C         24.46852         4.66885        -4.15190
C         25.70263         6.63938        -3.31071
C         24.48561         5.95615        -3.57040
C         25.71918         7.91519        -2.72159
C         24.46702         8.55412        -2.36509
C         25.71263        10.47764        -1.41900
C         24.46727         9.81056        -1.74777
C         25.72803        11.63993        -0.66616
C         24.45858        12.28841        -0.27149
C         25.74039        14.42018         0.70754
C         24.44016        13.69789         0.31987
C         25.68350        15.92743         0.52714
C         24.47151        16.57020         0.70266
C         25.75494        18.75523         1.13379
C         24.46146        17.97137         1.18782
C         25.68137        20.22710         1.18994
C         24.46561        20.92242         1.30503
C         25.72777        23.09527         1.83974
C         24.44546        22.38681         1.52990
C         25.74607        24.62505         1.81346
C         24.46717        25.32302         1.63004
C         25.68418        27.42208         1.17640
C         24.44933        26.70359         1.40037
C         25.66678        28.84530         1.04235
C         24.43146        29.54365         1.05843
C         25.66227        31.70781         0.98785
C         24.44700        30.97544         1.02921
C         25.66458        33.13188         1.07408
C         24.45098        33.82501         1.27941
C         25.65525        36.03139         1.36404
C         24.41684        35.28979         1.40203
C         25.65479        37.41395         1.32461
C         24.41708        38.17402         1.40971
C         25.67096        40.32922         0.97450
C         24.41832        39.57011         1.35817
C         25.67363        41.77647         1.43259
C         24.37266        42.53315         1.32492
C         25.68033        44.64804         0.91021
C         24.40831        43.95174         0.96328
C         25.72000        46.02017         0.58106
C         24.45438        46.76828         0.45425
C         25.73529        48.74239        -0.52509
C         24.44563        48.14916        -0.05885
C         25.76060        50.24102        -0.34893
C         24.49642        51.02617        -0.30072
C         25.73408        53.08882        -0.93910
C         24.52989        52.46264        -0.67711
C         25.79271        54.53529        -1.13459
C         24.46976        55.24319        -1.34442
C         25.76425        57.17758        -2.27722
C         24.45500        56.43122        -2.27274
C         25.75724        58.58551        -2.82209
C         24.46062        59.33582        -2.59849
C         24.45976        60.71922        -2.74542
C         26.93188         8.61295        -2.50612
C         28.16803        10.58996        -1.75763
C         26.96304         9.88092        -1.88951
C         28.23583        11.85074        -1.09693
C         27.00608        12.32774        -0.38985
C         28.12345        14.58108        -0.41364
C         27.00089        13.72906         0.15575
C         28.12827        16.00810         0.03649
C         26.94077        16.66900         0.44887
C         28.26451        18.80734         0.68797
C         26.95035        18.06881         0.63465
C         28.11537        20.31248         0.53814
C         26.97851        20.91852         1.29630
C         28.31469        23.11182         1.45974
C         27.02630        22.35571         1.64513
C         28.27918        24.65737         1.52855
C         26.99020        25.35773         1.50796
C         28.19169        27.42443         0.89149
C         26.94888        26.70785         1.15166
C         28.10144        28.84458         0.36534
C         26.87585        29.59850         0.80818
C         28.00426        31.76849         0.10865
C         26.87143        30.98406         0.74396
C         28.07003        33.22231         0.58928
C         26.92994        33.85344         0.99005
C         28.20496        36.04268         1.26782
C         26.94297        35.25869         1.57585
C         28.22307        37.45267         1.39892
C         26.94416        38.16052         1.02968
C         28.19071        40.36060         1.34501
C         26.89755        39.59411         1.55265
C         28.15433        41.76426         1.30251
C         26.94174        42.51568         1.23820
C         28.18682        44.59759         0.78731
C         26.92560        43.91488         1.06239
C         28.20378        46.00614         0.47270
C         26.96527        46.73283         0.39344
C         28.19484        48.89609         0.07181
C         26.96395        48.09890         0.06068
C         28.25954        50.21899        -0.55273
C         26.99701        50.86887        -0.89457
C         28.28495        53.03771        -1.26843
C         26.98382        52.33973        -1.19262
C         28.23401        54.45405        -1.58114
C         27.04969        55.15499        -1.62240
C         26.94776        56.54820        -2.02491
C         29.41674        12.55453        -0.99648
C         30.61802        14.75270        -0.81167
C         29.50511        13.87835        -0.27004
C         30.52306        16.09537        -0.87220
C         29.26859        16.78361        -0.48420
C         30.57210        19.01938        -0.38092
C         29.29959        18.25865        -0.26763
C         30.57697        20.36978        -0.12526
C         29.33995        21.11543         0.23516
C         30.63913        23.22326         0.65426
C         29.45699        22.50153         0.76897
C         30.67114        24.63579         0.91703
C         29.49361        25.36339         1.11376
C         30.72827        27.56843         1.08253
C         29.42423        26.79030         0.95835
C         30.64564        28.91456         0.43794
C         29.38529        29.64143         0.54103
C         30.52737        31.89834        -0.31861
C         29.36094        31.11721         0.31725
C         30.65414        33.25253         0.36640
C         29.34794        34.02388         0.37307
C         30.67010        36.03727         1.33118
C         29.39349        35.34707         1.09382
C         30.69047        37.51270         1.39436
C         29.43978        38.19986         1.41153
C         30.67647        40.35323         1.37446
C         29.41816        39.64095         1.38175
C         30.67514        41.75291         1.31359
C         29.41935        42.55026         1.51525
C         30.59880        44.42174         0.10681
C         29.38069        43.88343         0.80490
C         30.62872        45.92450         0.01412
C         29.45038        46.65170         0.19951
C         30.73310        48.77095        -0.42027
C         29.53753        48.11938         0.15001
C         30.69583        50.14673        -0.72853
C         29.47350        50.88604        -0.79487
C         29.44700        52.29556        -1.16397
C         31.61249        16.96084        -1.48171
C         32.95828        19.01747        -0.93488
C         31.76024        18.34394        -0.86931
C         33.05704        20.42898        -0.64710
C         31.78603        21.14706        -0.42370
C         33.15845        23.21043         0.11639
C         31.83122        22.61133        -0.00819
C         33.25988        24.59534         0.58384
C         31.97359        25.34369         0.89849
C         33.16811        27.44989         0.46299
C         31.98485        26.79974         0.70910
C         33.14963        28.93229         0.38920
C         31.85250        29.58841         0.01707
C         33.12209        31.83461        -0.33301
C         31.82199        31.07147        -0.36474
C         33.12732        33.28362         0.10444
C         31.84101        33.91530         0.48481
C         33.26167        35.99011         1.17327
C         31.95127        35.25723         1.13143
C         33.21971        37.49652         1.00400
C         31.92489        38.21835         1.37852
C         33.17086        40.41352         1.79559
C         31.92228        39.62053         1.41460
C         33.20006        41.78318         1.17380
C         31.93167        42.50217         1.23505
C         33.14852        44.48598         0.12032
C         31.90056        43.91419         0.68642
C         33.07725        45.80895        -0.36339
C         31.87151        46.57289        -0.30986
C         31.88179        47.96551        -0.58755
C         34.24044        21.13890        -0.68592
C         35.55529        23.23994        -0.38692
C         34.31228        22.54379        -0.34629
C         35.64523        24.64253        -0.16749
C         34.45526        25.36258         0.20197
C         35.66776        27.48072         0.05001
C         34.43448        26.75834         0.24497
C         35.70336        28.89599         0.06638
C         34.42567        29.64696         0.15514
C         35.59448        31.73928         0.32263
C         34.41319        31.08362        -0.27685
C         35.43298        32.88480         1.02012
C         34.37653        33.86813         0.75311
C         35.76443        36.01619         1.40196
C         34.43536        35.29174         1.24939
C         35.77458        37.47122         1.15783
C         34.49372        38.17270         1.47381
C         35.70442        40.39098         1.23003
C         34.49020        39.65663         1.66450
C         35.61519        41.65996         0.75597
C         34.35880        42.40304         0.72136
C         34.32992        43.73435         0.19708
C         36.85912        25.36038        -0.28934
C         38.12737        27.50429        -0.19076
C         36.90277        26.77031        -0.13568
C         38.16348        28.90292        -0.07694
C         36.91584        29.59366         0.03095
C         38.19911        31.82277         0.11850
C         36.89989        31.07215         0.07503
C         38.30373        33.25279         0.53512
C         37.34999        33.91093         1.25712
C         38.32741        36.12771         0.78551
C         37.20371        35.35456         1.34250
C         38.21053        37.51187         0.77485
C         36.97107        38.16756         1.06751
C         37.03674        39.67332         1.25745
C         39.40565        29.66721        -0.09614
C         40.65518        31.84047        -0.14249
C         39.45642        31.04059         0.02411
C         40.64946        33.21275        -0.17317
C         39.48159        34.00821         0.16087
C         39.47277        35.39608         0.29948
O         25.29490        50.73247         0.92700
O         20.03722        35.49078         2.83693
O         33.82919        29.57727         1.52065
O         31.53303        22.21828        -1.40433
O         31.80822        30.06398        -1.39180
O         34.06704        34.02984        -0.70417
O         37.46455        31.68053        -1.16540
O         18.80724        14.13829         1.18438
O         17.41228        22.39258         2.19401
O         27.26310        21.32347         2.68404
O         25.25144        18.13260         2.39891
O         31.92612        43.72528         2.11058
O         24.99569        42.14025         2.64816
O         27.02043        35.06427         2.97398
O         28.98041        48.78426         1.30717
O         21.25141        52.97585         0.64824
O         15.80219        19.88983        -1.66974
O         17.49742        31.47688         1.93311
O         31.35445        35.32402         2.46637
O         17.75344        36.74967         2.50171
O         28.25980        20.89551        -0.78276
O         27.35562        12.61926         1.03366
O         16.35539        46.30180         1.16602
O         23.51485        46.66362         1.59353
O         30.20839        32.23606        -1.66305
O         26.84162        51.33418        -2.27536
O         10.55118        32.37520        -1.23913
O         32.84397        24.85398         1.98737
O         13.86875        29.10201        -0.70944
O         11.28734        24.95467         2.79510
O         20.84855        32.78081        -0.42746
O         29.50594        30.62690         1.67514
O         36.57390        35.75110         2.59305
O         17.75137        16.35826        -1.65158
O         17.70964        44.11902        -1.73384
O         25.72354        23.84321         3.08195
O         17.95656        21.16432        -1.08493
O         28.59834        23.82201         2.69375
O         16.57406        33.44226        -0.94496
O         22.31615        18.26083         2.35463
O         21.28913        12.65989        -2.08081
O         12.59317        27.35365         2.37405
O         14.33684        34.71378        -1.32427
O         16.37623        41.51271        -1.42965
O         22.46345        24.94749         3.05995
O         22.41275        40.08529         2.75261
O         34.59813        38.73370         2.81812
O         33.91661        31.54696        -1.54368
O         24.25672        12.51755         1.19849
O         28.80231        17.77508        -1.54930
O         24.33456        55.76616        -3.63465
O         36.39478        33.20231         1.98332
O         25.17842        55.37805        -0.08495
O         22.38092        47.23088        -1.69444
O         19.05938        39.51920        -0.74117
O         22.20008        21.52100        -0.50044
H         22.05994        20.77556        -1.12171
O         30.56748        43.87815        -1.26491
H         29.78006        44.25052        -1.71534
O         29.40891        42.89084         2.95821
H         30.27208        43.33510         3.14075
O         28.82418        18.59444         2.01784
H         28.14457        18.83435         2.68546
O         20.58135        45.48283        -1.97832
H         20.86304        46.26795        -2.50423
O         32.96634        40.66810         3.21942
H         33.34987        39.89938         3.70354
O         22.35442        30.75774        -0.93912
H         22.09129        31.60005        -1.37696
O         21.61462        13.31342         1.43567
H         22.42900        12.87489         1.78298
O         14.76277        50.64902        -1.68238
H         15.04216        50.20569        -2.50931
O         37.94653        40.26206         0.32398
H         37.60704        40.10431        -0.58062
O         27.70203        31.70156        -1.31192
H         28.56085        31.94785        -1.78036
O         27.96405        28.70869        -1.08873
H         27.78357        29.61350        -1.44840
O         20.82480        14.94014        -1.76285
H         20.04712        15.48240        -2.01570
O         14.25400        31.17771         2.29547
H         14.88267        30.53821         2.70928
O         25.78663        48.52036        -1.97664
H         25.50282        47.60070        -2.16203
O         29.81233        13.65349         1.12183
H         29.09456        13.08276         1.48957
O         33.29738        37.67724        -0.45658
H         32.66899        37.05935        -0.88779
O         29.26007        34.53400        -1.00818
H         29.61090        33.76750        -1.58234
O         24.18421        56.81836        -4.61700
H         23.21526        56.80468        -4.81122
O         19.79539        46.94476         1.30056
H         18.94294        47.18063         1.72483
O         26.87097        59.33535        -2.32922
H         26.78601        59.41011        -1.35675
O         21.92180        33.68155         3.05057
H         21.19439        34.26396         3.38515
O         18.55163        54.47307        -3.17479
H         17.84522        53.95375        -3.60985
O         19.51643        11.63269         0.97881
H         19.31612        12.31533         1.66040
O         19.43245        47.79268        -2.27343
H         19.45584        48.65903        -2.73108
O         15.60539        28.76142         2.43840
H         16.39976        28.30336         2.78777
O         25.83660        14.32292         2.15000
H         25.83873        13.36239         2.36611
O          9.57472        35.15216         2.35035
H          9.49695        36.06268         2.70794
O         14.28280        38.35917         2.27515
H         14.49164        37.52817         2.75247
O         31.25784        17.16642        -2.86545
H         30.37469        17.60522        -2.86665
O         27.05674        38.20973        -0.43992
H         27.10123        37.28738        -0.77387
O         25.72898        40.45412        -0.46700
H         26.04510        39.59472        -0.84076
O         27.82150        14.63391        -1.84912
H         28.37722        15.33487        -2.25472
O         15.75127        16.05065         1.36501
H         14.95353        15.57243         1.67498
O         21.76749        21.96300         3.09906
H         21.86587        22.78132         3.63460
O         15.79580        27.42292        -0.98049
H         15.82283        26.50852        -1.33038
O         19.07133        55.30091         0.32721
H         19.87033        55.52477         0.85003
O         13.53644        23.99753         2.76002
H         12.71153        24.23394         3.28738
O         15.86618        12.02773        -1.60680
H         16.12646        12.39241        -2.47723
O         21.79535        35.26073        -0.30191
H         22.48031        34.67178        -0.68363
O         14.69750        39.13966        -1.27938
H         15.10442        39.91481        -1.72664
O         15.49243        40.67037         2.00119
H         15.14967        39.88623         2.49955
O         30.85914        27.81086         2.52583
H         31.16862        26.98009         2.94756
O          9.41343        29.22714        -1.31184
H         10.01969        29.89512        -1.70032
O         26.71300        39.48522         2.97609
H         26.59897        40.38193         3.35758
H          4.77570        31.18116         0.96201
H          4.78880        33.63399         0.96740
H          7.23193        26.80761         0.87805
H          5.97411        29.02629         0.96366
H          5.99706        35.78859         0.69305
H          7.27123        37.95749         0.49156
H          9.88469        22.74565        -0.19533
H          8.54734        24.71762         0.33992
H          8.54279        40.08636         0.45279
H          9.80086        42.22872         0.22051
H         12.32867        18.46329        -0.56286
H         11.08742        20.60594        -0.37590
H         11.06977        44.36849        -0.07842
H         12.31799        46.47840        -0.50013
H         14.82418        14.13755        -0.85487
H         13.52189        16.30983        -0.45267
H         13.61237        48.64046        -0.61836
H         15.26820        50.73274         0.30347
H         17.31310        10.08303        -1.97250
H         16.53250        11.94060         0.33183
H         16.12115        52.84926        -1.40572
H         17.32747        54.95941        -1.54243
H         19.83183         6.03696        -3.43703
H         18.56548         8.01203        -2.64889
H         18.61300        57.29800        -1.53776
H         19.86469        59.32135        -1.98581
H         23.26617         3.01672        -4.86317
H         21.09686         4.10334        -4.32369
H         23.29630        62.55586        -2.76501
H         21.12722        61.40379        -2.34740
H         25.41963         4.17669        -4.40087
H         26.65501         6.15816        -3.57999
H         25.89921        58.50699        -3.93777
H         25.40924        61.23440        -2.94839
H         27.87768         8.15580        -2.83362
H         29.09013        10.16383        -2.18076
H         29.17293        54.96239        -1.84987
H         27.88129        57.11728        -2.16098
H         30.32901        12.13455        -1.44896
H         31.56001        14.25779        -1.09839
H         31.62653        50.64078        -1.04615
H         30.41584        52.80231        -1.29329
H         32.59111        16.42081        -1.46528
H         33.86196        18.49138        -1.27876
H         34.00415        46.31087        -0.68082
H         32.82211        48.43536        -0.91410
H         35.17783        20.61689        -0.92957
H         36.46210        22.68782        -0.67464
H         36.52517        42.15809         0.38887
H         35.26972        44.17435        -0.16827
H         37.78795        24.81253        -0.50766
H         39.06855        26.94717        -0.31385
H         39.06057        38.13817         0.46583
H         37.48468        39.83938         2.27747
H         40.34356        29.10642        -0.23421
H         41.60190        31.30956        -0.32755
H         41.59094        33.74421        -0.37923
H         40.37110        35.97037         0.02733
