         260
 CSIRO Nanostructure Databank - Neutral Graphene Oxide Data Set
C         30.33575        31.57210        -0.24998
C         30.27358        32.82045        -0.35531
C         30.41280        36.02613        -0.35814
C         30.31424        37.29325        -0.44512
C         30.52429        40.37147        -1.44883
C         30.54004        41.56292        -1.05187
C         32.53507        28.60910         0.63593
C         31.54506        29.30617         0.20862
C         32.56143        31.47421         0.62100
C         31.32669        30.67611         0.18883
C         32.60111        32.95437         0.32518
C         31.52372        33.65511        -0.57932
C         32.73803        35.86379        -0.22799
C         31.44436        35.11079        -0.21984
C         32.71841        37.40425        -0.09604
C         31.53151        38.00724        -0.89518
C         32.94990        40.21892        -1.28638
C         31.63168        39.42764        -1.37609
C         32.95179        41.73104        -1.08570
C         31.60984        42.45384        -0.89286
C         32.91520        44.35340        -0.37561
C         31.79868        43.77808        -0.49789
C         35.28905        27.14783        -0.15547
C         35.09285        28.60193        -0.12966
C         33.83952        29.29301         0.27268
C         35.17571        31.41946         0.44580
C         33.89518        30.70100         0.89883
C         35.22540        32.87488         0.61994
C         33.92321        33.66983         0.49686
C         35.20329        35.88162         0.55740
C         34.00394        35.11125         0.08417
C         35.26905        37.36302         0.23458
C         34.08937        37.99741        -0.47126
C         35.52190        40.17734        -0.83690
C         34.20233        39.41670        -0.97990
C         35.51661        41.70968        -0.76510
C         34.21907        42.44658        -0.72016
C         35.48851        44.63064        -0.44664
C         34.22640        43.81894        -0.46472
C         35.42761        45.94902         0.24921
C         37.72322        27.09535         0.00481
C         36.38777        26.61170         0.07902
C         37.66315        28.57582        -0.29850
C         36.39576        29.32340        -0.02923
C         37.68110        31.46590         0.22404
C         36.37379        30.71728         0.16088
C         37.66463        32.95337         0.17797
C         36.49342        33.61794         0.39148
C         37.74899        35.82246         0.81537
C         36.46622        35.07324         0.74020
C         37.73338        37.32973         0.75933
C         36.56975        38.03213         0.19057
C         37.92515        40.16682         0.15691
C         36.72091        39.41220        -0.30901
C         37.80537        41.62149         0.46090
C         36.72764        42.44144        -0.17843
C         37.60337        44.48161         1.00995
C         36.65257        43.87696         0.24152
C         37.54455        45.94049         1.42597
C         36.31232        46.52303         0.88467
C         40.21325        24.50267         1.02295
C         39.14906        25.10277         0.68067
C         40.24264        27.12001         0.12313
C         38.90226        26.43852         0.29415
C         40.26601        28.57805        -0.25697
C         38.96311        29.31855        -0.39756
C         40.25899        31.51855        -0.27985
C         38.99131        30.77081        -0.01272
C         40.25396        32.93773        -0.17715
C         38.95899        33.68142        -0.02288
C         40.31234        35.83238         0.60593
C         39.00151        35.14333         0.33543
C         40.34128        37.32091         0.58192
C         39.05056        38.03426         0.75966
C         40.29562        40.11278         1.12056
C         39.03363        39.50302         0.55648
C         40.28701        41.64519         1.17104
C         38.94290        42.32170         1.13367
C         40.06095        44.67468         0.80476
C         38.91101        43.81480         1.45562
C         40.24989        45.97741         1.64624
C         38.82945        46.70894         1.66389
C         39.97534        48.69734         0.78960
C         39.01408        48.12080         1.36287
C         42.81276        24.65284         1.41691
C         41.48877        25.04995         1.13174
C         42.77181        27.29287         0.60689
C         41.47446        26.53739         0.78301
C         42.77450        28.62117        -0.11579
C         41.50787        29.37749        -0.15734
C         42.74866        31.47745        -0.63800
C         41.47667        30.76707        -0.35446
C         42.69786        33.01960        -0.61142
C         41.44728        33.67537        -0.24835
C         42.70525        35.92603        -0.27392
C         41.54773        35.09150         0.19785
C         42.77286        37.36539         0.09750
C         41.50642        38.02396         0.40682
C         42.73624        40.26532         0.46112
C         41.42604        39.53130         0.24856
C         42.68710        41.75531         0.11428
C         41.49078        42.44584         0.77107
C         42.71523        44.64948         0.44211
C         41.39052        43.92996         0.50668
C         42.76439        46.12378         0.75105
C         41.48432        46.83894         1.13411
C         42.49294        48.75508         0.07053
C         41.30952        48.29140         0.66470
C         43.86858        25.32221         1.45265
C         45.11772        27.58215         1.43309
C         44.18678        26.59908         0.71264
C         45.29690        28.88331         0.58419
C         44.10210        29.40241        -0.10780
C         45.25277        31.55069        -0.39867
C         44.05111        30.84715        -0.35374
C         45.27792        33.03231        -0.49671
C         43.98965        33.75667        -0.41107
C         45.25699        35.92713        -0.55054
C         43.97891        35.22811        -0.64315
C         45.20808        37.43484        -0.65424
C         43.95993        38.04558        -0.01145
C         45.24616        40.27371        -0.05485
C         44.01098        39.50011         0.31090
C         45.24844        41.76527         0.01555
C         43.99386        42.51273         0.31533
C         45.21436        44.57997        -0.28025
C         44.00665        43.87495         0.35282
C         45.26895        46.11499        -0.04121
C         44.01712        46.87429         0.25825
C         43.64800        48.26575         0.00527
C         47.54389        27.84615         1.72848
C         46.52941        27.15498         1.66996
C         47.80752        29.20787         1.18412
C         46.45457        29.64028         0.55537
C         47.74127        31.63379        -0.33757
C         46.49150        30.92618        -0.09041
C         47.78433        32.97463        -0.68688
C         46.49366        33.68320        -1.13664
C         47.79189        35.96117        -0.94467
C         46.47535        35.22087        -0.99039
C         47.80310        37.29683        -0.24301
C         46.49474        38.04702        -0.07743
C         47.80050        40.31180         0.15588
C         46.53484        39.53643         0.16289
C         47.77263        41.70713         0.21422
C         46.54845        42.46294         0.17007
C         47.75446        44.59597        -0.03880
C         46.54357        43.86691         0.00495
C         47.52719        45.94098        -0.39894
C         46.50661        46.61224        -0.71566
C         50.22579        28.88045         0.45751
C         48.83714        29.29151         0.05950
C         50.33932        31.52680        -0.41012
C         48.99567        30.80787        -0.36075
C         50.35469        33.00239        -0.61789
C         49.07317        33.66696        -0.97912
C         50.38327        35.97425        -1.03172
C         49.08560        35.18714        -1.11133
C         50.36306        37.41800        -0.61251
C         49.08372        38.07058        -0.16606
C         50.36600        40.31557        -0.33237
C         49.05679        39.57986        -0.18715
C         50.36827        41.74419         0.18454
C         49.06069        42.45308         0.42425
C         50.29140        44.53310        -0.07769
C         49.00150        44.02520         0.56405
C         51.30307        29.49564         0.46518
C         52.68520        31.68990         0.13894
C         51.59402        30.82913         0.09059
C         52.63462        32.90140        -0.22886
C         51.54997        33.72299        -0.61385
C         52.74475        35.88281        -0.22860
C         51.71629        35.13827        -1.10145
C         52.62670        37.14509        -0.22875
C         51.61959        38.09902        -0.12591
C         52.76269        40.40381         0.20034
C         51.74938        39.54506        -0.51300
C         52.75549        41.66982         0.07876
C         51.66717        42.53457         0.03161
C         51.37692        43.90230        -0.03600
O         43.47590        39.87773         1.63345
O         33.63873        35.38101        -1.29566
O         37.14804        35.29294         2.02486
O         49.72078        30.87265        -1.61686
O         33.09799        41.11011        -2.42456
O         42.69221        32.27138        -1.86134
O         38.85388        34.73722        -1.06193
O         48.57258        37.35983         0.99922
O         47.03979        35.93772        -2.18221
O         38.33272        37.81936         2.04381
O         44.78885        33.52587         0.80710
O         37.86728        41.72060         1.94343
O         40.95144        39.78067        -1.12860
O         34.17189        29.22416        -1.10645
O         49.82789        41.87347         1.54424
O         49.54307        40.10469        -1.50118
O         43.60970        28.63903        -1.29512
O         45.14863        41.02775        -1.30339
O         40.45273        27.50593        -1.26190
O         41.91406        44.37202        -0.77487
O         37.98455        46.29261         2.74286
O         32.16131        32.46265         1.61968
O         34.49885        33.41036         1.79661
O         34.91303        36.84004         1.61346
O         38.50681        30.98270         1.36386
O         41.18578        35.24560         1.61783
O         46.36269        38.57023         1.26380
O         34.32054        38.25946        -1.86743
O         35.93945        44.82874        -1.81697
O         43.03430        35.69356        -1.69294
O         50.40853        37.05092        -2.04924
O         41.23056        42.15242         2.16401
O         42.02948        27.36986         1.85518
O         49.06938        34.33976        -2.29539
O         36.49638        39.64952        -1.77217
O         38.24639        28.97878        -1.61167
O         45.06476        46.61994         1.26560
O         42.54633        46.60330         2.10997
O         31.69724        38.29579        -2.28005
O         36.56638        42.26842        -1.61207
O         34.76321        45.25841        -2.56674
H         35.08748        45.18745        -3.49739
O         32.44570        37.76767         1.26543
H         33.16745        37.39908         1.83517
O         42.46572        41.84946        -1.31096
H         43.24457        41.43771        -1.75727
O         52.10447        39.57140        -1.89265
H         51.60404        38.86227        -2.35426
O         48.36483        28.58325        -1.05421
H         48.92419        28.80900        -1.82893
O         40.49559        39.61416         2.44325
H         39.68676        39.77309         2.97272
O         39.53157        45.09130        -0.46591
H         40.25706        45.05099        -1.13601
O         52.13414        35.07984        -2.44054
H         51.92700        35.94505        -2.85992
O         48.20734        30.13540         2.18115
H         47.65590        30.01717         2.98118
O         44.72357        26.32757        -0.55305
H         44.15306        25.70295        -1.04459
O         41.97377        39.21551        -2.01679
H         41.55396        39.35274        -2.90111
O         44.50426        27.93950         2.65835
H         45.15355        28.39057         3.23455
O         40.56521        45.62307         2.96886
H         40.75143        46.42500         3.49727
O         46.37780        33.38968        -2.54134
H         47.07499        33.91346        -3.00362
O         44.96660        44.48531        -1.70455
H         44.96064        43.53901        -1.96416
O         33.98420        30.53208         2.32090
H         33.86522        31.42115         2.72807
O         31.95500        33.47684        -1.91817
H         31.54273        34.15360        -2.49442
O         49.01239        44.33627         1.93796
H         49.63531        43.71693         2.38310
O         45.15351        37.83152        -2.05269
H         44.48683        37.25791        -2.49363
O         38.99332        43.86742         2.87459
H         38.41151        43.16429         3.23558
