         266
 CSIRO Nanostructure Databank - Neutral Graphene Oxide Data Set
C        -10.66343         0.44245        -1.57262
C         -9.38943         1.15630        -1.79013
C         -8.10818         0.42099        -1.49440
C         -7.06198         1.26638        -0.78134
C         -5.79207         0.57452        -0.32782
C         -4.77066         1.31742         0.20667
C         -3.74946         0.71852         1.13882
C         -2.48496         1.49238         1.46764
C         -1.19480         0.77274         1.79966
C          0.11161         1.44576         1.57508
C          1.27877         0.71877         1.54265
C          2.57005         1.37461         1.14732
C          3.80710         0.63848         1.62821
C          5.18488         1.37462         1.51842
C          6.46240         0.56859         1.40035
C          7.88013         1.15168         1.37442
C          8.86300         0.70851         0.29818
C          9.65764         1.59297        -0.62097
C         10.33142         0.95449        -1.77395
C         -9.36058         2.64220        -1.77356
C         -8.18715         3.31046        -1.78220
C         -6.84767         2.56344        -1.67789
C         -5.75577         3.41611        -0.96229
C         -4.71755         2.79718        -0.06531
C         -3.76569         3.66197         0.74086
C         -2.51286         2.98538         1.22679
C         -1.18886         3.73221         1.28220
C          0.11419         2.94895         1.50394
C          1.40702         3.63012         1.14406
C          2.62911         2.81652         0.82166
C          3.96048         3.53080         0.69319
C          5.24524         2.82568         1.06299
C          6.45911         3.68406         1.38309
C          7.93895         3.14427         1.52415
C          8.78273         3.70120         0.37190
C          9.46614         3.05833        -0.59153
C         -8.12972         4.73430        -2.30444
C         -7.04304         5.57125        -1.68494
C         -6.01274         4.89183        -0.86201
C         -4.91044         5.73090        -0.29519
C         -3.69754         5.18392         0.46458
C         -2.34503         5.61249        -0.18956
C         -1.14642         5.07927         0.60180
C          0.15989         5.66463         0.12820
C          1.43301         4.98038         0.49929
C          2.74589         5.69679         0.52253
C          3.92050         5.01503         0.56195
C          5.22587         5.70175         0.19640
C          6.41033         5.13816         0.99257
C          7.67447         5.91961         0.78102
C          8.98236         5.19456         0.56856
C         -7.09664         6.95526        -1.75002
C         -6.00560         7.78058        -1.35479
C         -4.78419         7.08397        -0.91666
C         -3.49638         7.82669        -0.82366
C         -2.33608         7.15640        -0.16404
C         -1.07697         7.93864        -0.04284
C          0.20706         7.16933        -0.25056
C          1.35554         7.73831         0.58203
C          2.67791         7.15184         0.16058
C          3.91677         7.92279        -0.12719
C          5.12980         7.20995         0.40585
C          6.34343         7.99814         0.77114
C          7.62938         7.26884         0.71015
C         -5.90981         9.17313        -1.59125
C         -4.73429         9.89411        -1.41225
C         -3.48656         9.29897        -1.00619
C         -2.31763        10.00846        -0.86744
C         -1.01990         9.46515        -0.28928
C          0.21116         9.89303        -1.09233
C          1.45624         9.91379        -0.63012
C          2.67378        10.21892        -0.20603
C          3.97840         9.43707        -0.42014
C          5.16139        10.11454         0.24055
C          6.27153         9.47687         0.64179
C        -10.72610        -0.85393        -1.20793
C         -9.52736        -1.72091        -1.13478
C         -8.16964        -1.07501        -1.27103
C         -6.87645        -1.75531        -0.89354
C         -5.71653        -0.92902        -0.34503
C         -4.69927        -1.59238         0.55445
C         -3.76964        -0.76593         1.40403
C         -2.52869        -1.48229         1.93628
C         -1.21931        -0.73617         2.01442
C          0.10698        -1.51215         2.09797
C          1.30224        -0.74830         1.52191
C          2.43769        -1.42532         1.13381
C          3.74852        -0.72637         0.95593
C          5.00681        -1.49486         0.69746
C          6.37255        -0.90608         1.01287
C          7.54359        -1.55378         0.32062
C          8.80923        -0.78238         0.02871
C          9.79777        -1.37124        -1.02410
C         10.47655        -0.38040        -1.89108
C         -9.65031        -3.05867        -0.50041
C         -8.66563        -3.62086         0.22415
C         -7.43442        -2.84539         0.65260
C         -6.19284        -3.71719         0.85621
C         -4.87236        -3.04091         0.94269
C         -3.84845        -3.69972         1.83118
C         -2.50796        -3.02465         2.03031
C         -1.29566        -3.69296         1.46100
C         -0.00334        -2.98555         1.59781
C          1.15311        -3.62098         0.85423
C          2.32083        -2.75286         0.40772
C          3.57203        -3.68082         0.45286
C          4.93742        -2.98208         0.44083
C          6.10758        -3.58869        -0.26753
C          7.28272        -2.71677        -0.64608
C          8.61855        -3.59565        -0.77222
C          9.54489        -2.69304        -1.54174
C         -8.87065        -4.99359         0.85570
C         -7.59372        -5.80625         0.99082
C         -6.36701        -5.09968         1.44994
C         -5.08876        -5.88646         1.69983
C         -3.79961        -5.16559         1.49508
C         -2.65348        -5.73454         1.03401
C         -1.37204        -4.99508         0.98275
C         -0.20469        -5.65364         0.39835
C          0.95455        -4.93836         0.20320
C          2.08073        -5.46703        -0.61779
C          3.40090        -4.75854        -0.64175
C          4.60108        -5.42327        -1.27685
C          5.94325        -4.78348        -1.15700
C          7.17234        -5.52291        -1.54820
C          8.37715        -4.92853        -1.45072
C         -7.57243        -7.12896         0.72454
C         -6.36962        -7.97659         0.89967
C         -5.11057        -7.37722         1.48336
C         -3.80791        -8.05189         1.13714
C         -2.63074        -7.20858         0.78337
C         -1.63244        -7.70232        -0.24402
C         -0.23605        -7.16601         0.14949
C          0.81339        -7.68659        -0.82004
C          2.03773        -6.89157        -1.07373
C          3.34446        -7.61896        -1.18098
C          4.56621        -6.88012        -1.55582
C          5.69262        -7.56299        -1.94467
C          6.98179        -6.84041        -2.28884
C         -6.24100        -9.13620        -0.01732
C         -5.08590        -9.79739        -0.17729
C         -3.88685        -9.52232         0.70992
C         -2.62130        -9.99947         0.04361
C         -1.61337        -9.21631        -0.37374
C         -0.50653        -9.80632        -1.22432
C          0.85033        -9.16782        -1.02858
C          1.99289        -9.80502        -1.36902
C          3.31813        -9.12715        -1.32873
C          4.49849        -9.72169        -1.97433
C          5.62128        -8.98749        -2.19946
O         -1.27044         4.97401         2.03767
O          2.42274        -4.52590        -1.69196
O          1.01632        -7.04572        -2.12515
O         -1.87807         7.65155         1.13130
O          8.47210         3.28864         2.66986
O          0.85991         4.87113        -0.87001
O         -3.58630         3.43467         2.14887
O         -4.10971        -3.56149         3.28196
O          4.33535        -0.76071        -0.39330
O         10.20740         1.09797         0.66674
O         -5.90595        -5.35697         2.79210
O         -6.42661         2.23005        -2.92659
O         -2.68508        -7.90057         2.07849
O          2.48681         1.81748        -0.24168
O         10.03907        -1.39621         0.45508
O         -4.41158         0.14161         2.32441
O         -7.68215         1.74458         0.43887
H         -7.44814         1.15835         1.19072
O         -8.45753         0.69849        -2.85439
O          7.28070        -1.78287         1.72702
O          5.38184         7.53625         1.80263
O          2.04760        -2.28802        -0.92758
H          2.79435        -1.71378        -1.21824
O         -2.01206         1.38218         2.84089
O         -7.61810        -1.91070         1.52160
O          8.11039        -7.69093        -2.10487
H          8.20063        -7.88970        -1.15042
O         -2.03958        -0.97890         3.19660
O         -6.47625        -2.59006        -1.88310
H         -7.25762        -2.75889        -2.46937
O         -5.98382        -8.18762         2.31486
O          6.97975        -2.11546        -1.91805
H          6.45365        -2.74587        -2.45866
O          9.08266        -3.89779         0.54302
H          9.55076        -3.10504         0.90341
O          3.58374        -8.49896        -0.02539
O          6.14227         4.71469         2.35999
O         -8.77271        -1.77103        -2.40758
O          5.92554         0.98174         2.69622
O          0.97727         3.56711         2.52454
O          4.83460         2.92187        -0.33860
O         -2.02934        -7.14201        -1.50950
H         -1.57666        -7.65818        -2.21838
O          0.12813        -7.78625         1.40333
H         -0.62145        -7.70616         2.03533
O         -2.65600        -3.31941         3.49691
O         -9.87396        -5.72032         0.15894
H         -9.58122        -5.86057        -0.76443
O          5.11783        -4.53854        -2.35326
O          5.92092        -3.79790         1.15339
O          0.44105        -1.57889         3.49619
H         -0.40051        -1.64970         4.00412
O         -4.43083        -1.40459        -0.86313
O         -3.81904         7.08683        -2.06427
O         -6.10234         5.48282         0.49195
O         -3.78244         5.88161         1.71032
H         -3.39534         5.30401         2.41268
O          3.17939         7.27921        -1.21760
O          1.01277        -3.77290         2.29087
O          3.53935         0.43515         3.02408
H          4.39907         0.34213         3.49929
O         -5.22127        -3.84513        -0.22766
O         -9.38822         5.39747        -2.20370
H         -9.59171         5.53265        -1.25551
O          0.48339         7.27180        -1.65253
H          0.97923         6.46173        -1.92284
O          9.70465         5.78757        -0.50786
H          9.08716         5.95407        -1.24903
O          4.27101         9.54044        -1.83755
H          3.68139         8.90031        -2.29710
O         -4.08149       -10.30614         1.90919
H         -4.78609        -9.85972         2.43441
O         -4.43467         3.10158        -1.48497
O          1.19637         8.27082         1.66333
O         -0.88821        -9.52901        -2.59616
H         -0.09218        -9.60087        -3.16325
O         -2.19949         5.07953        -1.50252
H         -2.78591         5.58604        -2.11815
O         -0.91629        10.09713         1.00316
H         -1.36506         9.51553         1.65800
O          5.47746         5.45588        -1.20297
H          5.24925         4.51400        -1.38692
O          8.41897         0.79103         2.58775
H          9.34788         1.11171         2.62786
O          3.49181        -4.38094         1.70642
H          4.40356        -4.59064         2.01218
H         11.00803        -0.78633        -2.76498
H         10.78653         1.61791        -2.52449
H         10.07392         3.66014        -1.28945
H          9.61510         5.29440         1.49176
H          8.55199         7.84067         0.52917
H          7.13397        10.05655         1.00585
H          5.15268        11.21553         0.22675
H          2.80603        11.23294         0.21868
H          0.04174        10.21033        -2.13755
H         -2.34916        11.09874        -1.02374
H         -4.74254        10.97580        -1.61173
H         -6.80391         9.70459        -1.94924
H         -7.96596         7.42209        -2.23812
H         -7.90049         4.63874        -3.40446
H        -10.30222         3.18226        -1.96442
H        -11.58624         1.04174        -1.60045
H        -11.69653        -1.31402        -0.97042
H        -10.57874        -3.62395        -0.68646
H         -9.25983        -4.81701         1.89592
H         -8.48949        -7.61629         0.35616
H         -7.12218        -9.39685        -0.62391
H         -5.02902       -10.64322        -0.87839
H         -2.56100       -11.08637        -0.13032
H         -0.44635       -10.92048        -1.07310
H          1.96977       -10.87111        -1.64744
H          4.45301       -10.77486        -2.28905
H          6.50877        -9.46151        -2.64314
H          6.94266        -6.59921        -3.38853
H          9.26807        -5.47797        -1.79396
H          9.65466        -2.85004        -2.62596
