         275
 CSIRO Nanostructure Databank - Neutral Graphene Oxide Data Set
C         30.34548        31.73811        -1.06499
C         30.45002        32.94565        -0.66398
C         30.38614        36.03719         0.44591
C         30.40541        37.22565         0.77411
C         30.41635        40.28593         0.71086
C         30.44995        41.54177         0.75240
C         32.83809        28.93986        -1.03560
C         31.72308        29.47438        -1.17887
C         32.77820        31.57334        -0.64974
C         31.40348        30.79368        -0.50428
C         32.77611        33.09246        -0.55350
C         31.48534        33.79558        -0.31346
C         32.74002        35.95536        -0.00601
C         31.52893        35.04756         0.50758
C         32.84018        37.32776         0.68523
C         31.58580        38.04504         1.10769
C         32.84225        40.27200         0.81149
C         31.58432        39.53579         1.34144
C         32.83417        41.69143         0.76746
C         31.55902        42.40972         0.73977
C         32.78732        44.47100         0.95498
C         31.74391        43.81235         0.83396
C         35.60529        27.34630        -0.28769
C         35.47776        28.75685        -0.76104
C         34.14084        29.46579        -0.71189
C         35.32346        31.58076        -0.29312
C         34.07554        30.82452        -0.45618
C         35.31398        33.07814        -0.51950
C         34.02434        33.69018         0.09230
C         35.22708        35.92003        -0.02250
C         34.06747        35.21625         0.05126
C         35.21681        37.41354        -0.09813
C         34.03565        38.14132         0.37458
C         35.28742        40.28647         0.32876
C         34.03479        39.54510         0.49055
C         35.28186        41.73973         0.47240
C         34.09366        42.41594         0.72108
C         35.17000        44.62784         0.15187
C         34.18538        43.93414         1.05832
C         35.36808        46.09352         0.21030
C         37.68879        27.35511         1.01216
C         36.55245        26.73612         0.21735
C         37.78075        28.78352         0.48472
C         36.45034        29.48081         0.28219
C         37.80813        31.61119        -0.31038
C         36.50802        30.93154        -0.12033
C         37.84956        33.07667        -0.16170
C         36.53894        33.77535         0.11281
C         37.77472        35.97887         0.25599
C         36.56520        35.25257        -0.32452
C         37.83145        37.44971         0.05281
C         36.54412        38.18412        -0.12316
C         37.80454        40.30815         0.48729
C         36.49370        39.61759         0.18350
C         37.74121        41.79685         0.18900
C         36.54393        42.45861         0.21848
C         37.72323        44.62956        -0.66650
C         36.44665        43.89258        -0.20349
C         37.75931        46.17353        -0.41009
C         36.43167        46.61357        -0.16676
C         40.20065        24.51798         0.98031
C         39.17300        25.25835         0.97794
C         40.25822        27.31299         0.97535
C         38.99472        26.63344         0.93635
C         40.23575        28.74829         0.75753
C         39.00950        29.40223         0.35985
C         40.31844        31.61538         0.13213
C         39.08625        30.82816        -0.09289
C         40.30179        33.02556         0.01842
C         39.03651        33.74300        -0.00790
C         40.33348        35.92233         0.12805
C         39.05517        35.20014         0.31115
C         40.30369        37.38306        -0.01624
C         39.02657        38.11012         0.03281
C         40.35333        40.28673         0.16626
C         39.00281        39.61572        -0.22959
C         40.31899        41.78340        -0.21635
C         38.99778        42.52122        -0.17485
C         40.21320        44.72180        -0.54308
C         38.97627        44.04471         0.02070
C         40.27378        46.20261        -0.59562
C         38.92656        46.87067        -0.43787
C         40.11708        48.97534         0.12767
C         39.14553        48.25430        -0.15458
C         42.78964        24.56736         0.88934
C         41.47419        25.12040         0.99148
C         42.79545        27.27401         1.15887
C         41.48498        26.56010         1.06211
C         42.82037        28.77731         1.06728
C         41.43914        29.54327         0.91997
C         42.73936        31.66794         0.47772
C         41.51921        30.95349         0.45612
C         42.74441        33.06172         0.25579
C         41.52164        33.75254         0.08898
C         42.74085        35.87240        -0.56304
C         41.49727        35.20503        -0.01734
C         42.81899        37.36411        -0.19029
C         41.47128        38.04739        -0.29355
C         42.87361        40.01251         0.01099
C         41.53272        39.53726        -0.50062
C         42.82644        42.24431         0.13666
C         41.53827        42.64479        -0.24813
C         43.22321        45.07423        -0.46231
C         41.32087        43.95342        -0.80102
C         42.93033        46.31391         0.06385
C         41.58310        46.97210        -0.14072
C         42.63843        48.93873         0.89242
C         41.30584        48.29055         0.75626
C         43.87333        25.11824         0.62300
C         45.29259        27.28397         0.33507
C         44.12954        26.53196         0.94695
C         45.29238        28.75898         0.80373
C         43.99927        29.48732         0.66530
C         45.26780        31.55489         0.14891
C         44.03756        30.98451         0.88629
C         45.27152        33.05022         0.14267
C         44.03413        33.83518         0.46382
C         45.21314        35.90511        -0.40889
C         44.04014        35.21475        -0.16545
C         45.27009        37.31619        -0.72217
C         43.98328        38.08668        -0.93084
C         45.33268        40.27835        -0.42888
C         44.08425        39.52289        -0.41782
C         45.33240        41.79474         0.26153
C         44.13099        42.76211        -0.02978
C         45.40373        44.83284         0.58120
C         44.32021        44.22073        -0.03272
C         45.43095        46.31148         0.77256
C         44.13901        47.07175         0.55857
C         43.71497        48.36521         1.11119
C         47.68119        27.43834         0.89360
C         46.66281        26.78842         0.67590
C         47.93655        28.82671         1.40353
C         46.55867        29.53751         1.10234
C         47.78359        31.57037         0.33297
C         46.59262        30.96212         0.65474
C         47.73727        32.93230        -0.35995
C         46.57551        33.78046         0.20607
C         47.75168        35.84472        -0.79727
C         46.47979        35.13405        -0.49016
C         47.74171        37.32479        -0.79147
C         46.48491        38.02944        -0.75658
C         47.79612        40.07546        -0.90860
C         46.47917        39.51411        -0.74863
C         47.91851        42.17248        -0.07186
C         46.55922        42.76911         0.02990
C         47.97801        44.64663         1.00861
C         46.54365        43.94708         1.04219
C         47.63640        45.93152         1.71101
C         46.65129        46.65552         1.53081
C         50.42523        28.93868         0.77710
C         49.11641        29.54942         0.85064
C         50.35302        31.63081         0.28703
C         49.06109        30.87065         0.45460
C         50.33274        32.94898        -0.49839
C         49.03904        33.74465        -0.36056
C         50.26676        35.83056        -1.00843
C         49.03152        35.08906        -0.60993
C         50.21742        37.30555        -1.07243
C         48.99857        37.98059        -0.81499
C         50.23225        40.18967        -0.40493
C         48.98914        39.42399        -0.75102
C         50.28052        41.56199         0.32325
C         49.04730        42.39438         0.64066
C         50.45824        44.21752         1.26839
C         49.06061        43.69347         1.55724
C         51.51356        29.46279         0.45723
C         52.74770        31.62626        -0.33811
C         51.72768        30.57271        -0.48661
C         52.74538        32.86038        -0.36653
C         51.61605        33.83401        -0.13589
C         52.66043        36.10918        -0.95640
C         51.61238        35.09413        -0.96061
C         52.63783        37.27581        -1.38043
C         51.41819        38.09272        -1.41502
C         52.64024        40.39699        -0.75262
C         51.46573        39.63373        -1.08919
C         52.64508        41.45396        -0.06025
C         51.62083        42.29519         0.35558
C         51.46593        43.58164         0.90464
O         42.84219        41.05640         0.91011
O         38.29824        35.54626         1.56188
O         39.55569        42.07477        -1.43834
O         47.96565        41.41840        -1.25030
O         41.13558        46.93822        -1.50736
O         32.40112        37.34338         2.10550
O         51.28156        39.12454        -2.40758
O         45.19832        47.08614        -0.43447
O         50.89195        35.14127        -2.20627
O         45.68017        29.08369         2.19513
O         43.69563        26.86660         2.26503
O         50.38408        40.29257         1.05579
O         35.32534        44.07172        -1.15961
O         42.11539        29.39163         2.21418
O         38.55863        31.05335        -1.44560
O         42.39908        44.53780        -1.45621
O         46.95198        35.19431        -1.88895
O         32.86391        32.41300        -1.84564
O         35.80872        37.87279        -1.37265
O         37.85700        44.43635        -2.06921
H         36.95859        44.45120        -2.46682
O         40.57809        40.15087         1.57490
H         39.71499        40.20062         2.05340
O         36.77967        35.33058        -1.74723
H         36.53893        36.24279        -2.03900
O         31.71137        34.70490         1.85871
H         31.86646        35.53832         2.36635
O         50.82778        31.86482         1.60365
H         50.77975        31.02485         2.11041
O         37.98156        40.15324         1.93714
H         37.25329        40.63358         2.38617
O         51.58274        34.30060         1.19678
H         51.57412        33.51963         1.79878
O         44.20573        31.28312         2.30463
H         43.59124        30.68300         2.79219
O         38.75040        39.73833        -1.63565
H         39.61319        39.79227        -2.11323
O         38.82964        44.32072         1.43256
H         39.68661        44.17450         1.88369
O         48.11479        28.81509         2.80911
H         47.25949        28.54028         3.21297
O         33.87159        33.27252         1.46142
H         34.72280        33.43507         1.93653
O         31.55809        39.76811         2.74596
H         31.04198        39.05672         3.17882
O         31.14747        30.56887         0.84953
H         30.31129        30.07154         0.95432
O         36.00931        28.89193        -2.06675
H         35.35081        28.57720        -2.71949
O         37.28996        27.39449         2.40254
H         37.20191        26.47148         2.72239
O         46.35673        43.36561        -1.27565
H         46.80033        42.79002        -1.93905
O         42.58514        35.70626        -1.99662
H         43.18811        36.33894        -2.45429
O         43.18208        37.46210         1.21019
H         42.52495        36.96306         1.74002
O         44.12064        34.05319         1.94234
H         44.09543        33.14369         2.34859
O         43.68056        38.11304        -2.36700
H         44.49093        38.40280        -2.83903
O         50.41149        32.58214        -1.89076
H         50.40067        33.41929        -2.42108
O         48.89505        43.42629         2.91260
H         49.60427        42.82854         3.22351
O         45.14044        31.10618        -1.23418
H         45.90312        31.50330        -1.73117
O         46.87618        34.05067         1.60665
H         46.01729        34.27285         2.04825
O         41.49129        39.80512        -1.92863
H         42.16079        39.22115        -2.36887
O         35.35314        33.32071        -1.92719
H         34.57760        32.87008        -2.33893
O         45.10193        27.30960        -1.07782
H         45.18436        26.39595        -1.42323
O         51.50341        30.18142        -1.77331
H         51.51114        30.97106        -2.35830
O         48.36209        44.94426        -0.31426
H         47.70678        45.55269        -0.71719
O         36.39647        33.73441         1.55583
H         37.13223        34.28180         1.93990
O         35.75842        29.47454         1.54897
H         36.02433        28.66998         2.05677
O         32.46090        36.19149        -1.40038
H         33.24494        36.60026        -1.82445
O         46.36758        43.59816         2.41065
H         45.75946        42.82399         2.48447
O         45.32674        41.38726         1.64142
H         44.43752        40.99462         1.82403
O         47.43310        32.61426        -1.74409
H         47.33333        33.47895        -2.22259
O         34.67148        44.06419         2.39019
H         33.97807        43.76601         3.01463
O         40.91966        47.80178         2.02575
H         40.74001        48.55933         2.62018
