         470
 CSIRO Nanostructure Databank - Neutral Graphene Oxide Data Set
C         37.58149        50.66586        -1.60646
C         36.36342        51.31745        -1.41912
C         37.48723        53.02028        -0.12911
C         36.31425        52.49407        -0.66906
C         40.09805        49.02551        -1.48594
C         40.06513        50.48334        -1.29627
C         38.76734        51.18227        -1.05702
C         39.94292        52.98639         0.34410
C         38.72492        52.39083        -0.33386
C         40.04968        54.48826         0.17402
C         42.52404        48.94219        -1.04491
C         41.26096        48.33255        -1.42377
C         42.54373        50.25999        -0.61750
C         41.34534        51.10102        -0.76386
C         42.43686        52.93236         0.52455
C         41.27659        52.35948        -0.00910
C         42.33138        54.31841         1.06089
C         41.16841        55.10998         0.56954
C         44.97525        46.00100        -1.09608
C         43.80952        46.80218        -1.35730
C         44.89833        48.66943        -0.24063
C         43.73176        48.12335        -0.98582
C         44.87087        50.04003         0.33148
C         43.82838        50.97037        -0.25569
C         44.90377        52.89916         0.95883
C         43.68905        52.26540         0.51329
C         44.88231        54.25547         1.33690
C         43.62541        55.01403         1.44608
C         44.90398        57.13490         1.42576
C         43.71216        56.48308         1.43854
C         47.39250        44.38158        -0.49470
C         47.38671        45.79313        -0.45901
C         46.15721        46.54263        -0.64592
C         47.42836        48.64616         0.06785
C         46.22332        48.04864        -0.60941
C         47.41831        49.98680         0.47756
C         46.13555        50.65937         0.93097
C         47.40326        52.79621         1.08121
C         46.16597        52.17251         0.90179
C         47.45954        54.21799         1.49301
C         46.12273        54.98314         1.65198
C         47.40064        57.11820         1.57420
C         46.16276        56.44438         1.53819
C         47.46593        58.54819         1.63894
C         49.81940        44.31711        -0.31467
C         48.57211        43.65897        -0.40785
C         49.82739        45.73000        -0.24403
C         48.62562        46.48238        -0.28387
C         49.85753        48.59933         0.25530
C         48.64580        47.92317        -0.03950
C         49.86174        49.94424         0.64637
C         48.64224        50.66107         0.74618
C         49.90716        52.78754         1.02385
C         48.64513        52.08480         0.98529
C         49.90244        54.29786         0.78716
C         48.66291        55.00359         1.27311
C         49.89621        57.13565         1.42450
C         48.65170        56.38946         1.44337
C         49.90086        58.52276         1.53596
C         48.66159        59.22049         1.62911
C         52.34931        41.47875        -0.49198
C         51.13557        42.20316        -0.51053
C         52.31296        44.28199        -0.01747
C         51.08129        43.57753        -0.28224
C         52.37046        45.67486        -0.01311
C         51.12545        46.43280        -0.25102
C         52.40958        48.58174         0.34773
C         51.13806        47.91793        -0.00213
C         52.41060        49.93405         0.68462
C         51.12555        50.58342         1.17122
C         52.40165        52.77582         1.18149
C         51.09916        52.08643         1.03696
C         52.40720        54.25641         1.31487
C         51.14423        55.02525         1.24972
C         52.41199        57.14854         1.32122
C         51.15655        56.39216         1.41426
C         52.39245        58.50632         1.17646
C         51.21858        59.23793         1.79066
C         52.31147        61.37434         1.09794
C         51.23621        60.72053         1.55370
C         54.82215        39.93751        -0.16183
C         54.81353        41.34861        -0.11034
C         53.54865        42.06521        -0.11286
C         54.88415        44.24827         0.20738
C         53.53012        43.49093         0.23075
C         54.82323        45.68213        -0.05918
C         53.61944        46.39732         0.00921
C         54.84171        48.55110         0.25901
C         53.62768        47.85633         0.13641
C         54.87589        49.95285         0.54048
C         53.64416        50.65354         0.71881
C         54.87881        52.77199         0.72383
C         53.67132        52.07445         0.84465
C         54.90159        54.25133         0.67337
C         53.64411        54.99918         0.92644
C         54.96844        57.14872         1.07047
C         53.71710        56.39270         1.48752
C         54.87565        58.58361         0.66533
C         53.49229        59.18700         0.37186
C         54.79278        61.46045         0.31661
C         53.49069        60.71532         0.48270
C         54.98371        62.75951         0.99973
C         57.23155        39.90608        -0.43788
C         56.00422        39.22735        -0.30674
C         57.26225        41.30415        -0.32985
C         56.06329        42.04713        -0.14765
C         57.34682        44.17746        -0.16046
C         56.12419        43.49070        -0.08256
C         57.37208        45.63343        -0.14370
C         56.09108        46.36424        -0.31165
C         57.36385        48.44997         0.41401
C         56.09469        47.86360        -0.08401
C         57.36373        49.89906         0.79107
C         56.11071        50.66854         0.63569
C         57.37662        52.82099         0.70625
C         56.12835        52.07644         0.67200
C         57.40576        54.23001         0.64159
C         56.18714        54.98718         0.72054
C         57.41062        57.10501         0.43686
C         56.19834        56.37962         0.74579
C         57.38044        58.52577         0.13452
C         56.07994        59.20458         0.01884
C         57.33487        61.45705        -0.15233
C         56.05677        60.72560        -0.09055
C         57.26025        62.88976         0.10259
C         56.16029        63.40923         0.90650
C         59.65061        37.35968        -1.86894
C         58.48181        37.92382        -1.46420
C         59.83085        39.77647        -0.35814
C         58.49121        39.11350        -0.60399
C         59.80174        41.26371        -0.11368
C         58.56990        42.00592        -0.62400
C         59.81630        44.14703        -0.22999
C         58.59545        43.47216        -0.27769
C         59.86517        45.61207         0.12282
C         58.56024        46.32953        -0.10974
C         59.78724        48.48040        -0.16282
C         58.61814        47.77590         0.00779
C         59.91644        49.88347         0.29437
C         58.68636        50.60079         0.81909
C         59.95427        52.83935         0.58721
C         58.64930        52.10201         0.87913
C         59.86720        54.27384         0.29142
C         58.64354        54.95770         0.44805
C         59.81265        57.08246        -0.27706
C         58.59711        56.38170         0.27783
C         59.82583        58.57469        -0.05967
C         58.56263        59.26365        -0.10376
C         59.82995        61.36099        -0.38898
C         58.54500        60.71613        -0.28532
C         59.95629        62.72005        -0.81339
C         58.14714        63.78745        -0.47994
C         59.67617        65.71704        -0.41593
C         58.45634        65.16157        -0.15992
C         62.98077        35.40540        -1.08831
C         62.90523        36.81778        -1.20335
C         60.92666        37.94386        -1.55023
C         62.36463        39.79952        -0.65212
C         61.07768        39.13920        -0.86962
C         62.32355        41.28624        -0.59400
C         61.08882        42.01135        -0.16324
C         62.29632        44.21619        -0.33484
C         61.07975        43.48987        -0.31436
C         62.32314        45.61285        -0.53178
C         61.01112        46.29993        -0.59128
C         62.25012        48.54432        -1.04362
C         60.96574        47.78508        -0.73817
C         62.24917        49.97017        -0.53464
C         61.13315        50.65337        -0.09709
C         62.29401        52.83893        -0.15255
C         61.15098        52.09287         0.11551
C         62.34673        54.26228         0.06515
C         61.10594        54.99803         0.16220
C         62.28786        57.15504         0.40060
C         61.08243        56.39067         0.12254
C         62.31424        58.60604         0.19777
C         61.04735        59.26546         0.00940
C         62.27330        61.42086         0.02408
C         61.05363        60.69583        -0.10075
C         62.20975        62.89363         0.06052
C         61.01550        63.53672        -0.48995
C         62.26173        65.79048        -0.67960
C         60.94001        65.00364        -0.74660
C         62.28815        67.25336        -0.55557
C         64.88351        35.59203         0.41640
C         63.93730        34.80781        -0.28314
C         64.72949        37.04916         0.37432
C         63.69964        37.68020        -0.45849
C         64.81484        39.92049        -0.26269
C         63.58898        39.14334        -0.48803
C         64.82927        41.29528        -0.38550
C         63.59522        42.07122        -0.55959
C         64.82029        44.27401        -0.40707
C         63.58394        43.49768        -0.00640
C         64.80069        45.64443        -0.58638
C         63.53226        46.36826        -0.61405
C         64.77346        48.50146        -0.76761
C         63.53859        47.78035        -0.72393
C         64.78498        49.92976        -0.79342
C         63.50308        50.67570        -0.85647
C         64.80250        52.85739        -0.49970
C         63.50802        52.18191        -0.66844
C         64.79982        54.24204        -0.23387
C         63.58559        54.93908        -0.00471
C         64.81136        57.19565         0.04465
C         63.63139        56.37854         0.32745
C         64.78346        58.56759         0.20131
C         63.52928        59.30816         0.25357
C         64.74165        61.52202         0.11840
C         63.52412        60.76364         0.16715
C         64.78028        62.92750        -0.00180
C         63.52661        63.69127         0.04934
C         64.73092        65.80619        -0.28433
C         63.52197        65.09768        -0.35378
C         64.73105        67.23994        -0.32663
C         63.46291        67.91865        -0.40488
C         67.22093        33.07801         2.00164
C         66.07972        33.65960         1.46302
C         67.24686        35.79420         1.13976
C         66.03733        35.01835         1.04240
C         67.27182        37.13701         0.80745
C         66.04396        37.89484         0.61572
C         67.29238        39.88102        -0.16559
C         66.08628        39.25384         0.05028
C         67.32691        41.28458        -0.63053
C         66.09458        42.05325        -0.28136
C         67.33554        44.25588        -0.76961
C         66.10238        43.54964        -0.35660
C         67.27632        45.64014        -0.91607
C         66.04206        46.37718        -0.77085
C         67.27829        48.52549        -0.92507
C         66.03092        47.78283        -0.82438
C         67.27473        49.95864        -0.84619
C         65.99952        50.66878        -0.76210
C         67.24909        52.83653        -0.80178
C         65.98404        52.09035        -0.64408
C         67.27973        54.31913        -0.67019
C         66.08426        55.00946        -0.03317
C         67.31798        57.14652        -0.30282
C         65.98448        56.46383        -0.56704
C         67.35878        58.59311         0.05379
C         66.06567        59.32172         0.29390
C         67.27177        61.54638        -0.14262
C         66.04064        60.82080         0.21227
C         67.26319        62.93396        -0.16691
C         66.00500        63.65721        -0.11222
C         67.19466        65.83332        -0.19246
C         65.98599        65.08717        -0.16830
C         67.20140        67.25091        -0.09359
C         65.95209        67.95912        -0.17593
C         67.13165        70.06380         0.17908
C         65.96843        69.37966        -0.09824
C         69.69158        31.78673         2.94367
C         69.69188        33.12982         2.46017
C         68.47977        33.72362         1.98392
C         69.83344        35.81376         1.40344
C         68.52299        35.05959         1.36735
C         69.81179        37.30112         1.24984
C         68.52893        37.92483         0.84151
C         69.89953        39.92199        -0.04160
C         68.57735        39.18388         0.03994
C         69.88501        41.37593        -0.34338
C         68.61971        42.03674        -0.74908
C         69.78547        44.19651        -0.95547
C         68.59034        43.53216        -0.80411
C         69.80732        45.61929        -1.32423
C         68.49348        46.38691        -1.27779
C         69.75578        48.54570        -1.05137
C         68.50539        47.85032        -1.07298
C         69.75814        49.97298        -0.92029
C         68.50695        50.64374        -0.83738
C         69.80456        52.87099        -0.49716
C         68.51855        52.09772        -0.57967
C         69.77532        54.35449        -0.63734
C         68.58882        55.02560        -0.61365
C         69.82375        57.21764        -0.58934
C         68.54584        56.50281        -0.92960
C         69.77159        58.66533        -0.51535
C         68.59368        59.33825        -0.28152
C         69.76806        61.53935        -0.12710
C         68.51730        60.81695        -0.59897
C         69.74776        63.01556        -0.17356
C         68.51333        63.66742        -0.27384
C         69.78836        65.90334        -0.08544
C         68.46454        65.12042        -0.38541
C         69.67367        67.28926         0.38126
C         68.41378        67.98185         0.20599
C         69.51214        70.12764         0.94230
C         68.34971        69.37937         0.40110
C         69.65925        71.56910         0.70421
C         72.04543        31.91506         3.48558
C         70.83047        31.19292         3.44195
C         72.09165        33.21324         3.02684
C         70.93650        33.86524         2.50203
C         72.16991        36.02992         2.10892
C         71.01074        35.22134         2.05639
C         72.23929        37.31782         1.57425
C         71.10910        38.00487         1.06238
C         72.27065        40.16617         0.65410
C         71.11158        39.33779         0.60027
C         72.25015        41.47479         0.23222
C         71.04294        42.10919        -0.21855
C         71.95652        44.45043         0.12932
C         71.13443        43.52876        -0.74887
C         71.95378        45.76868        -0.09656
C         71.14242        46.34887        -1.23791
C         72.19229        48.57721        -1.09668
C         71.00261        47.85507        -1.11079
C         72.19924        49.97201        -1.00534
C         71.00605        50.69812        -0.91070
C         72.18228        52.90761        -1.06706
C         71.04978        52.15225        -0.82926
C         72.18946        54.32978        -0.97592
C         71.03831        55.07196        -0.76035
C         72.26792        57.28675        -0.60559
C         71.02565        56.52611        -0.64895
C         72.27813        58.62860        -0.74047
C         71.01619        59.43656        -0.94152
C         72.28611        61.64960        -0.34879
C         71.07800        60.81308        -0.24802
C         72.22972        62.98797        -0.12962
C         70.98464        63.71775        -0.01467
C         72.08525        65.80243         0.79201
C         70.98192        65.11530         0.22737
C         72.01383        67.15068         1.08232
C         70.81595        67.90348         0.91083
C         72.04414        70.11897         1.32000
C         70.79501        69.34479         1.27053
C         72.03288        71.47690         1.26660
C         70.83352        72.20703         0.95243
O         61.63519        65.37815        -1.98181
O         62.73615        63.49054         1.29002
O         69.13170        52.40176         0.72956
O         63.36617        51.58247        -2.00303
O         59.19277        38.97272         0.68728
O         69.40090        39.07903        -1.16597
O         44.46172        48.90214         1.15130
O         66.15510        60.10689         1.52739
O         57.25962        48.84437         1.81556
O         69.41888        35.11472         0.18096
O         59.49292        52.58498         1.96570
O         67.92744        41.48837        -1.94526
O         68.99541        38.04151         2.24445
O         66.27146        42.82009         0.97463
O         62.02063        37.32462        -2.17799
O         70.40180        60.92690         1.04257
O         59.63059        50.01309         1.74146
O         60.45004        41.63922         1.12205
O         65.01943        37.71497         1.63034
O         62.88502        41.89876        -1.82468
O         46.84697        54.44446         2.80606
O         62.99753        56.70090         1.59674
O         69.83465        69.69980         2.31286
O         42.66569        54.47992         2.46632
O         69.28539        65.69251        -1.44397
O         53.80415        61.42053        -0.77263
O         54.04251        54.80910        -0.44716
O         67.12750        53.70940        -1.99971
O         52.52659        53.43993         2.52496
O         40.93780        51.24592        -2.20114
O         55.83184        59.85473        -1.25771
O         70.86407        59.71767        -2.32948
O         55.18604        58.25436         2.04959
O         67.54419        57.52191         1.08181
O         51.21743        47.38131        -1.38016
O         58.89957        63.26800        -1.55048
O         60.61885        46.88698        -1.86948
O         54.23804        43.83701         1.45874
O         56.12133        47.32157        -1.43539
O         69.09258        45.94084        -2.55886
O         46.38195        48.46355        -2.01415
H         47.22242        48.08095        -2.34505
O         59.72416        56.90458        -1.74814
H         58.89438        57.33785        -2.04399
O         71.85550        46.10045        -2.47212
H         71.18866        46.11231        -3.19286
O         53.19688        58.85260        -1.00452
H         53.62652        59.54874        -1.55904
O         58.73230        41.91304        -2.08508
H         58.04991        42.47963        -2.50363
O         63.61858        43.38227         1.44532
H         64.54509        43.13754         1.69377
O         51.41971        59.11920         3.24568
H         51.40358        58.16415         3.47264
O         39.74292        52.73459         1.77257
H         40.47556        53.16630         2.26388
O         46.10548        50.37939         2.36903
H         45.58042        49.55070         2.48287
O         51.12976        50.30831         2.61925
H         50.45678        50.88406         3.04126
O         71.79851        43.41905        -2.03344
H         71.22356        42.89120        -2.62608
O         66.31171        55.04683         1.39207
H         66.75950        55.88988         1.63825
O         68.39552        56.60009        -2.39051
H         68.97784        57.32127        -2.71643
O         44.42254        51.37077        -1.54459
H         43.70305        51.72757        -2.10906
O         62.31106        48.70988        -2.49231
H         61.83322        47.94011        -2.88341
O         68.48911        60.90837        -2.05508
H         69.36433        60.51087        -2.38057
O         60.17509        45.70517         1.54140
H         59.54519        45.14351         2.03972
O         53.81157        56.20164         2.92557
H         54.16397        57.04034         3.30193
O         49.92002        54.40820        -0.68392
H         50.00680        55.35840        -0.91334
O         65.72165        56.43403        -1.98093
H         66.55946        56.20040        -2.45244
H         37.61078        49.74033        -2.19820
H         35.44596        50.90050        -1.85651
H         37.43988        53.93615         0.47661
H         35.35538        53.00342        -0.50145
H         39.15331        48.48704        -1.64805
H         39.19401        55.06362        -0.20939
H         41.23742        47.24691        -1.59123
H         41.24542        56.20553         0.51880
H         44.89447        44.92098        -1.28621
H         42.95372        46.30166        -1.83163
H         44.89773        58.23239         1.38492
H         42.78021        57.06355         1.45922
H         46.44309        43.83764        -0.59102
H         46.53992        59.12868         1.74170
H         48.52390        42.56231        -0.43175
H         48.65836        60.31504         1.71691
H         52.31786        40.41733        -0.77402
H         50.21977        41.65210        -0.76172
H         52.27366        62.47062         1.01243
H         50.38560        61.30482         1.93381
H         53.87736        39.38413        -0.07788
H         54.14875        63.20010         1.56058
H         55.98113        38.12931        -0.33323
H         56.28316        64.39786         1.37228
H         59.64551        36.47660        -2.52238
H         57.52129        37.53432        -1.83118
H         59.77172        66.79600        -0.21941
H         57.67214        65.79478         0.28379
H         62.30425        34.78969        -1.69477
H         61.35759        67.82264        -0.68370
H         64.01089        33.71193        -0.25318
H         63.43442        69.01518        -0.36232
H         67.13444        32.05919         2.40317
H         65.15418        33.06751         1.43427
H         67.09096        71.15540         0.29185
H         65.03984        69.95303        -0.21000
H         68.76357        31.20056         2.91220
H         68.81108        72.13579         0.29448
H         72.95187        31.43642         3.88089
H         70.79847        30.15565         3.80258
H         73.04717        33.75361         3.06026
H         73.09353        35.61525         2.53662
H         73.21871        37.81667         1.57183
H         73.21092        39.74709         1.03845
H         73.17708        42.06358         0.25300
H         72.54190        44.02584         0.95885
H         72.54837        46.44774         0.53352
H         73.14520        48.03503        -1.16750
H         73.16544        50.49319        -0.99062
H         73.12997        52.41734        -1.32997
H         73.15180        54.83879        -1.12210
H         73.21967        56.74360        -0.51091
H         73.24327        59.15343        -0.79812
H         73.24983        61.17884        -0.59045
H         73.16219        63.56965        -0.16644
H         73.00841        65.25348         1.02263
H         72.89217        67.63758         1.52599
H         73.00491        69.58955         1.38751
H         72.97676        72.03480         1.34457
H         70.90932        73.29280         0.79895
