         598
 CSIRO Nanostructure Databank - Neutral Graphene Oxide Data Set
C         23.09592        70.10858        -0.74336
C         23.10904        71.49039        -0.92978
C         21.92404        72.24962        -1.04356
C         23.16154        74.35227        -1.04341
C         21.96281        73.64964        -1.13391
C         25.47173        65.80416        -0.24412
C         25.47379        67.21256        -0.24906
C         24.27553        67.96687        -0.43476
C         25.55167        70.07881        -0.40731
C         24.29809        69.35770        -0.55790
C         25.59121        71.47619        -0.52270
C         24.42387        72.18785        -1.12526
C         25.59673        74.33782        -0.69056
C         24.40299        73.66950        -0.90426
C         27.87703        61.38609         0.11008
C         27.77186        62.82335         0.35987
C         26.59597        63.62883         0.02723
C         27.93431        65.71467         0.08230
C         26.65207        65.01813        -0.04403
C         27.95546        67.17594        -0.16486
C         26.71351        67.93273        -0.14227
C         27.96851        70.06797         0.13257
C         26.75554        69.34522        -0.15151
C         27.91531        71.48615         0.22124
C         26.76977        72.19596        -0.18777
C         27.98974        74.35007        -0.13316
C         26.81372        73.65118        -0.33129
C         30.24045        57.08003         0.56089
C         30.31507        58.57961         0.43492
C         29.12876        59.26670         0.28828
C         30.34885        61.38512         0.37134
C         29.08509        60.69832         0.28453
C         30.33915        62.83905         0.18784
C         29.09293        63.58433         0.51570
C         30.36919        65.73692         0.77849
C         29.10295        65.04597         0.31445
C         30.44479        67.20392         0.49809
C         29.26417        67.94301         0.07534
C         30.38096        70.02878         0.78128
C         29.20345        69.38066         0.36174
C         30.32233        71.47470         1.10263
C         29.05917        72.22046         0.78614
C         30.47300        74.34843         0.51688
C         29.13839        73.73168         0.54392
C         32.76160        52.88360         0.42438
C         32.80656        54.26746         0.43111
C         31.58844        55.02475         0.33294
C         32.80154        57.12564         0.64838
C         31.57708        56.38906         0.48612
C         32.80159        58.54796         0.66786
C         31.57153        59.26569         0.52712
C         32.83456        61.41859         0.53693
C         31.57075        60.69478         0.44499
C         32.86395        62.80765         0.49057
C         31.66557        63.58459         0.18791
C         32.84768        65.72618         0.50447
C         31.66542        65.04301         0.45424
C         32.88664        67.16460         0.70597
C         31.63794        67.89142         0.70582
C         32.87371        70.00594         0.96648
C         31.62466        69.33091         0.82697
C         32.90225        71.47152         1.23620
C         31.61043        72.24485         1.23664
C         32.90958        74.34383         0.70595
C         31.63899        73.68336         0.84407
C         35.25958        48.47393         0.07595
C         34.80428        49.70351         0.61026
C         33.91674        50.67013         0.18468
C         35.25143        52.74290         0.72851
C         33.89191        52.01625         0.90756
C         35.30294        54.25716         0.58903
C         34.03501        55.00052         0.61528
C         35.28903        57.11452         0.87934
C         34.03675        56.39700         0.71818
C         35.28631        58.54173         0.86879
C         34.05714        59.26520         0.75393
C         35.32183        61.40042         0.70444
C         34.06866        60.68304         0.70673
C         35.36288        62.81257         0.68606
C         34.08678        63.58730         0.90537
C         35.37415        65.71098         0.55120
C         34.11579        64.95431         0.21027
C         35.36708        67.12242         0.62921
C         34.10140        67.86643         0.69677
C         35.34006        70.04116         0.61170
C         34.07612        69.29790         0.81901
C         35.42247        71.50612         0.79927
C         34.17873        72.23979         1.10092
C         35.37953        74.34820         0.59715
C         34.14071        73.69615         0.81210
C         37.80587        44.30086        -0.07134
C         37.78631        45.71777         0.14844
C         36.59087        46.46845         0.08693
C         37.71040        48.50426         0.91467
C         36.50904        47.84454         0.42050
C         37.79011        49.92093         1.19896
C         36.60845        50.73647         1.35963
C         37.79128        52.82505         0.85092
C         36.53349        52.07680         1.09210
C         37.77684        54.29537         1.04903
C         36.55338        54.98952         0.91363
C         37.73999        57.13977         1.47108
C         36.50260        56.39792         1.03058
C         37.77445        58.57268         1.01478
C         36.54664        59.25559         0.86212
C         37.79587        61.36525         0.59373
C         36.55379        60.67219         0.70904
C         37.81205        62.80057         0.54742
C         36.58928        63.51650         0.61453
C         37.80681        65.68697         0.69662
C         36.58353        64.98505         0.61939
C         37.83326        67.10085         0.65657
C         36.60679        67.80199         0.65922
C         37.90506        69.98851         0.74949
C         36.61526        69.27104         0.51419
C         37.90760        71.49175         0.73604
C         36.60102        72.19236         0.68416
C         37.83587        74.28794         0.36004
C         36.60563        73.64320         0.58326
C         40.29361        40.03953        -0.50247
C         40.25953        41.42574        -0.27718
C         39.03133        42.14196        -0.19597
C         40.28068        44.26750        -0.03309
C         38.98902        43.54665        -0.07004
C         40.26683        45.74782         0.29198
C         38.98311        46.42401         0.45563
C         40.21930        48.43296         1.10035
C         38.96197        47.78897         0.84378
C         40.23480        49.84347         1.47903
C         39.00085        50.59853         1.28791
C         40.33139        52.76183         1.35901
C         39.07163        52.04704         1.08432
C         40.25276        54.22890         1.68120
C         39.01194        54.99122         1.23617
C         40.25388        57.14310         1.26605
C         39.02972        56.39055         1.25943
C         40.27200        58.52627         1.03712
C         39.01454        59.25577         0.87450
C         40.26855        61.33718         0.11170
C         39.01579        60.63591         0.58323
C         40.29512        62.82279         0.42449
C         39.08537        63.48993         0.57494
C         40.36775        65.71188         0.53680
C         39.06891        64.94333         0.80984
C         40.29454        67.13643         0.18284
C         39.08763        67.82046         0.41631
C         40.25892        69.93323        -0.04921
C         39.10629        69.23242         0.35192
C         40.29254        71.38894         0.13298
C         39.16707        72.19992         0.40936
C         40.17701        74.47724        -0.19959
C         39.10262        73.64154         0.25358
C         42.81199        35.85653        -1.27944
C         42.77940        37.24879        -1.04078
C         41.55089        37.94423        -0.88769
C         42.76759        40.03905        -0.50452
C         41.52007        39.32578        -0.62923
C         42.75359        41.42694        -0.20036
C         41.51827        42.12917        -0.10392
C         42.74516        44.19034         0.43736
C         41.53684        43.51054         0.15891
C         42.69299        45.55243         1.10005
C         41.48892        46.38035         0.77428
C         42.74288        48.47783         1.09266
C         41.47384        47.74740         1.04914
C         42.75907        49.85846         1.16276
C         41.54791        50.60627         1.51596
C         42.80085        52.79133         1.37266
C         41.52959        52.08886         1.40269
C         42.75599        54.25090         1.36880
C         41.54912        54.93828         1.41069
C         42.83658        57.14246         1.16683
C         41.51709        56.40196         1.47991
C         42.74819        58.54135         0.76605
C         41.52795        59.25356         0.84493
C         42.77024        61.39890         0.48840
C         41.52618        60.63799         0.53687
C         42.79905        62.81808         0.09471
C         41.54687        63.54701         0.26808
C         42.76889        65.68886        -0.13373
C         41.54848        64.93274         0.18173
C         42.62302        67.06720        -0.64164
C         41.43166        67.81029        -0.37914
C         42.42777        69.99967        -1.36952
C         41.38649        69.23003        -0.54652
C         42.61703        71.40071        -0.76811
C         41.59622        71.93453         0.05323
C         42.66270        74.64302        -0.82121
C         41.53102        74.14664        -0.14975
C         45.29052        33.09596        -1.79710
C         44.07323        33.76221        -1.65753
C         45.27144        35.88615        -1.34493
C         44.03531        35.16459        -1.42766
C         45.26186        37.28856        -1.12000
C         44.01888        37.97335        -0.95983
C         45.23861        40.11079        -0.64739
C         44.00683        39.37119        -0.69642
C         45.21430        41.47424        -0.31155
C         43.98241        42.13852        -0.06457
C         45.23581        44.18997         0.56947
C         43.97563        43.51994         0.30088
C         45.19746        45.53133         1.18399
C         43.96847        46.32668         1.00902
C         45.24388        48.41330         1.12755
C         43.99851        47.72622         1.02650
C         45.30976        49.84947         0.89727
C         43.97493        50.63088         0.89463
C         45.27565        52.73787         1.11035
C         43.99706        52.08377         1.16934
C         45.26321        54.20872         1.17718
C         43.98562        54.96054         1.09014
C         45.15684        56.92374         0.12250
C         43.99653        56.31443         0.82302
C         45.14236        58.37658        -0.21751
C         43.91536        59.16991         0.12612
C         45.23338        61.28308        -0.35447
C         44.08617        60.63122         0.28653
C         45.21498        62.67529        -0.60704
C         43.98224        63.41863        -0.32404
C         45.11313        65.55621        -1.17851
C         44.02517        64.89422        -0.42658
C         45.05076        66.90419        -1.40601
C         43.76880        67.67256        -1.30922
C         45.05856        69.84025        -1.65699
C         43.73540        69.17259        -1.63396
C         45.20894        71.18769        -1.88510
C         43.47613        72.33650        -1.34684
C         45.06929        74.19491        -1.31540
C         43.75402        73.74756        -1.08755
C         46.49891        33.78707        -1.71510
C         47.72806        35.91130        -1.39909
C         46.51609        35.19064        -1.48970
C         47.73711        37.30746        -1.18707
C         46.49332        38.01155        -1.05663
C         47.71981        40.13162        -0.86231
C         46.49506        39.42654        -0.87613
C         47.72635        41.60517        -0.82846
C         46.43782        42.29592        -0.42170
C         47.71368        44.26765         0.60961
C         46.45524        43.61999         0.25858
C         47.75805        45.51152         1.22557
C         46.48489        46.21495         1.52660
C         47.75443        48.49065         1.72857
C         46.45755        47.72002         1.61006
C         47.75066        49.93906         1.37093
C         46.56551        50.60277         1.11626
C         47.75679        52.78176         0.87050
C         46.50158        52.05345         1.02136
C         47.76442        54.15261         0.65957
C         46.54855        54.92798         0.88998
C         47.72993        56.97282        -0.10765
C         46.47811        56.24252         0.19469
C         47.63199        58.35986        -0.50609
C         46.41881        59.08852        -0.43063
C         47.52164        61.14507        -1.25920
C         46.37967        60.50060        -0.68451
C         47.58727        62.58888        -1.43223
C         46.37939        63.31098        -1.14661
C         47.58008        65.46357        -1.93091
C         46.29318        64.73563        -1.55136
C         47.57642        66.96509        -1.94354
C         46.26610        67.67505        -1.77672
C         47.56498        69.82229        -1.38001
C         46.27095        69.07190        -1.18847
C         47.55130        71.24164        -1.28936
C         46.33380        71.96934        -1.49564
C         47.49119        74.07727        -1.09784
C         46.27907        73.40408        -1.36456
C         48.95473        38.02932        -1.06795
C         50.20561        40.12630        -0.71888
C         48.96252        39.41798        -0.88880
C         50.25652        41.47901        -0.43679
C         49.04741        42.36964        -0.67727
C         50.27377        44.08768         0.73411
C         48.95791        43.46990         0.39704
C         50.31343        45.49105         1.25117
C         49.03105        46.20167         1.59125
C         50.31654        48.43207         1.31595
C         49.09082        47.73653         1.91856
C         50.35840        49.91903         1.39573
C         49.02228        50.69394         1.40785
C         50.22179        52.73724         0.59704
C         49.01599        52.07786         0.92499
C         50.22412        54.13088         0.25828
C         49.03223        54.96082         0.62261
C         50.14756        56.91124        -0.57390
C         48.93835        56.29295        -0.10630
C         50.05705        58.25493        -1.22112
C         48.75896        58.97164        -1.11879
C         50.34202        61.27886        -1.88549
C         48.54383        60.24523        -1.67210
C         50.14452        62.66518        -1.64394
C         48.84517        63.30960        -1.68119
C         50.04500        65.52173        -1.76574
C         48.86247        64.75321        -1.73578
C         50.03777        66.97260        -1.76332
C         48.84459        67.68991        -1.68564
C         49.99584        69.86568        -1.25210
C         48.79871        69.12823        -1.46465
C         49.96879        71.24870        -0.95189
C         48.75194        71.95909        -1.04983
C         49.91418        74.07436        -0.59568
C         48.72542        73.39492        -0.92300
C         51.49295        42.14911        -0.19909
C         52.74258        44.19896         0.34465
C         51.53353        43.48177         0.22426
C         52.77500        45.57290         0.65635
C         51.45322        46.30911         0.66005
C         52.80407        48.46544         1.20321
C         51.47635        47.75123         1.09285
C         52.75259        49.88817         0.69810
C         51.52789        50.61734         0.82819
C         52.63925        52.69698         0.11077
C         51.45904        51.99448         0.51034
C         52.61656        54.06610        -0.15448
C         51.38732        54.80059        -0.12703
C         52.62848        56.89828        -0.71137
C         51.36664        56.21702        -0.48225
C         52.59638        58.38776        -0.80010
C         51.38908        59.05420        -1.38631
C         52.62966        61.28285        -1.14537
C         51.44143        60.53951        -1.43658
C         52.60066        62.70644        -1.31860
C         51.36723        63.38155        -1.48997
C         52.67251        65.55171        -1.76639
C         51.34224        64.81204        -1.81583
C         52.64402        67.05054        -1.78858
C         51.31080        67.74346        -1.86127
C         52.51378        69.89137        -0.95846
C         51.29801        69.22841        -1.50803
C         52.36457        71.23194        -0.42758
C         51.16676        71.94259        -0.54175
C         52.29073        74.08180         0.04728
C         51.12834        73.37890        -0.31888
C         53.97114        46.29920         0.57854
C         55.18128        48.40528         0.41394
C         54.00725        47.70704         0.68156
C         55.20790        49.83182         0.32275
C         53.93046        50.51647         0.32185
C         55.20902        52.65670        -0.13573
C         53.89477        51.93204        -0.06223
C         55.18261        54.13150         0.05726
C         53.87002        54.84992        -0.11466
C         55.13152        56.98115        -0.61973
C         53.83778        56.26605        -0.52414
C         55.17117        58.46264        -0.63301
C         53.87758        59.17453        -0.68732
C         55.09978        61.31182        -1.05479
C         53.88078        60.61819        -0.99446
C         55.10269        62.72352        -1.06184
C         53.84806        63.43860        -1.19737
C         55.06293        65.56713        -0.85317
C         53.85424        64.82958        -1.28107
C         55.02714        67.05620        -0.83324
C         53.84520        67.82168        -1.34011
C         54.94496        69.91066        -0.40116
C         53.72104        69.22625        -0.88281
C         54.81791        71.26254         0.22519
C         53.45335        71.84006         0.32791
C         54.76747        74.01618         0.79108
C         53.44043        73.38781         0.58644
C         56.42241        50.53275         0.22772
C         57.66031        52.69891         0.18690
C         56.48716        51.95136         0.12201
C         57.67133        54.13714         0.02096
C         56.45338        54.82865        -0.10340
C         57.56141        57.10431         0.21913
C         56.42483        56.26822        -0.36029
C         57.62646        58.48218        -0.44699
C         56.36594        59.12939        -0.78197
C         57.67749        61.28245        -1.39685
C         56.33999        60.51437        -1.41963
C         57.59305        62.77625        -1.30618
C         56.35042        63.43340        -1.04285
C         57.57859        65.55043        -0.80102
C         56.37032        64.85377        -0.90520
C         57.56503        67.03055        -0.67819
C         56.31141        67.81518        -0.78391
C         57.27662        69.75271         0.43608
C         56.20968        69.16682        -0.17208
C         57.19193        71.07359         1.12099
C         55.83201        71.78728         1.22714
C         57.17138        73.98603         1.30070
C         55.90801        73.31132         1.08426
C         58.87541        54.90154         0.05149
C         60.03106        57.08247         0.09029
C         58.88762        56.32089         0.06201
C         59.93451        58.54812         0.44650
C         58.81360        59.16357        -0.40054
C         60.28716        61.17793        -0.75470
C         58.97317        60.51680        -0.98348
C         60.60906        62.33152        -1.43935
C         58.72965        63.57325        -1.50485
C         60.08386        65.62315        -0.66359
C         58.86056        64.92626        -1.02288
C         59.94675        66.86251         0.18741
C         58.66278        67.61907         0.13289
C         59.86126        69.83775         0.69796
C         58.61964        69.10974         0.31067
C         59.78395        71.24603         1.13830
C         58.45130        71.85716         1.34761
C         59.62373        74.02534         1.67970
C         58.37632        73.33406         1.45102
C         61.25919        59.25576         0.37725
C         62.78118        61.19731         0.04523
C         61.39484        60.53362        -0.06042
C         62.84151        62.65278        -0.41215
C         61.80097        63.06045        -1.24506
C         62.56268        65.65430        -0.17906
C         61.43459        65.19888        -0.87928
C         62.48214        66.94830         0.52915
C         61.16255        67.61964         0.66536
C         62.26233        69.78711         1.23739
C         61.13237        69.09903         0.89272
C         62.19620        71.21487         1.66370
C         60.91339        71.94614         1.46587
C         62.07888        74.14179         2.13181
C         60.83042        73.36987         1.75140
C         63.89745        63.52467        -0.07923
C         64.99922        65.68310         0.29219
C         63.82300        64.94994        -0.07668
C         65.01618        67.07119         0.50252
C         63.71373        67.78402         0.48937
C         64.86637        69.86040         1.39272
C         63.60188        69.19373         0.96076
C         64.81280        71.30395         1.78503
C         63.46726        71.99510         1.92074
C         64.47065        74.20794         1.41131
C         63.39163        73.47280         1.75757
C         66.17991        67.85923         0.61467
C         67.24693        70.07808         0.70915
C         66.13366        69.25480         0.87563
C         67.20194        71.49585         0.88283
C         66.03053        72.14159         1.51465
C         66.86118        74.33423         0.51016
C         65.83666        73.63826         1.29133
C         68.22139        72.30727         0.38842
C         68.03649        73.70560         0.19300
O         53.08557        72.38229         1.60203
O         28.71062        73.15296         1.84024
O         38.02177        70.70751         2.01031
O         44.14803        71.89443        -2.47703
O         46.89917        48.25403         2.91361
O         46.83331        67.53378        -3.09436
O         46.88644        42.25985        -1.82402
O         38.58357        52.39538        -0.30805
O         39.90634        65.41162         1.90662
O         40.43116        45.23682        -1.12017
O         49.37397        43.00180        -1.88668
O         54.54746        52.22220        -1.36612
O         56.02219        56.51574        -1.74771
O         63.67402        68.87435        -0.49349
O         43.46639        68.21089        -2.70051
O         35.94037        69.69286        -0.72350
O         66.34609        73.09194         2.56814
O         45.62792        56.10972        -1.01345
O         43.83329        65.53849         0.89467
O         51.18281        46.40971        -0.73272
O         64.97625        70.25385         2.79242
O         35.48467        50.04288         1.81549
O         59.42576        69.75520        -0.74152
O         61.79809        66.92916         1.81990
O         52.13929        65.04887        -3.03724
O         55.25725        71.17752        -1.14957
O         41.86826        73.08258         0.75270
O         61.78144        64.28929        -1.91441
O         49.39556        60.65230        -2.69707
O         33.68315        71.83147         2.43557
O         40.92875        50.13181         2.76356
O         58.94753        66.78517         1.28548
O         57.81009        71.07954         2.45660
O         46.07374        54.82015         2.27102
O         43.71050        61.10781         1.59661
O         59.72483        62.98534        -2.29650
O         44.14500        58.70747        -1.25533
O         58.55842        60.68503        -2.38863
O         54.79844        66.33394         0.42031
O         53.59855        67.58807        -2.76204
O         28.82682        67.56054        -1.28992
O         54.47413        54.64271         1.24565
O         30.83450        71.86625         2.41614
O         46.72194        64.89545        -2.95161
O         57.32685        57.27901         1.57785
O         51.33924        68.76030        -2.90156
O         45.69566        45.56651         2.59582
O         42.35636        56.94207         2.54716
O         49.61000        43.13365         1.65077
O         30.96745        63.25345        -1.06958
O         62.69132        71.47116         3.03336
O         49.83460        50.50234         2.62347
O         50.78493        58.35096        -2.49249
O         52.99599        58.94452         0.49679
O         44.64028        50.26658        -0.35399
O         57.21823        67.71946        -1.92960
O         49.88145        45.54723         2.61947
O         24.63641        72.03211        -2.67415
O         28.39355        63.15085         1.69502
O         35.39791        53.35295        -0.58527
O         37.62369        57.21440         2.95872
H         36.80613        57.71958         3.15870
O         40.11337        54.24084         3.15530
H         40.17010        55.17523         3.45377
O         25.87496        72.67105        -3.00751
H         25.59390        73.55964        -3.33628
O         33.98019        63.86508         2.33550
H         34.05822        63.01536         2.81797
O         63.72376        60.42182        -0.71385
H         63.47319        60.46476        -1.65947
O         56.09171        60.23010        -2.83455
H         56.96465        60.01558        -3.23928
O         55.30297        71.47195         2.52703
H         56.05858        71.49256         3.15878
O         42.53083        45.23368         2.54650
H         43.42693        45.23096         2.95390
O         49.38290        47.84371         3.32842
H         48.53793        47.71667         3.81729
O         30.24958        65.63862         2.25751
H         31.07110        66.00884         2.64762
O         46.12843        68.85764         0.26083
H         46.25206        69.71960         0.71192
O         62.01621        75.47329         1.62215
H         61.92651        75.43233         0.64834
O         49.24778        55.37154         2.02603
H         49.28707        54.55853         2.57470
O         29.32775        56.53422        -0.40133
H         29.68001        56.71782        -1.29618
O         33.64676        51.84609         2.32517
H         34.19299        51.08001         2.62382
O         53.04169        48.55396         2.65096
H         52.19923        48.81877         3.08213
O         41.80932        70.20067        -2.66304
H         42.05491        69.42204        -3.21669
O         34.16439        64.68580        -1.21528
H         34.08510        65.53683        -1.69423
O         40.24594        61.24438        -1.36669
H         39.36232        61.54658        -1.66758
O         59.55042        58.67998         1.84030
H         58.67892        58.18646         1.96847
H         23.15125        75.45149        -1.00510
H         25.60070        75.43923        -0.67044
H         28.03429        75.42304        -0.37553
H         30.54399        75.38408         0.14889
H         32.89900        75.41774         0.46373
H         35.38725        75.43395         0.41822
H         37.81950        75.37991         0.22109
H         39.89691        75.43117        -0.67059
H         42.71197        75.67852        -1.18568
H         45.23515        75.27695        -1.18389
H         47.47486        75.17053        -0.96986
H         49.89391        75.16881        -0.48411
H         52.32552        75.17477        -0.07498
H         54.82646        75.11174         0.68754
H         57.15894        75.08720         1.32860
H         59.59757        75.11400         1.83891
H         62.08388        74.23077         3.25400
H         64.35568        75.29826         1.30003
H         66.67550        75.37070         0.19363
H         22.13132        69.57939        -0.70578
H         20.95328        71.73381        -1.01371
H         21.01839        74.20596        -1.21406
H         24.51225        65.27841        -0.36084
H         23.31879        67.43141        -0.52645
H         26.96754        60.82010        -0.14101
H         25.64491        63.11442        -0.17738
H         29.79778        56.84664         1.57093
H         28.18907        58.70060         0.21144
H         31.78292        52.39585         0.29328
H         30.63659        54.48943         0.20289
H         34.62079        47.94090        -0.64450
H         33.39225        50.56611        -0.77519
H         36.84387        43.78359        -0.20349
H         35.67328        45.95964        -0.24561
H         39.34729        39.48912        -0.61309
H         38.08673        41.58420        -0.28300
H         41.86595        35.29870        -1.34531
H         40.60647        37.38701        -0.97469
H         45.29741        32.01123        -1.97359
H         43.12854        33.20366        -1.72366
H         47.45125        33.24925        -1.82648
H         48.68381        35.37510        -1.49720
H         49.90862        37.48449        -1.12296
H         51.14007        39.54398        -0.75909
H         52.43730        41.59445        -0.32986
H         53.69041        43.67636         0.13304
H         54.90121        45.76896         0.31357
H         56.10529        47.84506         0.20071
H         57.36289        49.96475         0.29120
H         58.61887        52.18677         0.35719
H         59.81942        54.37341         0.26215
H         61.00566        56.64666        -0.18674
H         62.11872        58.75202         0.84467
H         63.11773        61.13729         1.11135
H         64.80784        63.08019         0.35446
H         65.94790        65.12897         0.35904
H         67.16085        67.39326         0.43449
H         68.17652        69.63882         0.31535
H         69.13042        71.83597        -0.01280
H         68.82427        74.26397        -0.33241
