         204
 CSIRO Nanostructure Databank - Neutral Graphene Oxide Data Set
C        -11.07311         0.65334        -0.26221
C         -9.83464         1.41548        -0.19496
C         -8.60689         0.68606         0.04395
C         -7.36271         1.42075         0.12405
C         -6.14739         0.73368         0.35334
C         -4.91577         1.42238         0.31811
C         -3.67537         0.69981         0.26229
C         -2.45369         1.40518         0.16262
C         -1.22888         0.67919         0.08515
C          0.02300         1.43821         0.15762
C          1.32692         0.70155        -0.07327
C          2.53189         1.45966        -0.47074
C          3.73079         0.75172        -0.69058
C          4.95446         1.49353        -0.79687
C          6.20891         0.79198        -0.59461
C          7.37018         1.47390        -0.30438
C          8.52792         0.80033         0.30841
C          9.81485         1.51913         0.38374
C         10.97961         0.75130         0.70203
C         -9.82681         2.77598        -0.40290
C         -8.54582         3.52327        -0.63994
C         -7.34619         2.82555        -0.05698
C         -6.15639         3.56192         0.17867
C         -4.91107         2.84768         0.32547
C         -3.66931         3.53193         0.35616
C         -2.45244         2.84262         0.21171
C         -1.21896         3.58114         0.03820
C         -0.02553         2.88556        -0.09734
C          1.20273         3.56198        -0.50783
C          2.50271         2.86898        -0.51775
C          3.69257         3.61874        -0.70324
C          4.92629         2.91070        -0.81194
C          6.20534         3.64453        -0.93022
C          7.48504         2.90390        -0.60622
C          8.68069         3.65531        -0.14389
C          9.83578         2.90561         0.21660
C         -8.57790         4.99956        -0.36350
C         -7.40672         5.70595        -0.10873
C         -6.18939         4.98478         0.17011
C         -4.99800         5.74231         0.53758
C         -3.65292         4.98069         0.59849
C         -2.43534         5.74260         0.34734
C         -1.22774         5.03984         0.07057
C         -0.02787         5.76377         0.00244
C          1.20424         5.09344        -0.42090
C          2.49979         5.74679        -0.25432
C          3.66089         5.06905        -0.53636
C          4.92222         5.84835        -0.60120
C          6.22815         5.13673        -0.79524
C          7.46687         5.81471        -0.33995
C          8.64098         5.05337        -0.09105
C         -7.37233         7.15148        -0.08374
C         -6.18995         7.87222         0.06297
C         -4.94442         7.18809         0.29612
C         -3.72549         7.87101         0.34930
C         -2.46576         7.15743         0.37080
C         -1.24369         7.88375         0.30937
C         -0.00554         7.17942         0.21073
C          1.22362         7.87800         0.25986
C          2.50295         7.09654         0.42467
C          3.74912         7.89808         0.16949
C          4.94069         7.24305        -0.11478
C          6.19742         7.92952        -0.05692
C          7.41523         7.20087        -0.12132
C         -6.14625         9.31677         0.00438
C         -4.96969         9.99787         0.12159
C         -3.70275         9.31530         0.26199
C         -2.49645        10.00460         0.30858
C         -1.23618         9.31794         0.34696
C         -0.00437         9.99393         0.38863
C          1.23507         9.29281         0.38830
C          2.48743         9.98402         0.49258
C          3.72086         9.31609         0.37666
C          4.97950        10.00729         0.38752
C          6.16712         9.33464         0.21511
C        -11.07991        -0.70291        -0.22464
C         -9.86599        -1.46945         0.00564
C         -8.61727        -0.72208         0.18201
C         -7.41376        -1.43926         0.37736
C         -6.14106        -0.71970         0.70913
C         -4.89526        -1.44578         0.27546
C         -3.66874        -0.73581         0.19464
C         -2.44523        -1.44172         0.01377
C         -1.20022        -0.72580        -0.01615
C          0.04435        -1.43065        -0.23320
C          1.25788        -0.73942        -0.35661
C          2.48377        -1.39757        -0.68952
C          3.67987        -0.69385        -0.77332
C          4.94156        -1.44920        -0.94005
C          6.23344        -0.68809        -0.69409
C          7.38042        -1.44558        -0.18257
C          8.52025        -0.71235         0.38807
C          9.80772        -1.41987         0.53167
C         10.97973        -0.62705         0.76855
C         -9.88411        -2.83599         0.09455
C         -8.68383        -3.58823         0.61260
C         -7.39032        -2.85973         0.33430
C         -6.19027        -3.54370         0.14597
C         -4.93052        -2.84105         0.10503
C         -3.70038        -3.56090        -0.04994
C         -2.46237        -2.86889        -0.07483
C         -1.22939        -3.59736        -0.19403
C          0.03357        -2.88506        -0.36582
C          1.19335        -3.57127        -0.65273
C          2.45146        -2.85695        -1.08307
C          3.72173        -3.59524        -0.69199
C          4.93741        -2.90578        -0.67257
C          6.17224        -3.58208        -0.43234
C          7.38495        -2.83544        -0.18205
C          8.59943        -3.54507         0.20336
C          9.80586        -2.80085         0.45350
C         -8.63468        -5.06271         0.31893
C         -7.47078        -5.72746         0.07211
C         -6.21865        -4.97567        -0.32185
C         -4.93725        -5.71756        -0.03092
C         -3.71632        -5.00092        -0.04087
C         -2.48467        -5.70864         0.02660
C         -1.24131        -4.99807        -0.12878
C         -0.02085        -5.75208        -0.27602
C          1.17877        -5.06327        -0.87902
C          2.48037        -5.74322        -0.52905
C          3.70439        -5.01365        -0.53682
C          4.95308        -5.70366        -0.42316
C          6.17375        -5.00239        -0.32265
C          7.39920        -5.70109         0.05213
C          8.57856        -4.92833         0.30956
C         -7.40506        -7.17052         0.05966
C         -6.19993        -7.85002         0.05132
C         -4.93790        -7.11905         0.04545
C         -3.70366        -7.82395         0.16746
C         -2.49212        -7.11572         0.17018
C         -1.20435        -7.81690         0.51883
C          0.01040        -7.11237        -0.03097
C          1.23681        -7.85068        -0.12501
C          2.47112        -7.14673        -0.30312
C          3.69424        -7.87878        -0.23845
C          4.94678        -7.16461        -0.46173
C          6.28750        -7.91887        -0.09376
C          7.40345        -7.07252         0.28753
C         -6.14529        -9.29100         0.11471
C         -4.96012        -9.96700         0.18533
C         -3.69299        -9.28105         0.21507
C         -2.48970        -9.97193         0.20888
C         -1.22216        -9.29950         0.21578
C         -0.02706        -9.97051         0.09891
C          1.23896        -9.26778         0.03921
C          2.46040        -9.95466         0.11752
C          3.69452        -9.26851         0.02530
C          4.93946        -9.93896         0.35044
C          6.13253        -9.29048         0.40826
O          5.56654         5.77878        -1.93357
O          8.16732         0.11004         1.56711
O          1.03393         4.40263        -1.70227
O          7.09069         3.19028        -1.99953
O         -6.08494        -0.74702         2.20334
H         -6.01571        -1.68998         2.46810
O         -1.09451        -7.71944         1.98631
H         -1.87504        -8.17612         2.36593
O         -4.37788         5.35162         1.81278
O          2.42898        -2.85655        -2.55002
H          2.04679        -3.72334        -2.83390
O          5.80237        -1.08795        -2.05765
O         -8.34290         3.44317        -2.12682
H         -7.50388         3.91324        -2.32384
O          0.88692         1.05634         1.29726
O          5.82771        -7.74382        -1.46716
O          2.55492         6.75565         1.87077
H          2.48486         7.59899         2.36782
O         -6.27398        -4.88285        -1.79453
H         -6.24254        -5.79903        -2.14349
O         -8.83058        -3.52971         2.08844
H         -8.94317        -2.58474         2.32964
O          1.03772        -5.23679        -2.35845
H          1.12675        -6.19661        -2.54573
H         11.92450        -1.15208         0.97404
H         11.92667         1.29135         0.85148
H         10.77644         3.44842         0.39908
H          9.54254         5.59048         0.24294
H          8.35219         7.73407         0.10372
H          7.11885         9.88439         0.26114
H          4.98317        11.09448         0.55460
H          2.47860        11.07785         0.61061
H          0.00612        11.09331         0.43680
H         -2.49939        11.10481         0.27583
H         -4.96503        11.09729         0.07724
H         -7.09032         9.86422        -0.13402
H         -8.31507         7.69429        -0.24920
H         -9.50686         5.54938        -0.57887
H        -10.77544         3.30129        -0.59409
H        -12.01164         1.20680        -0.41505
H        -12.02561        -1.25525        -0.33037
H        -10.83778        -3.37677        -0.00918
H         -9.55010        -5.63936         0.53021
H         -8.34387        -7.73830         0.15595
H         -7.09470        -9.84681         0.10623
H         -4.95673       -11.06657         0.22262
H         -2.50047       -11.07149         0.14650
H         -0.01901       -11.06885         0.01793
H          2.46077       -11.04121         0.29019
H          4.87529       -10.98489         0.68661
H          7.01620        -9.79376         0.82877
H          8.26336        -7.53030         0.79991
H          9.49606        -5.46000         0.60374
H         10.74287        -3.35833         0.60467
