         600
 CSIRO Nanostructure Databank - Neutral Graphene Oxide Data Set
C         23.07075        27.47371         0.90124
C         23.05667        28.85324         0.55132
C         23.04703        31.61253        -0.54849
C         23.05251        33.01631        -0.67137
C         23.02733        35.93868        -0.48858
C         23.02051        37.31791        -0.42089
C         23.01024        40.22553        -0.48202
C         23.00134        41.59916        -0.54050
C         22.99772        44.52800        -0.68672
C         23.01483        45.89751        -0.81959
C         25.46475        24.63317         1.19724
C         24.28676        25.33853         1.24380
C         25.55051        27.49258         0.91667
C         24.24479        26.74228         0.98093
C         25.44655        28.72060         0.03277
C         24.19460        29.50668         0.08845
C         25.49956        31.52133        -0.72108
C         24.21366        30.85919        -0.41855
C         25.50807        33.07856        -0.76976
C         24.22376        33.76882        -0.62390
C         25.47094        35.91203        -0.35363
C         24.23764        35.20794        -0.48206
C         25.45707        37.33819        -0.26412
C         24.22560        38.04927        -0.32475
C         25.42660        40.21066        -0.12824
C         24.22098        39.49865        -0.29879
C         25.42057        41.64891        -0.16730
C         24.19979        42.34906        -0.40625
C         25.43692        44.48459        -0.44229
C         24.20219        43.78563        -0.50475
C         25.45995        45.90601        -0.59510
C         24.24103        46.61455        -0.78928
C         25.46439        48.71081        -0.95162
C         24.27243        48.02972        -0.95014
C         28.00441        23.07808         0.85059
C         27.91035        24.48190         0.60580
C         26.71540        25.24945         0.82467
C         27.97987        27.30862         0.32729
C         26.76023        26.64334         0.60118
C         27.99622        28.75605         0.18778
C         26.76440        29.43100        -0.21883
C         27.95448        31.60385        -0.17121
C         26.77162        30.87993        -0.36539
C         27.95136        33.05468        -0.21785
C         26.75317        33.77997        -0.41310
C         27.93907        35.90438        -0.03215
C         26.72387        35.19612        -0.26814
C         27.90995        37.35217         0.06345
C         26.68515        38.06282        -0.08787
C         27.88143        40.19047         0.22647
C         26.67470        39.48812         0.01563
C         27.85263        41.67225         0.51511
C         26.63087        42.37719        -0.00955
C         27.90705        44.49225        -0.17986
C         26.65879        43.77131        -0.19860
C         27.92368        45.89783        -0.38679
C         26.69803        46.61731        -0.57087
C         27.95343        48.73243        -0.80179
C         26.71089        48.03003        -0.77868
C         28.03131        50.12580        -1.18660
C         30.32666        22.99240         0.09247
C         29.18577        22.37664         0.68739
C         30.13850        24.32009        -0.31350
C         29.07717        25.15019         0.11888
C         30.44648        27.31202         0.23338
C         29.19028        26.58762         0.13884
C         30.36676        28.72636         0.81685
C         29.15803        29.48451         0.33607
C         30.38917        31.63916         0.32732
C         29.17274        30.91004         0.17475
C         30.39595        33.03946         0.17558
C         29.17710        33.75929        -0.00537
C         30.39394        35.88652         0.37831
C         29.16601        35.19070         0.06739
C         30.31004        37.32307         0.68817
C         29.09363        38.07128         0.33901
C         30.36155        40.22621         0.44797
C         29.10292        39.49075         0.37727
C         30.35851        41.65709         0.25946
C         29.14417        42.37502         0.17739
C         30.38473        44.48094        -0.14002
C         29.14291        43.77513        -0.03739
C         30.39791        45.90089        -0.32036
C         29.16444        46.60779        -0.42126
C         30.41761        48.72957        -0.57738
C         29.17529        48.02890        -0.57618
C         30.40882        50.23200        -0.46436
C         29.18799        50.82384        -1.11996
C         32.89468        20.26584         0.20145
C         31.70725        20.94628         0.02391
C         32.87383        23.09412         0.14515
C         31.64565        22.36279         0.02121
C         32.93042        24.53536         0.24790
C         31.94098        25.36527        -0.23789
C         32.89850        27.39966         0.68927
C         31.70616        26.70976         0.21980
C         32.85420        28.79964         0.87467
C         31.64684        29.52181         0.71826
C         32.84174        31.68598         0.77965
C         31.63072        30.92876         0.62730
C         32.89807        33.06481         0.56329
C         31.69749        33.78535         0.00662
C         32.86063        35.94920         0.61286
C         31.62121        35.23349         0.43575
C         32.87205        37.36048         0.65078
C         31.61551        38.10261         0.80567
C         32.83228        40.23891         0.41722
C         31.58781        39.55089         0.54097
C         32.83673        41.64924         0.23571
C         31.60258        42.35582         0.14904
C         32.85142        44.47452        -0.13587
C         31.60922        43.77020        -0.03844
C         32.86287        45.87787        -0.36009
C         31.63374        46.60016        -0.43957
C         32.86880        48.73157        -0.85550
C         31.63595        48.03331        -0.58002
C         32.90906        50.13238        -1.04424
C         31.70469        50.89520        -0.87631
C         32.94611        52.95189        -1.23914
C         31.74254        52.27329        -0.95822
C         35.30620        18.92833         1.17720
C         35.34142        20.26214         0.73533
C         34.10779        20.96741         0.41751
C         35.35326        23.09596         0.51506
C         34.09730        22.37694         0.36890
C         35.36595        24.49028         0.69572
C         34.06072        25.17623         1.01281
C         35.34507        27.36322         0.96645
C         34.10564        26.67945         0.85070
C         35.36948        28.78044         1.10071
C         34.08915        29.48041         1.26200
C         35.36284        31.68339         1.09922
C         34.06849        31.00720         1.23189
C         35.34534        33.10260         0.93128
C         34.11991        33.79063         0.73239
C         35.32608        35.95531         0.73580
C         34.11538        35.23800         0.66306
C         35.32877        37.39513         0.66095
C         34.08717        38.09374         0.58438
C         35.30382        40.23516         0.42789
C         34.07399        39.52369         0.48793
C         35.30818        41.65795         0.28615
C         34.07899        42.35938         0.16600
C         35.32324        44.48452        -0.04341
C         34.08506        43.77148        -0.02072
C         35.33085        45.89238        -0.34603
C         34.11264        46.54904        -0.54382
C         35.41615        48.67050        -1.23862
C         34.07529        47.93331        -1.04785
C         35.39828        50.13591        -1.27646
C         34.15992        50.82784        -1.29073
C         35.39039        53.00002        -1.70003
C         34.13529        52.26183        -1.40392
C         35.46484        54.44782        -1.44275
C         37.68307        19.01184         1.56340
C         36.46717        18.32913         1.65577
C         37.82093        20.27875         0.95638
C         36.58857        20.95635         0.68392
C         37.82909        23.07412         0.53932
C         36.58981        22.37831         0.52357
C         37.81833        24.50126         0.55890
C         36.58564        25.21038         0.71792
C         37.80741        27.36125         0.78978
C         36.58765        26.64027         0.86868
C         37.83318        28.80611         0.94719
C         36.57810        29.51300         1.13170
C         37.83765        31.68127         1.44852
C         36.55430        30.94342         1.18313
C         37.81511        33.12674         1.02428
C         36.59789        33.82206         0.90996
C         37.80804        35.94983         0.80028
C         36.58878        35.24983         0.80597
C         37.81828        37.43466         1.06269
C         36.53827        38.13035         0.69002
C         37.79026        40.26873         0.50021
C         36.54472        39.53271         0.54428
C         37.79031        41.66504         0.41449
C         36.54116        42.38433         0.31143
C         37.77168        44.57822         0.51686
C         36.53247        43.78881         0.18740
C         37.80418        45.95988        -0.08692
C         36.60271        46.60783        -0.44006
C         37.85901        48.70471        -0.79931
C         36.64230        47.97739        -0.81962
C         37.86441        50.10217        -1.16524
C         36.67043        50.79571        -1.34320
C         37.95420        52.99268        -1.41682
C         36.70568        52.24046        -1.67505
C         37.92521        54.40206        -1.34389
C         36.65061        55.09125        -1.34227
C         40.56593        15.88983         0.28248
C         39.64068        16.49573         1.11555
C         40.46967        18.75566         0.49888
C         39.62665        17.89603         1.23386
C         40.33968        20.21189         0.46045
C         39.10524        20.92614         0.68238
C         40.27926        23.08311         0.26587
C         39.07169        22.34444         0.49464
C         40.25993        24.51195         0.19392
C         39.03175        25.23685         0.40768
C         40.18304        27.42938         0.08650
C         38.99595        26.65198         0.47138
C         40.26948        28.84526         0.48731
C         39.04726        29.51816         0.86923
C         40.26913        31.65892         0.90247
C         39.08462        30.95459         1.01752
C         40.29084        33.10567         0.86120
C         39.04378        33.81679         0.88564
C         40.27279        35.92689         0.56351
C         39.03558        35.23893         0.75875
C         40.22406        37.36174         0.24072
C         39.02782        38.14646         0.52768
C         40.29132        40.25732         0.31777
C         39.03939        39.52753         0.42459
C         40.28560        41.68389         0.36218
C         39.04065        42.40583         0.36640
C         40.27733        44.53393         0.29755
C         39.04901        43.80347         0.32152
C         40.27838        45.94839         0.14654
C         39.03894        46.65360        -0.12747
C         40.32254        48.76510        -0.43017
C         39.06864        48.03108        -0.45961
C         40.36666        50.08703        -0.83634
C         39.18424        50.76681        -1.50344
C         40.36955        52.99604        -1.14397
C         39.17323        52.27981        -1.29165
C         40.37170        54.42058        -1.07111
C         39.14543        55.13395        -1.18413
C         40.35520        57.25272        -1.05180
C         39.17562        56.56566        -1.16885
C         42.65526        16.06232        -1.00893
C         41.57356        16.68200        -0.31618
C         42.69785        18.85432        -0.58461
C         41.55644        18.10356        -0.17197
C         42.70092        20.26941        -0.37936
C         41.50480        20.94284         0.04642
C         42.70186        23.10016        -0.22312
C         41.49863        22.37591         0.04868
C         42.67462        24.52423        -0.24089
C         41.47351        25.21130        -0.06348
C         42.72597        27.43328        -0.11649
C         41.45907        26.68556        -0.21574
C         42.71877        28.82431         0.13660
C         41.48607        29.50711         0.45461
C         42.77520        31.68434         0.53575
C         41.57105        30.91136         1.00085
C         42.75690        33.08580         0.54453
C         41.50355        33.80579         0.68743
C         42.75113        35.95647         0.43071
C         41.49390        35.23524         0.53678
C         42.78323        37.36688         0.39688
C         41.55005        38.11904         0.14412
C         42.75617        40.26193         0.48001
C         41.52380        39.57158         0.33247
C         42.75264        41.68374         0.50466
C         41.51310        42.39291         0.42580
C         42.73436        44.53920         0.53577
C         41.51759        43.82561         0.41539
C         42.72995        45.96297         0.45324
C         41.50898        46.66346         0.18748
C         42.76621        48.77445         0.08378
C         41.54160        48.07475        -0.03816
C         42.84511        50.17273        -0.27053
C         41.66176        50.77630        -0.90383
C         42.87935        53.02867        -0.73380
C         41.66798        52.29102        -1.10595
C         42.85294        54.45399        -0.75266
C         41.60720        55.14287        -0.92541
C         42.82025        57.27209        -0.78440
C         41.59664        56.55929        -0.92243
C         43.75831        16.79080        -1.38124
C         45.07886        18.91131        -1.26880
C         43.84103        18.18638        -1.10666
C         45.11679        20.30230        -0.99486
C         43.90499        20.99439        -0.63588
C         45.16317        23.12616        -0.62535
C         43.91532        22.40293        -0.51389
C         45.16460        24.50863        -0.48599
C         43.89365        25.27902        -0.71428
C         45.14044        27.44576        -0.32326
C         43.94000        26.73334        -0.28757
C         45.16248        28.86619        -0.19026
C         43.95127        29.55161         0.09532
C         45.20266        31.69113         0.12506
C         43.97616        30.98032         0.25875
C         45.21296        33.11049         0.23334
C         43.98371        33.80720         0.38471
C         45.21760        35.94251         0.43196
C         43.98181        35.23573         0.42007
C         45.20638        37.35123         0.60410
C         44.00079        38.08067         0.56376
C         45.19383        40.25784         0.70425
C         43.99642        39.53855         0.59420
C         45.21196        41.68686         0.66533
C         43.98432        42.40016         0.59153
C         45.20235        44.51865         0.81889
C         43.98716        43.82777         0.65659
C         45.16728        45.98489         1.16754
C         43.94322        46.69035         0.62409
C         45.18432        48.83078         0.79101
C         43.94843        48.07430         0.48601
C         45.20790        50.30934         0.49625
C         44.00932        50.92095        -0.11751
C         45.29500        53.05686        -0.27976
C         44.05769        52.33209        -0.40695
C         45.30834        54.46057        -0.47161
C         44.06570        55.18253        -0.62134
C         44.01667        56.60500        -0.64894
C         47.48824        18.92953        -1.68104
C         46.28549        18.25430        -1.63253
C         47.57079        20.31344        -1.38844
C         46.36444        21.01056        -1.07196
C         47.64020        23.12812        -0.94168
C         46.40010        22.41522        -0.83915
C         47.67803        24.52743        -0.75879
C         46.43705        25.21459        -0.38576
C         47.62677        27.41007        -0.85320
C         46.42386        26.71259        -0.34069
C         47.60749        28.91797        -0.79924
C         46.38735        29.59904        -0.32835
C         47.67274        31.71105        -0.26261
C         46.42370        30.98577        -0.14423
C         47.68546        33.11586        -0.07986
C         46.45661        33.82965         0.15384
C         47.71158        35.95906         0.26595
C         46.46135        35.23329         0.30129
C         47.73423        37.35784         0.51622
C         46.47834        38.03994         0.85799
C         47.73048        40.27842         0.69155
C         46.46878        39.55464         0.92231
C         47.70075        41.69469         0.70409
C         46.44731        42.40265         0.73145
C         47.68854        44.54891         0.85372
C         46.43853        43.82306         0.80688
C         47.68984        45.97927         0.87235
C         46.46611        46.70913         0.88271
C         47.70284        48.83826         0.84170
C         46.47461        48.10415         0.82945
C         47.70917        50.28598         0.63246
C         46.51371        50.97888         0.33467
C         47.76664        53.05455        -0.10675
C         46.52814        52.35630        -0.02402
C         47.74798        54.45147        -0.37977
C         46.56359        55.13442        -0.51729
C         50.06822        20.35263        -1.63216
C         48.83604        21.01918        -1.41197
C         50.10498        23.13971        -1.23092
C         48.86530        22.42462        -1.20232
C         50.12229        24.56294        -1.06940
C         48.89706        25.26280        -0.86101
C         50.10570        27.42542        -0.93996
C         48.90799        26.69095        -0.84257
C         50.09646        28.87622        -0.87934
C         48.90189        29.60703        -0.72966
C         50.13187        31.73793        -0.62170
C         48.89606        31.01613        -0.51896
C         50.12332        33.15602        -0.48430
C         48.92243        33.83597        -0.18933
C         50.15296        35.99896         0.00645
C         48.92209        35.26641         0.00916
C         50.13848        37.40571         0.20491
C         48.93909        38.10120         0.44728
C         50.16488        40.28789         0.49319
C         48.94317        39.56360         0.55306
C         50.15741        41.71035         0.63687
C         48.92648        42.42008         0.72131
C         50.16610        44.56459         0.85767
C         48.92210        43.84984         0.81197
C         50.17385        45.97883         0.91404
C         48.92850        46.69310         0.89597
C         50.17963        48.81965         1.18029
C         48.91027        48.11451         0.94589
C         50.19232        50.35295         0.98953
C         48.94286        50.99943         0.56583
C         50.26966        52.98387        -0.00308
C         48.99252        52.34739         0.14682
C         51.26998        21.03829        -1.64024
C         52.58091        23.16946        -1.45287
C         51.32747        22.43924        -1.44333
C         52.58386        24.58729        -1.29918
C         51.34828        25.29388        -1.13678
C         52.58530        27.43785        -1.06685
C         51.34474        26.71652        -1.04075
C         52.58427        28.86892        -0.94495
C         51.34606        29.58864        -0.88774
C         52.63060        31.71038        -0.87706
C         51.33794        31.00270        -0.82840
C         52.65947        33.20437        -0.81732
C         51.33830        33.97827        -0.87907
C         52.62675        35.98012         0.04970
C         51.38937        35.31950        -0.20513
C         52.61901        37.35414         0.30624
C         51.40757        38.15410        -0.07251
C         52.62636        40.23420         0.58112
C         51.42312        39.57941         0.40879
C         52.67973        41.72749         0.41804
C         51.38281        42.44179         0.67843
C         52.67148        44.54830         0.93023
C         51.40514        43.83170         0.82104
C         52.66510        45.97717         0.97508
C         51.43296        46.69065         0.95122
C         52.67343        48.82755         1.05597
C         51.45053        48.10500         1.04257
C         52.68490        50.26294         0.92857
C         51.48277        50.98847         0.71067
C         51.45583        52.32287         0.22668
C         55.01977        23.21414        -1.62269
C         53.81923        22.51253        -1.62318
C         55.06087        24.61013        -1.46579
C         53.81984        25.31598        -1.32395
C         55.06302        27.53222        -1.40784
C         53.80179        26.73034        -1.20559
C         55.09404        28.77808        -0.51734
C         53.82247        29.57422        -0.72097
C         55.09417        31.63089        -0.09682
C         53.84612        30.93583        -0.57345
C         55.09783        33.13415        -0.26223
C         53.89800        33.86101        -0.31638
C         55.11455        35.89446         0.25232
C         53.88904        35.24237         0.00998
C         55.13975        37.28183         0.73253
C         53.81463        38.05066         0.76082
C         55.09086        40.15706         0.91959
C         53.87281        39.51704         0.71548
C         55.10830        41.60253         1.23594
C         53.83785        42.37845         1.13025
C         55.13524        44.51712         1.24655
C         53.88582        43.85560         1.06958
C         55.13373        45.96124         1.22179
C         53.90553        46.67885         1.09439
C         55.15419        48.81418         1.12798
C         53.91411        48.10965         1.09912
C         55.12635        50.24210         1.07060
C         53.94794        50.93074         0.94606
C         57.57903        24.65001        -1.46572
C         56.33006        25.33511        -1.41594
C         57.55836        27.45517        -1.22668
C         56.33662        26.73460        -1.29639
C         57.57066        28.88876        -1.05240
C         56.35338        29.58853        -0.77649
C         57.58351        31.70545        -0.62055
C         56.36050        30.95988        -0.57402
C         57.58722        33.11962        -0.36432
C         56.33893        33.82100        -0.16996
C         57.59108        35.95754         0.10614
C         56.34768        35.22656         0.04560
C         57.59264        37.37466         0.34675
C         56.37679        38.06133         0.62519
C         57.57899        40.19428         0.88696
C         56.34804        39.45276         0.85041
C         57.57507        41.62041         1.15507
C         56.38716        42.33623         1.25613
C         57.61483        44.47226         1.44249
C         56.35898        43.77697         1.34249
C         57.58721        45.93454         1.61843
C         56.35081        46.68106         1.34934
C         57.65931        48.76447         1.07486
C         56.38487        48.09025         1.23093
C         58.77220        25.33933        -1.44922
C         60.01359        27.48866        -1.35416
C         58.79046        26.75419        -1.33787
C         60.01446        28.85744        -1.25460
C         58.79976        29.59435        -1.08021
C         60.00996        31.78065        -0.88043
C         58.80500        31.02284        -0.87538
C         60.00931        33.13453        -0.63503
C         58.80410        33.84418        -0.36754
C         60.01638        36.03452        -0.11062
C         58.81016        35.27605        -0.12135
C         60.01806        37.39715         0.09583
C         58.81070        38.11585         0.32804
C         59.98615        40.33567         0.40233
C         58.78923        39.53121         0.57915
C         60.03401        41.63935         0.74262
C         58.89423        42.28815         1.48310
C         60.06630        44.54001         1.28153
C         58.84240        43.80267         1.39424
C         60.11336        45.90501         1.20990
C         58.93183        46.70500         1.50778
C         58.84969        48.11464         1.11229
O         58.31124        46.40433         2.79659
O         40.83686        37.67455        -1.06064
O         44.99579        49.80655         1.87575
O         54.40556        37.47912         1.98385
O         41.90686        51.37383        -2.24198
O         31.06491        24.86834        -1.21531
O         54.23238        41.86162         2.42791
O         25.57117        32.25677        -1.97877
O         50.12394        49.73552         2.31913
O         34.70628        48.05687        -2.36841
O         52.88503        32.54128        -2.11997
O         40.59918        27.16190        -1.31346
O         30.85451        37.69923         2.00013
O         38.77872        18.42571         2.21265
O         26.03595        28.66411        -1.28055
O         47.38603        28.17936        -2.07102
O         46.50201        38.74316         2.15561
O         46.63624        25.99296         0.91393
O         36.05156        52.58075        -2.94158
O         33.94566        30.26810         2.49699
O         55.13908        28.36121         0.86815
H         55.10527        29.18072         1.41277
O         30.27363        50.52560         0.97895
H         29.44365        50.09955         1.28258
O         45.02204        46.02398         2.63255
H         45.01433        46.96768         2.90295
O         55.08962        31.41750         1.37547
H         55.85355        31.91258         1.74358
O         52.98035        41.93085        -1.01137
H         52.30307        41.44406        -1.52880
O         41.79597        30.74785         2.45873
H         40.92799        30.53902         2.86780
O         25.77145        28.04281         2.26309
H         25.83279        27.28811         2.88608
O         31.92690        33.82446        -1.45717
H         31.12210        34.20620        -1.86857
O         30.15131        28.53746         2.26136
H         30.98551        28.18669         2.64081
O         51.10607        34.31895        -2.29083
H         51.55547        33.60885        -2.81339
O         55.01440        28.04590        -2.77713
H         54.98622        27.27931        -3.38704
O         51.46883        38.29222        -1.55799
H         51.36618        37.38848        -1.93158
O         37.94561        31.71248         2.93148
H         37.09177        32.05050         3.27820
O         59.13427        41.99185         2.90938
H         58.40427        42.40334         3.41991
O         37.68774        44.81614         1.97813
H         37.70317        43.93859         2.41686
O         27.73794        41.76826         1.99113
H         28.50327        41.28611         2.37216
O         39.37367        50.56273        -2.93968
H         40.28706        50.88021        -3.14599
O         37.91763        37.55368         2.53766
H         37.11458        37.13745         2.91791
O         33.80718        24.94490         2.44636
H         34.57534        25.30029         2.94171
O         43.75831        25.34124        -2.18744
H         42.90840        25.79288        -2.38410
H         22.10885        26.97014         1.08061
H         22.09133        29.37840         0.56969
H         22.07184        31.11706        -0.44165
H         22.07641        33.51955        -0.67136
H         22.06737        35.41301        -0.56919
H         22.05317        37.83513        -0.43988
H         22.05948        39.69279        -0.60901
H         22.04507        42.11088        -0.70930
H         22.03169        44.00758        -0.72101
H         22.07526        46.45111        -0.96018
H         25.44102        23.55171         1.38745
H         23.34270        24.81152         1.44885
H         25.45305        49.80151        -1.07800
H         23.32492        48.57207        -1.08152
H         27.13354        22.54579         1.25654
H         27.13714        50.61440        -1.59870
H         29.23422        21.32535         1.00447
H         29.20729        51.87167        -1.45194
H         32.88796        19.16793         0.17722
H         30.78069        20.37299        -0.12060
H         32.91460        54.04555        -1.32475
H         30.83354        52.86663        -0.79209
H         34.35426        18.38654         1.24738
H         34.53828        55.02587        -1.32400
H         36.43802        17.33888         2.12786
H         36.63716        56.17591        -1.17284
H         40.58594        14.79791         0.16077
H         38.92307        15.90218         1.69653
H         40.35838        58.35223        -1.05370
H         38.24327        57.13528        -1.27244
H         42.62106        14.97746        -1.18408
H         42.79830        58.37137        -0.78417
H         44.59677        16.27489        -1.86698
H         44.93985        57.18898        -0.53806
H         48.39227        18.36975        -1.95501
H         46.27968        17.18073        -1.86188
H         48.68948        55.01213        -0.44441
H         46.59706        56.21714        -0.69566
H         50.08693        19.26602        -1.78958
H         50.31522        54.01984        -0.36280
H         52.19287        20.46772        -1.80943
H         52.39945        52.84926         0.02808
H         55.94977        22.64436        -1.74833
H         53.85465        21.42255        -1.74972
H         56.06293        50.81152         1.12825
H         53.97716        52.02789         0.90363
H         57.60404        23.55478        -1.53859
H         57.65837        49.82972         0.80704
H         59.72487        24.79474        -1.51945
H         60.96170        26.94139        -1.45855
H         60.97547        29.38798        -1.28288
H         60.96919        31.28622        -1.08255
H         60.96804        33.66899        -0.65290
H         60.97965        35.53285        -0.27210
H         60.98025        37.92651         0.09999
H         60.86278        39.87755        -0.07756
H         60.95968        42.20195         0.56032
H         61.00449        43.98593         1.14408
H         61.04505        46.41581         0.92536
H         59.77793        48.63905         0.84061
