         276
 CSIRO Nanostructure Databank - Neutral Graphene Oxide Data Set
C        -11.04888         0.95481        -0.61640
C        -10.11761         1.64903         0.30503
C         -8.96312         0.83177         0.92260
C         -7.69871         1.53045         1.36300
C         -6.42893         0.76166         1.65259
C         -5.09268         1.50249         1.58854
C         -3.79801         0.72866         1.58006
C         -2.50766         1.38800         1.12205
C         -1.24348         0.61223         0.83387
C         -0.15002         1.26687        -0.01076
C          1.11457         0.50129        -0.34574
C          2.38646         1.23073        -0.64329
C          3.67173         0.44991        -0.71864
C          4.92425         1.14027        -1.14993
C          6.25225         0.46829        -0.86083
C          7.54003         1.23786        -0.91138
C          8.87021         0.57840        -0.53009
C         10.11632         1.44341        -0.30069
C         10.99972         0.87648         0.80495
C         -9.98257         3.08016         0.14268
C         -8.70814         3.80518         0.41130
C         -7.67223         3.05456         1.24206
C         -6.34792         3.74551         1.29581
C         -5.17823         2.84224         0.84203
C         -3.84902         3.59005         0.66006
C         -2.61353         2.72073         0.37814
C         -1.28130         3.49304         0.55101
C         -0.08920         2.76265        -0.04111
C          1.26037         3.49582         0.05138
C          2.50098         2.71745        -0.43898
C          3.69267         3.40067        -1.04697
C          4.88461         2.60658        -1.68268
C          6.13483         3.40218        -1.25973
C          7.41093         2.73225        -0.86016
C          8.64627         3.53494        -0.67286
C          9.76523         2.88429         0.10194
C         -8.83697         5.29275         0.85878
C         -7.50021         5.96798         0.58107
C         -6.29436         5.24314         1.08157
C         -4.97698         5.92039         1.05569
C         -3.75585         5.07910         0.80377
C         -2.44201         5.78916         0.97033
C         -1.19104         4.98118         0.71728
C         -0.06481         5.67616        -0.03792
C          1.11147         4.89580        -0.56075
C          2.30607         5.62701        -1.15731
C          3.59477         4.85736        -1.44809
C          4.86599         5.59379        -1.78728
C          6.25381         4.84490        -1.84880
C          7.40031         5.60766        -1.19129
C          8.59736         4.88507        -0.79431
C         -7.38782         7.16291        -0.04460
C         -6.07785         7.82895        -0.28342
C         -4.85982         7.23647         0.33959
C         -3.69329         8.12827         0.73433
C         -2.40731         7.29181         0.92286
C         -1.07679         7.97005         0.65479
C          0.08074         7.16593         0.11286
C          1.23635         7.87025        -0.46694
C          2.33182         7.14619        -1.15644
C          3.61166         7.95086        -1.46786
C          4.89401         7.11075        -1.71569
C          6.20467         7.78101        -1.42845
C          7.38578         6.96118        -1.09515
C         -5.97423         9.24707        -0.69897
C         -4.76824         9.85803        -0.78366
C         -3.53774         9.28722        -0.23556
C         -2.32877         9.88621        -0.38241
C         -1.15788         9.48744         0.49821
C          0.17729        10.16031         0.06030
C          1.37185         9.26011        -0.19290
C          2.62756         9.82467        -0.16781
C          3.82976         8.93748        -0.28172
C          5.10691         9.73308        -0.40770
C          6.20899         9.18157        -0.92506
C        -10.93817        -0.34435        -0.95024
C         -9.94173        -1.24568        -0.33138
C         -8.91458        -0.64405         0.58897
C         -7.63397        -1.40736         0.88462
C         -6.42470        -0.74413         1.48132
C         -5.11545        -1.53354         1.65164
C         -3.78212        -0.78618         1.73426
C         -2.48133        -1.55475         1.53238
C         -1.11160        -0.89338         1.17939
C         -0.18574        -1.67769         0.22512
C          1.07493        -1.00023        -0.24001
C          2.41957        -1.72144        -0.24334
C          3.65849        -0.87766        -0.00554
C          4.96790        -1.51095         0.33756
C          6.24942        -0.76689         0.02044
C          7.54932        -1.43259         0.36095
C          8.87565        -0.84522        -0.06554
C         10.11634        -1.45079         0.61353
C         10.95660        -0.37808         1.26585
C         -9.65773        -2.55806        -0.95262
C         -8.52442        -3.26158        -0.69461
C         -7.30925        -2.62643        -0.02941
C         -6.36487        -3.63342         0.66610
C         -5.15465        -3.02391         1.37228
C         -3.85992        -3.80417         1.34702
C         -2.54559        -3.07038         1.43501
C         -1.45021        -3.85940         0.73684
C         -0.11112        -3.17692         0.42023
C          1.21186        -3.90333         0.39415
C          2.51395        -3.17742         0.12992
C          3.83727        -3.82057         0.55353
C          5.08458        -2.99163         0.60736
C          6.34776        -3.55152         1.25572
C          7.64722        -2.78428         1.06592
C          8.86163        -3.62690         0.77272
C          9.70250        -2.61737         1.52003
C         -8.32861        -4.55578        -1.32989
C         -7.25249        -5.34128        -1.08067
C         -6.27286        -4.97388        -0.01595
C         -4.92873        -5.67294        -0.15716
C         -3.91760        -5.26020         0.89065
C         -2.66889        -6.07417         0.92376
C         -1.38023        -5.33755         1.21379
C         -0.05129        -6.01882         0.94500
C          1.24459        -5.19400         1.20012
C          2.57249        -5.92953         0.91735
C          3.81450        -5.12865         1.36230
C          5.13565        -5.90618         1.19114
C          6.40389        -5.05978         1.28839
C          7.71444        -5.85073         1.09758
C          8.92261        -4.96594         0.88565
C         -7.00414        -6.57059        -1.93380
C         -6.11463        -7.63019        -1.29742
C         -5.06392        -7.19431        -0.31347
C         -3.85819        -8.09027        -0.12074
C         -2.54240        -7.52394         0.44510
C         -1.43707        -7.69862        -0.59545
C         -0.19289        -6.86247        -0.30430
C          1.45356        -8.36640         0.62862
C          2.63660        -7.39105         0.61305
C          3.93488        -8.12744         0.51377
C          5.20158        -7.35762         0.79182
C          6.51481        -7.97032         0.26314
C          7.54517        -6.90081         0.04030
C         -5.86086        -8.84837        -2.10700
C         -4.74707        -9.59948        -1.99183
C         -3.69495        -9.31472        -0.99028
C         -2.33323        -9.89263        -1.17374
C         -1.18025        -9.18165        -0.87681
C          0.11945        -9.74085        -1.06957
C          1.37379        -9.24587        -0.59126
C          2.59908        -9.61824        -1.12961
C          3.89405        -9.23141        -0.52493
C          5.15256        -9.44879        -1.27702
C          6.30536        -8.84001        -0.95772
O         -3.93885         4.48655        -0.52255
O          5.24060        -6.97235         2.20286
O         -7.15202         3.56388         2.50325
O         -6.88848        -4.81607         1.30509
O         -2.93268        -1.14673         2.85538
O          4.77463        -3.83104        -0.55916
O          3.99373         5.08780        -2.82528
O         -0.96701         4.08144         1.83725
O         -4.16878        -9.39398         0.41541
O          6.39474         3.22148         0.14314
O          2.58824        -2.72600        -1.25772
O         -2.39699         6.57806         2.19096
O          2.68648        -6.37679        -0.45428
O          9.12316        -0.54401        -1.45990
O          6.92055        -0.46946         1.28382
O          7.02475         0.53886        -2.08956
O          0.39297        -3.87863        -0.77803
O          6.62134         4.68039        -3.17227
O         -5.68615         5.87506         2.29751
O         -0.70910        -6.13224         2.23958
O          4.16337         0.29603        -2.08217
O          8.46029        -2.32979         2.28507
O         -6.53738        -2.05248        -1.04888
O          5.68882         7.66131        -2.81021
O          1.86919         6.38488        -2.31261
O         -1.44000         1.35414         2.09067
O         -3.09914        -3.70824         2.59207
O          0.76789        -8.53393         1.61576
O         -5.34305        -2.50192         2.71072
O         -4.30126         1.42550         2.78022
O         -1.94479        -7.15775        -1.83739
O        -10.06495        -1.33760         1.13742
O         -0.01070        -1.38236        -1.17027
O         -0.03671         7.55167         1.56076
O          3.65249         3.11408         0.38281
O         -7.31109         1.15480         2.72433
O          6.30907        -4.26172         2.51709
O          4.14952        -0.82731         1.35770
O         -0.48100         2.04125        -1.21350
O         -4.03431         8.69785         2.01113
O          1.51876         0.84908        -1.72793
O         -5.08378         7.03256        -1.07754
O         -6.31155        -7.77740         0.13931
O         -3.65355        -6.11845         2.02453
O         -7.43387        -1.44532         2.29058
O         -0.06176         5.13030        -1.39360
O        -10.09355         1.19108         1.72687
O          3.94717        -9.49613         0.94150
O          4.79183         2.58004        -3.08591
H          4.36356         1.73906        -3.36272
O          7.07295        -8.83229         1.28835
H          7.27018        -8.24962         2.06428
O         -9.17833         5.39666         2.22848
H         -8.46736         4.96489         2.76036
O          3.72871        -4.76776         2.73832
H          4.08005        -5.50950         3.27655
O         -5.57261         2.41327        -0.48812
H         -5.38315         3.14921        -1.11396
O          1.14160        10.47022         2.17084
H          0.40964         9.86309         2.46641
O         -2.14698        -8.29986         1.57540
H         -2.78147        -8.11725         2.30215
O         -2.04601        -4.02750        -0.58228
H         -1.33381        -4.20805        -1.24071
O          0.48037        -6.56504        -1.28238
H         -1.16313        -6.88549        -2.37395
O         10.85727         1.50908        -1.53104
H         10.69459         0.67414        -2.02334
O          1.46287         3.68955         1.46353
H          2.43148         3.72189         1.64158
O         -1.49032         9.95996         1.83718
H         -3.22618         9.14048         2.36297
O          3.91445         8.08661         0.89923
H          3.87766         8.65947         1.69445
O         -2.81878         2.30347        -0.98239
H         -2.88848         3.10093        -1.55194
O          9.33199         2.81979         1.47050
H          8.82458         3.62879         1.68717
O         -0.34030        -0.96287         2.39758
H         -0.88877        -0.55449         3.10911
O         -6.32333        -6.14006        -3.13725
H         -6.83526        -5.40577        -3.53725
O          7.96318        -6.51292         2.38293
H          7.64958        -5.89584         3.08255
O         10.93723        -2.06463        -0.40823
H         10.81356        -1.53764        -1.23123
O         -8.07171         3.86807        -0.92394
H         -8.68806         4.31344        -1.54421
O          1.25622        -4.75120         2.55777
H          0.60252        -5.28740         3.07017
O          0.54311        11.17249         1.04470
H         -1.32224        10.93014         1.85199
O          3.34265         8.72068        -2.63972
H          4.08152         8.56252        -3.27406
O         -4.34861        -5.18014        -1.39214
H         -4.93619        -5.41980        -2.15318
H         11.64439        -0.69241         2.06639
H         11.70533         1.58887         1.25956
H         10.69546         3.51456         0.02487
H          9.48039         5.48454        -0.51891
H          8.26842         7.48737        -0.69798
H          7.15094         9.74721        -0.99130
H          5.11677        10.76946        -0.03591
H          2.74413        10.90248         0.01754
H         -0.01397        10.74620        -0.87685
H         -2.23372        10.78568        -1.01232
H         -4.70118        10.87231        -1.20566
H         -6.88264         9.76353        -1.04295
H         -8.29531         7.69229        -0.37683
H         -9.64448         5.78783         0.25986
H        -10.64499         3.55701        -0.60101
H        -11.80525         1.58134        -1.11347
H        -11.61811        -0.77411        -1.70113
H        -10.44965        -3.00550        -1.57458
H         -9.08232        -4.88090        -2.06686
H         -7.99101        -7.02827        -2.22685
H         -6.59075        -9.08315        -2.89709
H         -4.58674       -10.44623        -2.67676
H         -2.25928       -10.94204        -1.50494
H          0.15827       -10.67815        -1.65212
H          2.62879       -10.23859        -2.03952
H          5.10236       -10.09233        -2.16884
H          7.20028        -9.03730        -1.56727
H          8.41554        -7.14371        -0.59043
H          9.90038        -5.45081         1.02973
H         10.52720        -2.99774         2.16378
