         410
 CSIRO Nanostructure Databank - Neutral Graphene Oxide Data Set
C         27.88926        27.34197         0.82594
C         27.87234        28.74961         0.84321
C         26.62423        29.47671         0.87152
C         27.83712        31.58920         0.56898
C         26.58999        30.82440         0.72843
C         27.84606        33.09536         0.54248
C         26.57905        33.87827         0.69554
C         27.87630        35.76797        -0.15306
C         26.57354        35.17453         0.35467
C         27.86003        37.28496        -0.28368
C         26.89131        37.91985        -1.01552
C         28.06890        40.09619        -1.03449
C         26.99203        39.30049        -1.37753
C         28.25178        41.45453        -1.51731
C         27.36258        42.01774        -2.46505
C         28.52896        44.14093        -2.37944
C         27.51117        43.31722        -2.91429
C         28.69206        45.50264        -2.80627
C         30.32877        27.31184         0.66189
C         29.08327        26.63984         0.72319
C         30.33664        28.73476         0.75633
C         29.10834        29.46432         0.81747
C         30.31718        31.62723         0.93842
C         29.11082        30.89020         0.81594
C         30.31265        33.07030         1.11415
C         29.09907        33.83037         0.90058
C         29.91365        36.16305         1.29145
C         28.97605        35.23450         0.76595
C         30.13450        37.44618         0.82661
C         28.94460        38.10673         0.27136
C         30.36777        40.25947         0.09629
C         29.06143        39.57089        -0.08036
C         30.41757        41.62720        -0.25132
C         29.32474        42.24223        -1.01003
C         30.38829        44.49258        -0.79225
C         29.40316        43.60169        -1.40203
C         30.60482        45.83474        -1.31932
C         29.69670        46.30215        -2.31820
C         32.83840        24.52269         0.16977
C         31.64089        25.18807         0.36303
C         32.80200        27.32782         0.40519
C         31.57929        26.59884         0.48351
C         32.78784        28.76134         0.53985
C         31.56780        29.46206         0.72382
C         32.79354        31.59318         0.84697
C         31.55522        30.89293         0.86801
C         32.78972        32.99472         1.04602
C         31.60279        33.69150         1.28218
C         32.82004        35.88123         1.20507
C         31.77424        35.09515         1.59316
C         32.74811        37.35331         0.97958
C         31.46217        38.11772         0.78955
C         32.74146        40.29721         0.75755
C         31.51016        39.61044         0.63953
C         32.79714        41.69033         0.45090
C         31.61206        42.34219         0.01408
C         32.84638        44.54573        -0.01162
C         31.60144        43.79945        -0.06364
C         32.81448        45.93212        -0.21560
C         31.70109        46.58898        -0.82936
C         32.85027        48.76985        -0.76849
C         31.78454        48.00958        -1.10786
C         35.38246        23.11404        -0.30097
C         35.34711        24.52071        -0.12693
C         34.07461        25.21979         0.09780
C         35.29107        27.38354         0.23191
C         34.03146        26.62191         0.22995
C         35.20396        28.83676         0.09782
C         34.01774        29.50013         0.40320
C         35.28245        31.61226         0.64633
C         34.02930        30.92445         0.58795
C         35.31201        32.99985         1.27219
C         34.06513        33.73447         0.88185
C         35.34571        35.97714         1.06952
C         34.08643        35.22487         0.83490
C         35.31821        37.37123         1.20804
C         34.01522        38.09743         1.30588
C         35.29573        40.28476         1.07935
C         33.98816        39.60274         1.21783
C         35.24911        41.80305         1.16908
C         34.01836        42.45666         0.58128
C         35.30339        44.59498         0.35916
C         34.05568        43.83684         0.32774
C         35.31538        45.98965         0.20799
C         34.02144        46.70886         0.14772
C         35.32714        48.89693        -0.17221
C         34.02149        48.19620        -0.07828
C         35.33961        50.28778        -0.29216
C         37.81930        23.12804        -0.51608
C         36.57450        22.44422        -0.48846
C         37.81390        24.55244        -0.41744
C         36.57900        25.21754        -0.21392
C         37.80606        27.41890        -0.43749
C         36.60869        26.67475         0.00499
C         37.70277        28.88878        -0.54468
C         36.40289        29.60076        -0.24916
C         37.74999        31.58201         0.55163
C         36.45127        30.98495         0.24888
C         37.77819        33.06649         0.96668
C         36.55027        33.82479         1.01008
C         37.81988        35.96138         1.30428
C         36.57868        35.24444         1.08891
C         37.78952        37.39978         1.34976
C         36.54169        38.10606         1.24800
C         37.75199        40.28021         0.97969
C         36.48990        39.57029         1.15739
C         37.75622        41.76783         0.99007
C         36.52329        42.50317         0.75346
C         37.78987        44.61016         0.33150
C         36.54744        43.87683         0.50518
C         37.77536        46.02929         0.10856
C         36.54064        46.72928         0.08402
C         37.78055        48.87827        -0.25114
C         36.54628        48.16802        -0.10762
C         37.76063        50.29634        -0.38689
C         36.54401        50.98314        -0.37981
C         40.33466        20.34922        -0.88506
C         39.13696        21.01911        -0.66592
C         40.31949        23.18729        -0.44444
C         39.06520        22.42175        -0.58414
C         40.29018        24.65391        -0.62966
C         39.05960        25.30283        -0.55306
C         40.23240        27.47823        -0.94701
C         39.00464        26.75374        -0.65159
C         40.16611        28.97313        -0.92094
C         38.95447        29.66253        -0.45183
C         40.22691        31.69002         0.19248
C         38.98520        30.96387         0.01612
C         40.23294        33.04814         0.69664
C         39.04748        33.78651         0.91430
C         40.28044        35.59509         1.85598
C         39.04444        35.15240         1.33483
C         40.24237        37.80414         1.82210
C         39.01353        38.21183         1.32210
C         40.20219        40.25608         0.35438
C         38.94608        39.60486         0.90627
C         40.26779        41.75493         0.42842
C         39.06443        42.51509         0.73596
C         40.25074        44.59750         0.10308
C         39.01752        43.92904         0.34902
C         40.25173        46.02301        -0.03676
C         39.01900        46.73409        -0.04527
C         40.27905        48.82887        -0.30844
C         39.03639        48.15463        -0.21952
C         40.32286        50.27753        -0.57417
C         39.01811        51.05570        -0.60522
C         40.29494        53.13101        -0.22463
C         39.09994        52.49661        -0.30559
C         42.64775        20.44287        -1.66102
C         41.56490        21.04161        -1.02371
C         42.93850        23.24808        -0.75722
C         41.63993        22.45242        -0.57743
C         42.72362        24.69553        -1.19184
C         41.51826        25.36242        -0.98142
C         42.69897        27.62489        -1.43522
C         41.43131        26.81184        -1.14071
C         42.67297        28.87608        -0.58088
C         41.46224        29.73156        -0.72006
C         42.69941        31.67757         0.21459
C         41.44346        31.04773        -0.06247
C         42.71854        33.03912         0.63224
C         41.48472        33.68861         0.91494
C         42.77409        35.56329         1.81733
C         41.50432        34.93751         1.59276
C         42.76367        37.82300         1.75628
C         41.51239        38.43340         1.50653
C         42.72172        40.28897         0.49835
C         41.50081        39.65740         0.81656
C         42.71479        41.70801         0.14597
C         41.45689        42.42671         0.16007
C         42.71507        44.56288        -0.01125
C         41.47243        43.87012         0.07795
C         42.72749        45.99706        -0.05652
C         41.49686        46.71687        -0.09619
C         42.76958        48.84851        -0.12498
C         41.51430        48.14081        -0.17732
C         42.78317        50.29065        -0.14017
C         41.57029        51.00936        -0.30185
C         42.77906        53.10996        -0.08685
C         41.55456        52.41651        -0.24815
C         43.82344        21.18758        -1.94350
C         45.24205        23.20501        -1.83240
C         43.95526        22.50516        -1.59619
C         45.22505        24.70183        -1.90622
C         43.88380        25.45134        -1.86613
C         45.19317        27.46898        -0.96228
C         44.00036        26.85213        -1.29861
C         45.21554        28.83681        -0.43197
C         43.93757        29.51503        -0.12577
C         45.13190        31.65238         0.33307
C         43.92587        30.97587         0.11400
C         45.17220        33.04930         0.57780
C         43.94695        33.75022         0.74766
C         45.10495        35.98236         0.88503
C         43.93340        35.11974         1.20226
C         45.17967        37.45861         1.03691
C         43.96892        38.26930         1.15710
C         45.17610        40.20260         0.04249
C         43.93487        39.57177         0.60911
C         45.18996        41.67723         0.45889
C         43.91204        42.40946         0.11995
C         45.18452        44.54823         0.10147
C         43.93812        43.83738         0.03440
C         45.18130        45.97636         0.09454
C         43.96053        46.70352        -0.01368
C         45.24818        48.84329         0.09383
C         43.98732        48.13844         0.00297
C         45.25630        50.26765         0.04431
C         44.00878        51.00194        -0.02493
C         43.97317        52.42035        -0.00403
C         47.66107        23.16541        -1.29019
C         46.49009        22.51878        -1.43279
C         47.80118        24.62925        -1.45078
C         46.51737        25.43633        -1.64605
C         47.69147        27.42224        -0.76116
C         46.49058        26.79826        -1.08449
C         47.68345        28.88141        -0.50404
C         46.38371        29.49897        -0.17461
C         47.64781        31.59203         0.71645
C         46.36499        30.85228         0.43684
C         47.64112        33.06918         0.78016
C         46.43273        33.74440         0.72515
C         47.68244        35.95135         0.73529
C         46.41403        35.21832         0.62098
C         47.66500        37.36101         0.70083
C         46.41246        38.09567         0.71774
C         47.68863        40.18405         0.33105
C         46.46121        39.50321         0.44696
C         47.71794        41.64418         0.02306
C         46.42228        42.38386        -0.05194
C         47.63851        44.50491         0.37305
C         46.42414        43.84504         0.12078
C         47.50308        45.88300         0.69570
C         46.40649        46.67423         0.31696
C         47.72133        48.82865         0.05114
C         46.48494        48.12437         0.20750
C         47.68804        50.23774        -0.02793
C         46.49922        50.94171         0.02544
C         50.19182        24.60365        -0.69422
C         48.98984        25.31905        -0.89033
C         50.18561        27.39550        -0.32753
C         48.96390        26.71891        -0.69503
C         50.21310        28.79714        -0.01869
C         48.96397        29.58284        -0.10781
C         50.12826        31.60606         0.88871
C         48.91373        30.91179         0.48270
C         50.13206        33.08423         0.83439
C         48.90528        33.78153         0.78353
C         50.14101        35.91602         0.65890
C         48.89926        35.21554         0.75131
C         50.12378        37.33734         0.54409
C         48.91310        38.06567         0.57854
C         50.17127        40.21268         0.22097
C         48.92476        39.49373         0.40883
C         50.19261        41.65076         0.18316
C         48.96545        42.42422         0.22347
C         50.22867        44.58632         0.32447
C         48.93211        43.81428         0.35616
C         50.29383        46.03443        -0.09867
C         49.31337        46.91907         0.36625
C         50.00172        48.67447        -1.07529
C         49.01920        48.17197        -0.19611
C         51.36968        25.25484        -0.38684
C         52.65605        27.34949         0.02118
C         51.40635        26.66203        -0.22504
C         52.65030        28.74685         0.26729
C         51.40200        29.44061         0.32316
C         52.67550        31.62488         0.70398
C         51.42290        30.84892         0.79383
C         52.65366        33.03475         0.79874
C         51.38108        33.77365         0.79950
C         52.63514        35.92789         0.68523
C         51.36333        35.17488         0.66807
C         52.63752        37.27346         0.02875
C         51.34987        38.03456         0.10377
C         52.64353        40.17733        -0.03894
C         51.38539        39.50824         0.08171
C         52.64707        41.60124        -0.09752
C         51.42112        42.30632         0.01702
C         52.58588        44.38375        -0.74106
C         51.46082        43.78191         0.03789
C         52.53854        45.80891        -1.21220
C         51.31583        46.60512        -0.88761
C         51.15669        47.93301        -1.33756
C         55.09061        27.35079         0.18909
C         53.90955        26.66961         0.00668
C         55.10325        28.76128         0.38609
C         53.87853        29.46842         0.44186
C         55.13739        31.59742         0.66683
C         53.89459        30.90271         0.60068
C         55.12861        33.02847         0.76834
C         53.90211        33.72375         0.81626
C         55.20213        35.92812         0.58201
C         53.93283        35.20088         0.84675
C         55.19095        37.29948         0.34919
C         53.96816        37.97716        -0.24697
C         55.11442        40.17962        -0.05237
C         53.90103        39.47957        -0.03912
C         55.12787        41.61561        -0.23955
C         53.89136        42.31292        -0.28481
C         55.06796        44.38396        -0.91284
C         53.88330        43.69441        -0.61258
C         55.01208        45.79085        -1.27294
C         53.84671        46.47297        -1.39651
C         56.33501        29.47517         0.50237
C         56.35074        30.84103         0.62581
C         56.36156        33.78549         0.80138
C         56.40126        35.14893         0.71471
C         56.38070        38.09949         0.36104
C         56.34827        39.44707         0.12569
C         56.32440        42.34488        -0.47849
C         56.29881        43.68648        -0.81212
O         45.57017        35.65919        -0.48911
O         40.82464        29.68150        -2.02235
O         48.52205        46.48304         1.43654
O         47.04509        41.92397        -1.29421
O         27.89581        32.36605        -0.73490
O         51.20946        44.31313         1.38944
O         41.08627        22.70710         0.75130
O         45.32144        23.89853        -3.13286
O         52.24824        44.69990        -2.14184
O         34.12209        34.42478        -0.41421
O         39.69237        50.66678        -1.85163
O         36.19467        27.04035         1.38400
O         30.74483        35.69750         2.31299
O         48.42891        29.63260        -1.53636
O         37.84867        31.95770         1.97986
O         33.86043        38.89913         2.51871
O         53.25886        35.85810         2.01194
O         40.29012        36.70800         2.69676
O         33.77340        47.64747         1.26541
O         30.48783        44.40322         0.65479
O         42.80923        36.71658         2.60959
O         32.26287        37.58620        -0.39398
O         51.80496        37.34364        -1.16661
O         43.07908        28.72150         0.80220
O         50.76646        31.01736         2.11207
O         36.83596        29.35360        -1.66017
O         38.56024        42.28753         2.11636
O         28.46412        39.16337         1.20646
O         46.89406        30.89043         1.81698
O         47.45402        25.22640        -2.74348
O         42.66798        28.08253        -2.80633
H         42.81760        27.29075        -3.37880
O         35.26042        32.79638         2.71694
H         36.10897        32.35614         2.96314
O         40.12346        39.94146        -1.09374
H         40.97579        40.20933        -1.50122
O         54.22007        37.82829        -1.68451
H         53.33726        37.87591        -2.12435
O         43.56816        23.36685         0.56266
H         42.82569        23.33907         1.21461
O         28.11215        35.26827        -1.49416
H         28.06833        34.28590        -1.47933
O         35.17371        42.05634         2.62062
H         35.15648        43.02788         2.75571
O         45.29904        41.68500         1.91245
H         45.11683        42.59370         2.23203
O         45.06217        40.11795        -1.39895
H         45.84094        40.59559        -1.77940
O         43.45510        25.59281        -3.25898
H         43.95993        24.91086        -3.77068
H         26.93649        26.79435         0.86368
H         25.68930        28.90457         0.96394
H         25.62802        31.35300         0.67833
H         25.66447        33.37581         1.04344
H         25.66387        35.78886         0.42835
H         26.05308        37.33975        -1.42780
H         26.20364        39.70012        -2.03015
H         26.54773        41.40653        -2.87508
H         26.82895        43.72301        -3.67455
H         28.00442        45.89482        -3.56917
H         29.04652        25.54319         0.68027
H         29.80386        47.32075        -2.71558
H         32.81432        23.42868         0.08067
H         30.71932        24.59323         0.42055
H         32.86599        49.83016        -1.05754
H         30.93739        48.48954        -1.61692
H         34.45464        22.52829        -0.27015
H         34.39755        50.85109        -0.30681
H         36.54819        21.35173        -0.59223
H         36.52053        52.07569        -0.48230
H         40.31838        19.26680        -1.07765
H         38.21325        20.42534        -0.64971
H         40.32711        54.21538        -0.04134
H         38.17474        53.06778        -0.14543
H         42.57096        19.40037        -1.99863
H         42.77267        54.20823        -0.03815
H         44.64143        20.69222        -2.48686
H         44.90332        52.99376         0.10124
H         48.53542        22.59423        -0.94690
H         46.43274        21.44131        -1.21879
H         48.63459        50.78941        -0.11381
H         46.53659        52.03796        -0.00679
H         50.21491        23.51580        -0.83975
H         49.86816        49.65289        -1.55742
H         52.28621        24.66029        -0.28320
H         51.93102        48.37306        -1.98106
H         56.04773        26.81035         0.15990
H         53.94750        25.58660        -0.16927
H         55.96730        46.31727        -1.41917
H         53.86638        47.55398        -1.59871
H         57.27913        28.91252         0.46982
H         57.31882        31.35412         0.69389
H         57.31482        33.24351         0.85475
H         57.37875        35.64929         0.68003
H         57.34345        37.63022         0.60839
H         57.29425        40.00377         0.16071
H         57.29492        41.83242        -0.44218
H         57.23800        44.21724        -1.02451
