         487
 CSIRO Nanostructure Databank - Neutral Graphene Oxide Data Set
C         38.65674        48.84847        -3.27712
C         38.01053        49.17783        -4.43220
C         39.05278        51.38418        -4.46032
C         38.17556        50.46094        -5.02621
C         40.74875        47.92474        -1.44341
C         40.71299        49.26771        -1.84056
C         39.47470        49.84724        -2.50442
C         40.77520        52.00386        -2.78120
C         39.77302        51.09897        -3.29219
C         40.80647        53.36049        -3.18034
C         42.88086        48.25107        -0.31540
C         41.82111        47.41368        -0.71928
C         42.85836        49.60972        -0.71223
C         41.79169        50.11890        -1.48955
C         42.85718        52.38109        -1.53522
C         41.79206        51.51946        -1.90490
C         42.83678        53.74946        -1.91540
C         41.79312        54.22606        -2.71625
C         45.15917        45.88432         1.57369
C         44.01576        46.43587         0.99786
C         45.21313        48.50974         0.54584
C         44.01701        47.72337         0.43902
C         45.20940        49.86701         0.14157
C         43.88328        50.54298        -0.11019
C         45.19100        52.58323        -0.75832
C         44.01013        51.86211        -0.82219
C         45.26393        53.94904        -1.41568
C         43.90250        54.64179        -1.30617
C         45.11283        56.77387        -1.66952
C         43.97183        56.05444        -1.82645
C         47.66645        44.54885         2.36979
C         47.61415        45.94124         2.00102
C         46.39637        46.56939         1.57859
C         47.59922        48.68727         1.07544
C         46.41259        47.92337         1.06950
C         47.61106        50.01527         0.61517
C         46.39418        50.62852         0.18215
C         47.54882        52.81602        -0.02177
C         46.38411        52.01530        -0.20534
C         47.51310        54.21470        -0.28039
C         46.38884        54.82593        -0.88392
C         47.41586        57.14773        -0.66663
C         46.31956        56.20223        -1.12369
C         47.68926        58.27494        -1.64092
C         50.14405        44.64583         2.73936
C         48.82944        43.91969         2.68060
C         50.07161        45.99695         2.06102
C         48.86700        46.64106         1.88334
C         50.08031        48.67714         0.94645
C         48.85897        48.14281         1.70260
C         50.06630        50.17445         0.95887
C         48.83022        50.80447         0.67151
C         49.96919        52.96857         0.55975
C         48.76600        52.19982         0.44480
C         49.94156        54.37045         0.36007
C         48.61662        55.07431         0.27797
C         49.88361        57.15641        -0.28087
C         48.71524        56.44273        -0.33727
C         49.80713        58.66403        -0.44471
C         48.82596        58.97705        -1.55696
C         52.51442        41.71342         1.93498
C         51.35448        42.42857         2.17930
C         52.54906        44.53944         2.12538
C         51.35864        43.85056         2.29281
C         52.59168        45.97777         2.05612
C         51.34729        46.58206         1.48720
C         52.52892        48.80771         1.60485
C         51.37140        48.07805         1.42460
C         52.51768        50.26357         1.46946
C         51.26239        50.90635         1.11870
C         52.38397        53.07827         1.00734
C         51.19662        52.31334         0.88966
C         52.37314        54.46686         0.67356
C         51.14305        55.11919         0.34542
C         52.36989        57.23205        -0.09003
C         51.14534        56.51572         0.01802
C         52.36775        58.65195        -0.42089
C         51.14700        59.34576        -0.59172
C         52.35490        61.45182        -0.68192
C         51.16002        60.73441        -0.75313
C         55.04344        40.22368         1.59777
C         54.99249        41.65622         1.66552
C         53.77010        42.34991         1.76127
C         55.05234        44.51602         2.02029
C         53.76993        43.84486         1.60800
C         54.97368        45.90352         2.65076
C         53.76989        46.69424         2.14774
C         54.96867        48.87140         1.99770
C         53.78519        48.12899         1.93711
C         54.97890        50.31486         1.85458
C         53.68921        51.02602         1.68605
C         54.61889        53.38363         1.78618
C         53.56754        52.46807         1.51960
C         54.78117        54.60444         1.11957
C         53.59118        55.19849         0.61432
C         54.84894        57.26144         0.10036
C         53.59203        56.56773         0.19920
C         54.82802        58.59459        -0.39514
C         53.60206        59.36406        -0.51176
C         54.79173        61.62845        -0.29556
C         53.59018        60.80011        -0.55377
C         54.78543        62.80371         0.48100
C         57.47510        40.22681         1.86831
C         56.22392        39.54210         1.66520
C         57.44644        41.67220         1.85877
C         56.25011        42.37582         1.71264
C         57.48173        44.64044         1.66328
C         56.22176        43.83834         1.85411
C         57.59043        45.85954         2.58993
C         56.28733        46.69758         2.62413
C         57.51069        48.83696         1.89415
C         56.25844        48.17426         2.32081
C         57.47308        50.17171         1.51886
C         56.25235        50.92593         1.73714
C         57.48898        53.08211         1.36290
C         56.50002        52.33667         1.92361
C         57.39579        54.62528         1.43486
C         56.14108        55.12831         0.65088
C         57.29656        57.35685         0.22906
C         56.10329        56.62977         0.37798
C         57.29937        58.65582        -0.35170
C         56.06569        59.12782        -0.80486
C         57.28837        61.69662        -0.27690
C         56.05360        61.20939        -0.74842
C         57.23681        62.95453         0.37974
C         55.98278        63.48573         0.73410
C         59.90911        37.38723         2.24789
C         58.73966        38.08227         2.18895
C         59.98605        40.23077         2.29109
C         58.66894        39.51786         2.07273
C         59.97717        41.68577         1.93536
C         58.70424        42.42023         2.25496
C         59.94843        44.49436         1.61582
C         58.73538        43.82218         1.76133
C         59.96325        45.91967         1.60896
C         58.84865        46.64952         2.20273
C         59.96792        48.79876         1.29804
C         58.80340        48.15361         1.94520
C         59.89175        50.21147         1.03020
C         58.66965        50.87673         1.11606
C         59.91200        53.05027         0.87850
C         58.57466        52.32285         0.64219
C         59.79244        54.45036         0.30369
C         58.66787        55.29032         0.84083
C         59.68108        57.26573        -0.57003
C         58.62216        56.70570         0.37946
C         59.74469        58.77390        -0.45718
C         58.52089        59.47261        -0.45924
C         59.76909        61.57478        -0.26119
C         58.51979        60.90823        -0.39521
C         59.80588        63.03260         0.05807
C         58.50057        63.72440         0.49772
C         59.84205        65.44327         1.64429
C         58.63468        64.86638         1.40398
C         62.32065        35.89200         1.36236
C         62.32815        37.28384         1.39519
C         61.26917        38.05077         2.17754
C         62.38197        40.18529         1.37539
C         61.07858        39.44857         1.55334
C         62.41887        41.59392         1.46032
C         61.18219        42.34751         1.71786
C         62.45025        44.50769         1.74257
C         61.19982        43.77813         1.64133
C         62.46860        46.03521         1.65059
C         61.16689        46.58016         1.01904
C         62.32775        48.76191         0.61594
C         61.13117        48.08833         1.01910
C         62.33138        50.13615         0.42550
C         61.10316        50.89640         0.58192
C         62.23295        52.93194        -0.35797
C         61.08118        52.25361         0.34762
C         62.30474        54.41918         0.05587
C         61.00613        55.13587        -0.24482
C         62.20402        57.28928        -0.59639
C         61.02423        56.60321        -0.40915
C         62.23570        58.72741        -0.59469
C         60.98569        59.45288        -0.47190
C         62.26913        61.63978        -0.47803
C         60.97973        60.86418        -0.36280
C         62.27653        62.79269         0.49920
C         61.05445        63.60187         0.59456
C         62.37137        65.50587         1.47182
C         61.08771        64.84000         1.22082
C         62.41490        66.85729         1.87536
C         64.47185        35.84314         0.23450
C         63.37024        35.17802         0.77026
C         64.52120        37.26760         0.27528
C         63.43643        37.99341         0.84928
C         64.65170        40.13602         0.43715
C         63.49276        39.44583         0.90825
C         64.72344        41.57323         0.57545
C         63.62320        42.27243         1.15061
C         64.89760        44.44700         0.89071
C         63.74645        43.71166         1.41867
C         64.84801        45.88132         0.72721
C         63.66753        46.58670         0.91330
C         64.85400        48.72581         0.55275
C         63.56614        47.95934         0.27221
C         64.81665        50.15838         0.10752
C         63.57529        50.86607         0.18205
C         64.74931        53.02579        -0.02896
C         63.53034        52.24007        -0.04091
C         64.72547        54.45190        -0.42473
C         63.52921        55.12026        -0.46685
C         64.74116        57.28382        -0.77507
C         63.45352        56.53137        -0.99354
C         64.73315        58.67686        -0.67283
C         63.48169        59.41741        -0.58543
C         64.77373        61.50404        -0.25841
C         63.53508        60.81765        -0.39489
C         64.82117        62.84643         0.20857
C         63.60723        63.44781         0.78975
C         64.83394        65.56950         1.19443
C         63.59881        64.86633         1.16544
C         64.84082        66.91840         1.65344
C         63.62639        67.53244         1.98858
C         66.79876        32.97918        -0.74677
C         65.75405        33.64052        -0.22145
C         66.74948        35.84557        -0.96132
C         65.53758        35.08536        -0.47420
C         66.84895        37.28526        -0.66044
C         65.68610        37.98450        -0.19672
C         66.88558        40.08995        -0.70629
C         65.73303        39.39163        -0.10486
C         66.92999        41.61017        -0.58470
C         65.89108        42.29251         0.20223
C         67.19172        44.41223         0.00323
C         65.98926        43.71270         0.38176
C         67.21628        45.80167        -0.10206
C         66.02962        46.56523         0.18674
C         67.18122        48.62456        -0.51549
C         66.04613        47.94944         0.04036
C         67.12924        50.02490        -0.76728
C         65.99022        50.77850        -0.34234
C         67.19486        52.97586        -0.82057
C         66.06978        52.24327        -0.27490
C         67.19910        54.39036        -0.83717
C         65.97989        55.12397        -0.68703
C         67.21253        57.21401        -0.96127
C         65.97507        56.53861        -0.81739
C         67.18886        58.68050        -1.09161
C         65.96839        59.41239        -0.72891
C         67.26981        61.51218        -0.51433
C         66.01492        60.80103        -0.54375
C         67.28588        63.02417        -0.37311
C         66.02004        63.60488         0.23304
C         67.28121        65.74903         0.49179
C         66.04060        64.91292         0.72801
C         67.39138        66.96143         1.38814
C         66.13412        67.61203         1.89211
C         67.37936        69.73948         2.03161
C         66.20828        69.06074         2.13654
C         68.99792        31.47988        -2.05388
C         69.06640        32.86318        -1.82880
C         67.77993        33.64025        -1.68765
C         69.19745        35.68938        -1.28668
C         67.97439        35.08373        -1.29584
C         69.34828        37.10515        -0.75812
C         68.08250        37.93057        -0.81549
C         69.39327        40.01129        -1.05487
C         68.15645        39.34954        -0.87415
C         69.47949        41.48813        -1.08968
C         68.23886        42.29612        -0.81180
C         69.65379        44.35053        -0.63882
C         68.45826        43.61146        -0.09326
C         69.63539        45.74379        -0.77872
C         68.41053        46.49018        -0.54339
C         69.51760        48.50940        -1.46036
C         68.35823        47.86187        -0.80140
C         69.44498        49.94658        -1.87777
C         68.20483        50.71702        -1.50976
C         69.58401        52.92961        -1.60724
C         68.27867        52.24082        -1.47272
C         69.65137        54.33149        -1.34298
C         68.43464        55.08314        -1.06278
C         69.70912        57.21822        -0.88457
C         68.42806        56.49630        -1.02286
C         69.76187        58.68069        -0.94857
C         68.50689        59.44157        -1.06489
C         69.77008        61.50454        -0.46873
C         68.48416        60.84842        -0.64949
C         69.80253        62.86023        -0.07310
C         68.51859        63.48542         0.42348
C         69.78665        65.67823         0.54396
C         68.57865        64.98193         0.50404
C         69.81025        67.10974         0.81533
C         68.62094        67.77315         1.23442
C         69.84385        69.89102         1.50311
C         68.62223        69.12359         1.61190
C         69.88736        71.27556         1.81010
C         71.40484        31.34901        -2.19212
C         70.15503        30.72298        -2.23201
C         71.48776        32.72428        -2.00004
C         70.32551        33.50759        -1.82909
C         71.58023        35.66170        -1.83215
C         70.40693        34.95724        -1.64038
C         71.63970        37.08231        -1.71668
C         70.56766        37.82696        -1.28189
C         71.84510        39.96131        -1.14499
C         70.61270        39.27369        -1.16883
C         71.93501        41.34711        -0.97695
C         70.79391        42.15479        -0.91979
C         72.05095        44.31427        -1.10940
C         70.83963        43.59180        -0.87470
C         72.06195        45.68433        -1.19583
C         70.85482        46.45046        -1.10386
C         71.99745        48.66639        -1.44676
C         70.82873        47.84045        -1.33996
C         71.95614        49.99304        -1.75154
C         70.72609        50.70731        -2.28586
C         71.93601        52.90881        -2.15538
C         70.73672        52.20256        -1.96260
C         72.01620        54.27898        -1.91553
C         70.89935        55.00214        -1.47640
C         72.19089        57.25558        -1.39820
C         71.01568        56.43247        -1.08640
C         72.18468        58.60175        -1.19629
C         70.97511        59.35121        -0.91911
C         72.19603        61.52209        -0.64407
C         70.98544        60.79880        -0.71620
C         72.21344        62.87243        -0.33987
C         71.02163        63.57110        -0.01930
C         72.22523        65.73551         0.31637
C         71.03265        64.99006         0.30800
C         72.23282        67.10732         0.53551
C         71.03660        67.82364         0.79300
C         72.23172        70.01170         0.97761
C         71.04538        69.24431         1.08564
C         72.24247        71.36408         1.27488
C         71.06188        71.99925         1.69883
O         66.45160        40.96627        -1.80618
O         67.76488        51.51556        -2.66448
O         56.31794        47.65234         3.72990
O         56.07164        60.19309        -1.71441
O         67.00200        66.78323         2.77734
O         59.19847        47.59564         3.26807
O         67.09483        33.55916        -3.04476
O         67.80756        59.17702        -2.34065
O         68.70629        42.19174        -2.16589
O         63.34658        44.04836         2.80368
O         60.02771        54.47171        -1.13755
O         59.08989        63.92868        -0.83809
O         65.63531        35.51287        -1.87961
O         59.13297        56.38702         1.70641
O         69.15163        48.90311        -2.86826
O         70.48711        56.68590         0.25261
O         65.66491        52.73626         1.06739
O         62.93499        62.54096         1.76593
O         55.56321        52.99223         2.72477
O         62.52396        46.55439         2.99429
H         63.14426        45.98219         3.49956
O         67.42527        63.58388        -1.71719
H         66.77473        63.13807        -2.30029
O         67.49498        34.70269        -3.82356
H         66.76625        35.34752        -3.63100
O         57.80123        45.34570         3.91946
H         57.96815        46.12572         4.49580
O         60.55743        39.25976         0.20727
H         61.22510        38.76134        -0.31054
O         54.70719        45.60681         4.05144
H         54.98987        46.40047         4.56136
O         63.49734        47.71547        -1.15922
H         62.71377        47.13359        -1.30741
O         48.19750        55.36407         1.68960
H         48.99048        55.70606         2.15756
O         46.93106        57.72960         0.59619
H         46.97253        56.99581         1.25711
O         60.24313        40.22910         3.73298
H         59.68023        40.94615         4.12046
O         62.41353        54.44264         1.52147
H         63.31543        54.13753         1.76413
O         49.89283        48.26173        -0.45884
H         50.51667        48.78488        -1.00592
O         48.94483        48.69567         3.04886
H         48.10411        48.49854         3.51185
O         67.14201        66.27198        -0.87306
H         67.23470        65.49275        -1.47729
O         61.24365        46.15846        -0.39174
H         60.36144        46.29757        -0.79837
O         58.27202        52.28847        -0.77321
H         57.70803        53.06897        -0.98809
O         43.59841        54.74024         0.11374
H         42.70237        55.12350         0.21044
O         43.35355        50.87879         1.23014
H         43.21372        50.03155         1.70484
O         38.61268        50.27831        -1.37281
H         37.80560        50.67520        -1.76466
O         63.30778        56.40356        -2.46213
H         64.09144        55.91420        -2.79338
O         45.52165        53.74167        -2.83234
H         46.39632        53.30938        -2.92086
O         49.24947        59.19240         0.79417
H         48.33113        58.82323         0.88106
O         64.98644        48.78076         2.00927
H         65.67590        49.44208         2.22823
O         68.79656        43.21349         1.28377
H         68.88426        44.02993         1.81977
O         68.30446        62.98800         1.78355
H         69.00890        63.35566         2.35754
O         58.64485        42.50534         3.75468
H         58.32584        43.41607         3.98393
O         51.36312        46.08121         0.08327
H         50.68170        46.61753        -0.40124
O         70.83909        50.63688        -3.73062
H         70.34783        49.82537        -4.00479
O         62.27038        62.26866        -1.80284
H         62.09947        61.57070        -2.46966
O         61.81338        38.13438         3.51397
H         61.26962        38.79083         4.01348
O         59.20687        56.95437        -1.91525
H         59.96636        57.02662        -2.53077
O         57.40005        45.21596         0.31580
H         57.08532        44.51262        -0.29165
O         69.59776        36.94529         0.69199
H         70.46248        36.49141         0.78649
O         62.02945        52.82926        -1.78851
H         61.13174        53.19492        -1.97917
O         53.70446        44.08566         0.13316
H         52.96511        44.71844        -0.03843
O         57.24429        55.04479         2.78602
H         58.09382        54.90090         3.25205
O         50.38648        44.93398         4.16687
H         49.65251        45.50394         4.48005
O         56.30994        54.49916        -0.67149
H         55.64173        54.88120        -1.28023
O         60.07442        53.16955         2.31235
H         60.93514        53.63310         2.46044
H         38.47759        47.86031        -2.83085
H         37.36292        48.44039        -4.92857
H         39.22528        52.33412        -4.98683
H         37.64600        50.70334        -5.95699
H         39.92123        47.24851        -1.69487
H         40.01580        53.75882        -3.83066
H         41.82066        46.34955        -0.44806
H         41.75639        55.28299        -3.01420
H         45.08958        44.87181         1.99249
H         43.09865        45.83105         0.98088
H         45.10804        57.84452        -1.92158
H         43.05644        56.56098        -2.16709
H         46.73307        43.96900         2.39955
H         46.95702        58.49824        -2.43099
H         48.79640        42.87160         3.01147
H         49.03586        59.79771        -2.26022
H         52.45621        40.61549         1.93781
H         50.41793        41.87481         2.33101
H         52.32752        62.54983        -0.72334
H         50.20884        61.27469        -0.85726
H         54.10954        39.65802         1.47573
H         53.83945        63.20981         0.86573
H         56.21250        38.44649         1.59184
H         55.93670        64.45097         1.25741
H         59.86096        36.29910         2.40450
H         57.79996        37.51177         2.24695
H         59.87920        66.32463         2.29926
H         57.73494        65.25909         1.89914
H         61.48615        35.33099         1.80321
H         61.48921        67.39802         2.11123
H         63.31299        34.08170         0.73276
H         63.61706        68.57161         2.34413
H         66.93393        31.91217        -0.51379
H         65.06899        33.11769         0.46214
H         67.36866        70.81819         2.23838
H         65.29052        69.61381         2.38211
H         68.01718        30.98618        -2.10560
H         68.97903        71.79681         2.13964
H         72.32210        30.75838        -2.32334
H         70.08378        29.64036        -2.40513
H         72.47906        33.19749        -1.98015
H         72.49323        35.14200        -2.15177
H         72.57122        37.57816        -2.02488
H         72.78027        39.38671        -1.19270
H         72.93388        41.79666        -0.88818
H         72.99043        43.76421        -1.25814
H         73.00903        46.19844        -1.40979
H         72.97460        48.21686        -1.21301
H         72.91072        50.53781        -1.78589
H         72.83397        52.38230        -2.50365
H         72.98044        54.78644        -2.05558
H         73.10237        56.77331        -1.77913
H         73.11367        59.15884        -1.38120
H         73.15173        61.01617        -0.83480
H         73.18106        63.39050        -0.31994
H         73.18685        65.23728         0.13514
H         73.19892        67.62861         0.52936
H         73.16460        69.53874         0.64275
H         73.17264        71.94109         1.17958
H         71.07165        73.07155         1.93842
