         294
 CSIRO Nanostructure Databank - Neutral Graphene Oxide Data Set
C          1.20530         2.24209         1.47648
C          1.17012         3.60041         1.14982
C          2.37905         1.50398         1.36497
C          2.32656         4.25727         0.65393
C          1.21843         6.51558         0.54912
C          1.08658         7.79651         0.06296
C          2.31384         5.64988         0.26581
C          2.18072         8.47125        -0.74118
C          1.06193        10.75096        -0.73123
C          1.04062        12.13757        -0.63865
C          2.20389         9.97265        -0.49334
C          2.26256        12.92846        -0.24369
C          1.08965        15.21006        -0.40234
C          1.16463        16.56340        -0.31238
C          2.30382        14.39507        -0.76080
C          2.42895        17.25153        -0.30476
C          2.49942        18.66511        -0.31565
C          3.57328         2.11650         0.89134
C          3.51060         3.48489         0.49629
C          4.80548         1.39634         0.92805
C          4.73358         4.15424         0.02805
C          3.47690         6.24103        -0.51277
C          3.46947         7.74853        -0.34353
C          4.74548         5.62633        -0.02810
C          4.76046         8.49227        -0.26237
C          3.49528        10.68726        -0.15671
C          3.50829        12.13046        -0.72312
C          4.69856         9.92456        -0.75068
C          4.82366        12.80315        -0.34217
C          3.57458        15.06200        -0.28043
C          3.63208        16.47076        -0.13320
C          4.73974        14.23271         0.07294
C          4.83229        17.16226         0.20106
C          3.70125        19.32565        -0.16410
C          4.91007        18.59581         0.11955
C          6.05246         1.98545         0.60222
C          6.01981         3.37084         0.05029
C          7.27681         1.34116         0.75726
C          7.25855         4.18452         0.25320
C          6.01985         6.39142         0.28525
C          6.04768         7.79275        -0.28642
C          7.22648         5.61235        -0.26929
C          7.25924         8.43861        -0.65823
C          6.03922        10.57736        -0.36090
C          5.98646        12.09182        -0.29047
C          7.19703         9.89835        -1.16624
C          7.28471        12.67355         0.13567
C          5.99817        14.92302         0.52885
C          6.03546        16.43939         0.74357
C          7.30757        14.19095         0.46581
C          7.31667        17.11234         0.16946
C          6.12069        19.28058         0.28049
C          7.40159        18.58015         0.64561
C          8.55534         1.96543         0.24780
C          8.53981         3.47006         0.47339
C          9.85226         1.30639         0.66483
C          9.82480         4.22060         0.29305
C          8.55559         6.36390        -0.01302
C          8.47346         7.74707        -0.62810
C          9.75917         5.52988        -0.51425
C          9.73994         8.42605        -1.08129
C          8.57482        10.74151        -1.07213
C          8.51792        12.02027        -0.25645
C          9.74805         9.86686        -0.56981
C          9.78679        12.65904         0.10371
C          8.55952        14.92103        -0.02414
C          8.57484        16.34705         0.40913
C          9.81740        14.16446         0.33618
C          9.83028        17.06743         0.84945
C          8.68525        19.19715         0.15062
C          9.86356        18.50519         0.31802
C         11.09117         1.94989         0.46806
C         11.09062         3.44257         0.33562
C         12.30794         1.25535         0.39016
C         12.25082         4.09747        -0.38266
C         11.04129         6.34041        -0.49574
C         11.01700         7.67374        -0.72341
C         12.32931         5.62823        -0.09431
C         12.28802         8.45086        -0.79811
C         11.04601        10.53453        -0.21078
C         11.09007        12.04781        -0.38615
C         12.31847         9.84243        -0.37755
C         12.32699        12.68554         0.18059
C         11.12268        14.88362         0.06924
C         11.11011        16.33574         0.49659
C         12.31993        14.11534         0.65270
C         12.30688        16.99901         0.47461
C         11.13538        19.14166         0.18277
C         12.35161        18.46591         0.40854
C         13.55901         1.83452        -0.25630
C         13.55534         3.37663        -0.08036
C         14.88591         1.34387         0.35664
C         14.85934         4.11635        -0.13465
C         13.61503         6.20278        -0.80313
C         13.59299         7.72680        -0.86433
C         14.87284         5.65973        -0.06850
C         14.84335         8.49091        -0.60815
C         13.60045        10.51156         0.03538
C         13.58681        12.01900        -0.16156
C         14.86958         9.84414        -0.46678
C         14.89688        12.72174        -0.03344
C         13.60618        14.88733         0.38190
C         13.56973        16.25306         0.42190
C         14.92431        14.14607         0.51240
C         14.82167        16.99248         0.83476
C         13.58359        19.14960         0.42179
C         14.82605        18.49672         0.67686
C         16.07094         1.98708         0.09178
C         15.86081         3.16526        -0.85874
C         17.26198         1.80166         0.89611
C         17.67302         3.81738        -1.17262
C         16.14878         6.30919        -0.60659
C         16.12612         7.78841        -0.79358
C         17.21281         5.72528        -1.51888
C         17.20919         8.52824        -1.55689
C         16.17339        10.54124        -0.49090
C         16.19782        11.93994         0.02859
C         17.32582         9.94363        -0.93678
C         17.47843        12.71000         0.00864
C         16.06254        14.92031        -0.19773
C         16.08670        16.38411         0.24076
C         17.35521        14.20414         0.15217
C         17.32918        17.06341         0.68252
C         16.01574        19.16101         0.89801
C         17.24425        18.41322         1.38308
C         18.41644         2.56144         0.89014
C         18.74716         3.54585        -0.17698
C         19.42561         2.39395         1.90885
C         19.91893         4.50718        -0.06897
C         18.54399         6.41785        -1.14980
C         18.49050         7.75079        -1.40266
C         19.91011         5.85230        -0.80430
C         19.73743         8.43246        -1.85308
C         18.72099        10.56243        -0.68050
C         18.70431        12.13272        -0.75985
C         19.83579         9.91108        -1.51449
C         20.06731        12.81422        -0.42153
C         18.30067        14.81675         0.91224
C         18.53409        16.24707         0.97152
C         20.21371        13.83235         0.54410
C         19.73666        16.85945         1.21420
C         18.58009        19.08029         1.16632
C         19.75658        18.33619         1.15050
C         20.44389         3.28841         2.07515
C         20.62486         4.46364         1.24956
C         21.38075         5.51747         1.70899
C         20.78957         6.89904        -0.16427
C         20.95877         7.57381        -1.49948
C         21.57111         6.71196         0.92675
C         22.19694         8.24338        -1.99215
C         21.00694        10.42357        -1.99832
C         21.16656        12.73996        -1.30804
C         22.13951         9.54684        -2.34306
C         22.19385        13.69887        -1.32259
C         21.16640        14.86904         0.51877
C         21.02490        16.06287         1.49632
C         22.16482        14.79478        -0.45963
C         22.25881        16.92226         1.43269
C         21.01681        18.99026         1.08230
C         22.22642        18.27508         1.22270
O         14.29739         3.65418         1.14165
O          3.95881         8.16785         0.97305
O          7.76612         3.96557         1.60550
O         10.09215        10.04903         0.82261
O         16.94685         5.62577        -2.74051
O         14.29542        12.54324        -1.35583
O         10.62846         4.17449         1.50470
O          5.33216         3.51140        -1.21480
O         20.04698         3.27552        -0.84327
O          7.39187        13.24798         1.52162
O         17.03293        12.04998         1.25637
O         13.00628         8.18802        -2.13884
O         21.30903        11.75376        -2.27141
O          9.82985        13.27676         1.44644
O         15.54290         2.92514        -2.07419
O         20.71597         6.17618        -2.08887
O         16.86250        17.17583        -0.71654
O         16.72629         7.18605         0.41772
O          5.11308        14.33370         1.53325
O         19.22406        13.94937         1.53636
O         16.85815         8.66733        -2.93892
H         17.69778         8.70916        -3.45599
O         18.43019        12.49396        -2.12573
H         19.15514        12.15662        -2.69452
O          8.79595         6.56089         1.38783
H          7.92913         6.67350         1.84983
O         11.27366        14.92429        -1.39337
H         12.14103        15.34296        -1.59356
O         14.79823         6.01099         1.31388
H         15.54860         6.61583         1.52876
O          6.02461        16.60091         2.18825
H          5.45094        15.87448         2.53749
O         18.03468         3.38421        -2.34262
H         18.97410         3.06787        -2.31737
O         13.68692        10.39573         1.50901
H         13.33652         9.51835         1.77569
O         19.04488        10.21087         0.68910
H         18.37185        10.64662         1.26809
O          2.30572        14.37499        -2.23888
H          2.36918        15.30580        -2.54244
O          3.44191        12.01648        -2.15180
H          3.12825        12.87618        -2.52402
O          3.64776        10.77360         1.28684
H          3.58049         9.84490         1.62702
O          7.09355        17.17726        -1.27573
H          7.50253        16.36942        -1.67999
O          9.81798        17.17983         2.30734
H          9.04113        17.75724         2.52976
O          3.30906         5.94870        -1.95002
H          3.82694         5.13776        -2.15328
O          7.51475        18.68244         2.10325
H          6.79952        18.12169         2.49824
O         14.90345        16.75850         2.28210
H         14.88474        15.77987         2.43800
O          8.53265         1.83733        -1.22713
H          8.56036         0.88222        -1.44793
O          4.53981         9.84216        -2.17187
H          3.59675         9.64392        -2.37748
O          6.97501         5.57541        -1.68413
H          7.75010         5.15364        -2.12729
O          8.46191        14.84511        -1.51736
H          9.36806        15.01514        -1.87384
O         13.71536         5.73240        -2.16068
H         13.44450         6.48182        -2.74716
O          6.91033         9.78283        -2.55245
H          6.73102        10.67243        -2.92107
O          8.88586        11.15356        -2.41767
H          9.20169        10.35000        -2.89794
O         12.19769        14.15113         2.09964
H         12.97589        13.68825         2.47853
O          1.95767         8.29779        -2.16763
H          2.18785         7.36348        -2.39586
O         11.17408        12.22060        -1.83087
H         11.34487        13.17664        -2.01150
O         15.22444        14.04452         1.93309
H         15.94825        13.37267         2.04224
O         19.61339         8.38322        -3.31749
H         19.73154         7.43733        -3.56839
O         13.46397         1.43546        -1.63306
H         14.21497         1.86481        -2.12568
O         17.10752        18.21834         2.81769
H         16.23647        17.76397         2.96031
O         12.40627         5.88146         1.30698
H         12.93862         5.17570         1.73981
O          6.12873         6.50616         1.74066
H          5.39982         7.10575         2.02497
O          9.55356         5.14953        -1.90297
H         10.33066         4.57382        -2.15015
O         20.95783        15.54366         2.84343
H         20.21326        14.89911         2.87294
O          6.31858        10.20370         1.01297
H          5.67654        10.68006         1.58897
O         11.95825         3.89011        -1.78915
H         12.70665         4.28849        -2.30698
O         15.78650        14.88598        -1.60141
H         16.35538        15.56804        -2.02163
O          2.25839        13.07392         1.19284
H          2.61023        12.23936         1.58832
O          9.69515         8.52259        -2.53729
H          9.48383         7.63213        -2.89253
H          0.29160         1.75558         1.84622
H          0.22374         4.14776         1.25329
H          2.40168         0.44983         1.67590
H          0.38288         6.11519         1.14457
H          0.17804         8.36879         0.30168
H          0.13039        10.23483        -1.01230
H          0.08660        12.66109        -0.79980
H          0.11075        14.71054        -0.36527
H          0.24888        17.16122        -0.18555
H          1.57247        19.23955        -0.46037
H          4.78802         0.35829         1.29368
H          3.74303        20.42303        -0.21183
H          7.30025         0.31519         1.15732
H          6.11406        20.38166         0.24039
H          9.84773         0.20924         0.78029
H          8.70395        20.25668        -0.15099
H         12.28287         0.16003         0.51618
H         11.15839        20.21929        -0.04330
H         14.86261         0.53340         1.10512
H         13.57930        20.24459         0.30680
H         17.18464         1.03592         1.68649
H         16.04052        20.26159         0.85922
H         19.30775         1.56564         2.62255
H         18.64317        20.17938         1.14021
H         21.12432         3.17075         2.93175
H         21.89295         5.42668         2.67762
H         22.33823         7.44240         1.21818
H         23.11730         7.65676        -2.12158
H         23.03317        10.04636        -2.74484
H         22.99326        13.59883        -2.06779
H         22.92579        15.58312        -0.54333
H         23.21929        16.42498         1.63142
H         21.04372        20.08441         0.98159
H         23.17155        18.83805         1.20513
