         244
 CSIRO Nanostructure Databank - Neutral Graphene Oxide Data Set
C          1.54701         1.85313         0.45872
C          1.54738         3.27646         0.60459
C          2.69093         1.17148         0.13781
C          2.71067         4.01743         0.54299
C          1.55540         6.18343         0.95545
C          1.55954         7.56104         1.05033
C          2.73231         5.45988         0.65290
C          2.74780         8.31417         0.84677
C          1.56201        10.49680         1.09967
C          1.57652        11.88178         1.22727
C          2.73819         9.74709         0.93740
C          2.77763        12.64119         1.07357
C          1.62895        14.82344         1.51407
C          1.68757        16.19254         1.74076
C          2.78838        14.08505         1.19006
C          2.90284        16.89689         1.61158
C          2.95874        18.32817         1.86718
C          3.93944         1.87180        -0.02292
C          4.03349         3.28198         0.51732
C          5.03735         1.25136        -0.55336
C          5.16100         4.08641        -0.08396
C          3.95229         6.19133         0.44277
C          3.95586         7.61428         0.54116
C          5.13655         5.48875         0.03675
C          5.12697         8.39079         0.13361
C          4.05695        10.46979         1.00543
C          3.97317        11.95826         0.78240
C          5.09896         9.78938         0.16956
C          5.18436        12.67232         0.51837
C          4.03923        14.77710         1.07559
C          4.08042        16.20203         1.25472
C          5.22372        14.07568         0.75664
C          5.30580        16.92393         1.01191
C          4.07344        19.04375         1.62571
C          5.28777        18.43849         0.97309
C          6.25719         1.97338        -0.86864
C          6.27395         3.40995        -0.63444
C          7.30126         1.32063        -1.47703
C          7.41010         4.15364        -1.10601
C          6.43047         6.24801        -0.09003
C          6.28274         7.72014        -0.35862
C          7.45113         5.56947        -0.96955
C          7.40083         8.47416        -0.82711
C          6.11345        10.60068        -0.57492
C          6.30648        11.99143        -0.03725
C          7.39300         9.85515        -0.83922
C          7.53609        12.67393        -0.30114
C          6.55906        14.76176         0.87427
C          6.48984        16.27156         0.71990
C          7.63643        14.10082         0.05051
C          7.68399        17.02671         0.35513
C          6.59319        18.95793         1.58883
C          7.77779        18.41874         0.80206
C          8.54118         1.99304        -2.00245
C          8.45398         3.49788        -1.80202
C          9.79341         1.41309        -1.31912
C          9.53584         4.27463        -2.20585
C          8.57838         6.29681        -1.36692
C          8.50266         7.78124        -1.59162
C          9.71935         5.61069        -1.83973
C          9.83404         8.49751        -1.58483
C          8.51832        10.62942        -1.49452
C          8.60422        12.03560        -0.93822
C          9.85213         9.87742        -1.52433
C          9.94305        12.72451        -0.86299
C          8.68399        14.86768        -0.38336
C          8.71561        16.31406        -0.28300
C          9.82003        14.23562        -1.15664
C          9.86514        16.96240        -0.88892
C          8.89047        19.22998         0.78044
C         10.05931        18.95379        -0.01953
C         11.07839         1.90378        -1.33445
C         11.43553         3.16907        -1.97349
C         12.12583         1.31226        -0.51675
C         12.41914         3.98860        -1.51626
C         11.06268         6.24988        -1.70254
C         11.04811         7.73703        -1.93157
C         12.36726         5.49712        -1.57751
C         12.40593         8.47603        -1.78489
C         11.10848        10.58655        -1.53700
C         11.06420        12.08552        -1.69948
C         12.33070         9.92373        -1.51389
C         12.38774        12.77621        -1.44154
C         11.14359        14.93434        -0.84495
C         11.10338        16.39949        -1.00991
C         12.41349        14.21823        -1.11916
C         12.33301        17.22767        -1.34323
C         11.38837        19.12195         0.26758
C         12.47400        18.50147        -0.47694
C         13.28486         1.96920        -0.19015
C         13.60210         3.32512        -0.84816
C         14.35789         1.23597         0.47726
C         14.47119         4.35987        -0.15540
C         13.70640         6.24641        -1.78793
C         13.59495         7.72686        -1.43822
C         14.82286         5.55227        -0.96614
C         14.69718         8.47004        -0.71662
C         13.58466        10.63162        -1.36524
C         13.58293        12.07683        -1.42117
C         14.76628         9.94787        -1.07660
C         14.84074        12.78014        -1.32354
C         13.62398        15.02101        -1.39103
C         13.62392        16.39734        -1.33461
C         14.85412        14.24009        -1.61606
C         14.89640        17.10614        -1.32564
C         13.70250        19.11014        -0.44130
C         14.91145        18.51923        -0.95557
C         15.22562         1.87790         1.33716
C         15.24194         4.06901         0.93065
C         16.52629         1.55388         1.80473
C         16.53440         4.64400         1.24631
C         16.00702         6.34690        -0.51022
C         16.05916         7.80326        -0.94390
C         16.83438         5.88758         0.62894
C         17.17116         8.58254        -0.27554
C         15.99568        10.66266        -0.89537
C         16.01370        12.09400        -1.06837
C         17.17570         9.98558        -0.45517
C         17.24183        12.88141        -0.65642
C         16.17018        14.98189        -1.67385
C         16.10302        16.44362        -1.48553
C         17.41240        14.26233        -1.27020
C         17.37247        17.18580        -1.49284
C         16.09891        19.22831        -0.88660
C         17.36591        18.60896        -1.11794
C         17.46838         2.50255         2.26602
C         17.49270         3.93277         2.01836
C         18.63353         1.89872         2.88198
C         18.64411         4.75916         2.57260
C         18.02036         6.60572         0.94471
C         18.20478         7.94213         0.43158
C         18.97268         6.03105         1.81558
C         19.39673         8.67014         0.78269
C         18.40649        10.71572        -0.21301
C         18.49363        12.05405        -0.55512
C         19.55097        10.01802         0.34992
C         19.80532        12.71865        -0.55330
C         18.58770        14.93587        -1.12568
C         18.68823        16.40190        -1.34778
C         19.86036        14.22756        -0.81688
C         19.84927        17.12800        -0.79928
C         18.56668        19.26254        -0.91142
C         19.80289        18.55025        -0.73816
C         19.77349         2.59153         3.19902
C         19.88308         3.98133         2.93359
C         21.08631         4.66347         3.12652
C         20.21062         6.68680         2.05134
C         20.42635         8.02453         1.52313
C         21.23233         6.00405         2.75871
C         21.62541         8.73862         1.75857
C         20.76197        10.71399         0.61101
C         20.92045        12.08854         0.17018
C         21.79179        10.03600         1.30711
C         22.06008        12.84477         0.39085
C         21.02072        14.97115        -0.30686
C         20.99364        16.43534        -0.31875
C         22.10402        14.24486         0.15977
C         22.10578        17.18406         0.11335
C         20.95189        19.26313        -0.31831
C         22.09233        18.58196         0.08358
O         16.10753         5.43147        -1.68246
O         10.55051         3.65732        -2.94865
O         18.22776        16.87110        -2.64687
O         11.91367        14.46398         0.29874
O         11.66466         5.96836        -0.36847
O         14.75803         3.11479         1.82199
O         20.19226        13.25992        -1.87058
O         11.77401         8.15867        -3.10273
O          9.73926        18.31625        -1.24113
O         15.52683        14.50549        -2.90597
O          6.58820        20.38382         1.58665
H          6.38683        20.66168         0.66743
O         16.29023         7.85771        -2.37330
H         17.04332         7.26230        -2.57681
O          8.11882        10.74708        -2.91195
H          7.17442        11.05361        -2.90065
O         14.03686         6.13193        -3.18760
H         14.87326         6.63945        -3.31661
O          5.29548        18.89243        -0.41293
H          4.49037        18.54099        -0.84729
O         16.96003        13.22368         0.76957
H         16.72303        12.39018         1.23185
O          4.51719        10.34355         2.42048
H          3.78956        10.67294         2.99029
O         14.44612         8.38341         0.72308
H         13.57068         8.78462         0.90822
O         10.34738        12.51732         0.51451
H          9.77198        13.06011         1.09515
O          8.62518         1.70031        -3.42059
H          9.40211         2.19794        -3.76460
O          8.06007         7.88245        -2.99630
H          8.09787         8.84488        -3.23686
O         18.12365         5.24351         3.88814
H         17.90900         4.44610         4.41881
O         10.75870        12.28407        -3.12000
H         11.32467        11.67888        -3.64513
O          7.01888         6.18378         1.27470
H          6.88621         5.27082         1.61087
O          5.53577        10.82131        -1.97630
H          5.17950         9.95395        -2.27156
O         12.18240        17.70675        -2.70944
H         11.33381        18.20310        -2.73963
O          6.97875        14.54042         2.28303
H          6.24119        14.84075         2.85632
O          9.50473        14.50147        -2.53850
H          9.95340        13.83185        -3.10942
O         14.46620         2.90039        -1.96690
H         14.76272         3.70472        -2.44867
O          4.41132         3.13137         1.93825
H          3.69988         2.61107         2.36918
H          0.59100         1.31760         0.54091
H          0.57336         3.77112         0.72397
H          2.65786         0.09247        -0.07356
H          0.61366         5.64884         1.13780
H          0.62244         8.07259         1.30664
H          0.58800         9.98874         1.13751
H          0.62199        12.39813         1.39201
H          0.66143        14.31443         1.61723
H          0.77586        16.74151         2.01659
H          2.06012        18.81230         2.27925
H          4.97563         0.19103        -0.84494
H          4.10012        20.12616         1.82112
H          7.21027         0.23856        -1.66079
H          6.65938        18.62074         2.65758
H          9.62601         0.50685        -0.71257
H          8.85657        20.14923         1.38856
H         11.94087         0.31218        -0.09476
H         11.66726        19.70810         1.15712
H         14.50763         0.17636         0.21868
H         13.79701        20.09090         0.05169
H         16.84188         0.49877         1.79331
H         16.08050        20.27915        -0.56022
H         18.60074         0.81468         3.06456
H         18.56111        20.34123        -0.69342
H         20.64204         2.05945         3.61528
H         21.95127         4.11817         3.53329
H         22.19887         6.49103         2.94107
H         22.44823         8.27138         2.31533
H         22.74014        10.54911         1.51545
H         22.94550        12.38447         0.85081
H         23.02061        14.76624         0.46729
H         23.01365        16.67517         0.46243
H         20.92211        20.36169        -0.29152
H         22.98162        19.13975         0.40853
