         244
 CSIRO Nanostructure Databank - Neutral Graphene Oxide Data Set
C          1.24196         2.20041        -0.02625
C          1.26888         3.56623        -0.39514
C          2.41347         1.50537         0.18307
C          2.47166         4.23975        -0.56346
C          1.27962         6.51011        -1.03174
C          1.32673         7.84488        -0.91213
C          2.50238         5.66159        -1.00589
C          2.56507         8.59568        -0.47198
C          1.41389        10.80335        -0.87489
C          1.39684        12.19618        -0.91764
C          2.61419        10.08612        -0.79762
C          2.57633        12.92321        -0.71833
C          1.28681        15.00870         0.02022
C          1.26152        16.28694         0.46494
C          2.48846        14.44885        -0.70684
C          2.44636        17.12382         0.48248
C          2.43041        18.43534         0.98443
C          3.67742         2.15440         0.06258
C          3.70993         3.54911        -0.30897
C          4.86263         1.43084         0.31999
C          4.95784         4.21568        -0.35474
C          3.81452         6.38491        -0.93529
C          3.84384         7.86635        -0.80177
C          5.02163         5.61761        -0.56324
C          5.04273         8.53806        -0.79881
C          3.85086        10.79469        -0.78465
C          3.80576        12.22777        -0.63808
C          5.09919        10.00896        -0.91807
C          4.98049        13.04823        -0.20724
C          3.75803        15.17288        -0.30698
C          3.69819        16.53173         0.12115
C          4.99176        14.53128        -0.44591
C          4.90343        17.25149         0.36766
C          3.61182        19.15756         1.18160
C          4.87131        18.57976         0.91785
C          6.16516         1.96835         0.21904
C          6.22319         3.50334         0.10392
C          7.25009         1.14721         0.61826
C          7.44712         4.18003        -0.47853
C          6.23979         6.32540        -0.53473
C          6.28390         7.75853        -0.73914
C          7.45663         5.56535        -0.54459
C          7.50950         8.40660        -0.73380
C          6.32033        10.55250        -1.29215
C          6.57677        11.88640        -1.77245
C          7.63442         9.82177        -1.18487
C          7.70016        12.58154        -1.34984
C          6.19568        15.31121        -0.35512
C          6.14030        16.63215         0.08349
C          7.54102        14.75176        -0.57301
C          7.46360        17.31179         0.32817
C          6.10112        19.23811         1.23759
C          7.34372        18.63000         1.05757
C          8.61876         1.41399         0.27202
C          8.69778         3.48746        -0.51777
C          9.84953         1.13246         0.83866
C          9.87589         4.03586        -0.04880
C          8.74896         6.26102        -0.60472
C          8.74025         7.72509        -0.44091
C          9.96909         5.49348        -0.17894
C          9.88655         8.39996        -0.09464
C          8.64479        10.59678        -0.34128
C          8.75079        12.05758        -0.53299
C          9.84472         9.84859         0.15797
C          9.82049        12.74779         0.04635
C          8.59103        15.07506         0.22996
C          8.39926        16.33348         1.07270
C          9.73892        14.15440         0.63992
C          9.75593        17.02288         1.33797
C          8.57857        19.24204         1.36949
C          9.79435        18.52113         1.28751
C         11.09289         1.82835         0.47978
C         11.08849         3.28308         0.21046
C         12.31932         1.20431         0.69652
C         12.26699         4.00708         0.30573
C         11.06153         6.21873         0.52057
C         11.07744         7.69923         0.42616
C         12.33630         5.43947         0.79974
C         12.36503         8.42404         0.50783
C         11.10314        10.58791         0.33987
C         11.04267        12.00796         0.34321
C         12.33043         9.88193         0.47210
C         12.26400        12.72815         0.46881
C         11.07170        14.87177         0.70878
C         11.05677        16.27928         1.20829
C         12.24437        14.17510         0.60287
C         12.38280        17.06906         1.27677
C         11.01097        19.18100         1.06738
C         12.24006        18.50872         0.83253
C         13.58491         1.86169         0.49493
C         13.54174         3.29807         0.15141
C         14.82034         1.25313         0.62644
C         14.80550         4.10704         0.09750
C         13.57935         6.24947         0.45548
C         13.54334         7.70185         0.55826
C         14.77506         5.58335         0.27855
C         14.84586         8.42758         0.81465
C         13.54745        10.61039         0.50014
C         13.50565        12.03084         0.49044
C         14.82495         9.90752         0.48372
C         14.73945        12.76260         0.35815
C         13.56715        14.86253         0.86234
C         13.52429        16.34193         0.60648
C         14.73075        14.14003         0.23512
C         14.58410        17.01804         0.09814
C         13.36124        19.17191         0.35234
C         14.58617        18.48504         0.06328
C         16.06796         1.98495         0.52941
C         16.06910         3.39562         0.33126
C         17.30974         1.33503         0.69257
C         17.27024         4.13404         0.26301
C         16.03347         6.29407         0.18566
C         16.06218         7.70636         0.28528
C         17.25040         5.56843         0.09997
C         17.27336         8.40498         0.15153
C         16.00919        10.57878         0.37233
C         16.06197        12.07453         0.51552
C         17.34138         9.87477         0.50217
C         17.19201        12.73199        -0.24441
C         15.88466        14.84026        -0.23894
C         15.74636        16.31901        -0.58155
C         17.05790        14.14364        -0.53308
C         17.06588        17.03004        -0.21266
C         15.75319        19.18278        -0.21970
C         17.02319        18.53072        -0.40667
C         18.52946         2.04836         0.62676
C         18.51191         3.45821         0.38517
C         19.79521         1.40986         0.80549
C         19.73395         4.18872         0.25444
C         18.47932         6.27743        -0.05537
C         18.46984         7.71008        -0.10144
C         19.70760         5.57379        -0.04854
C         19.70037         8.44090        -0.33072
C         18.47251        10.59571        -0.23309
C         18.34712        12.01321        -0.51678
C         19.61914         9.88256        -0.54141
C         19.48663        12.71666        -1.25243
C         18.25318        14.88075        -1.01053
C         18.25405        16.38335        -0.89895
C         19.54244        14.19353        -0.97804
C         19.53232        17.07778        -0.76748
C         18.18541        19.22315        -0.59771
C         19.50994        18.57691        -0.92062
C         20.97435         2.13746         0.77504
C         20.97559         3.52527         0.50214
C         22.17792         4.32731         0.57953
C         20.98742         6.25739        -0.45221
C         20.91258         7.77000        -0.43769
C         22.18171         5.63979         0.23808
C         22.12025         8.51750        -0.70108
C         20.77480        10.52543        -1.29872
C         20.80495        12.01870        -1.07046
C         22.08347         9.82283        -1.04949
C         21.95014        12.74613        -0.83799
C         20.74395        14.89707        -0.80663
C         20.74024        16.37318        -0.68086
C         21.94699        14.15539        -0.72919
C         21.91243        17.11094        -0.38000
C         20.69942        19.22516        -0.28202
C         21.84704        18.50110        -0.10136
O          3.28139         5.89353        -2.23946
O          7.69174        13.93661        -1.70971
O         10.65447         6.98614         1.69674
O         10.37581        16.41434         2.52994
O          5.85780        12.57987         0.51664
O          9.75971         5.86763        -1.60034
O         18.02284        15.75632        -2.21753
O         14.16057         3.64465        -1.16003
O          8.72263        10.21355         1.05591
O          8.67384         2.16330        -0.92003
O         13.83778        14.70607         2.30445
H         13.46706        15.51085         2.75607
O         17.29426        16.79547         1.20501
H         16.57312        17.23569         1.70351
O         19.10212        12.61296        -2.69380
H         19.59647        13.30909        -3.17835
O         21.17273         5.92473        -1.88520
H         21.17108         4.94603        -1.95685
O         17.65058         9.88983         1.93911
H         17.43945        10.80102         2.26292
O          5.66582        12.53972        -2.54240
H          6.02116        13.44543        -2.69996
O         20.50401        10.31931        -2.72467
H         19.80219        10.97164        -2.97931
O          2.29054        14.80371        -2.12432
H          2.14750        15.77332        -2.16329
O          8.23219         9.78799        -2.52409
H          7.70486         9.17528        -3.07924
O          6.32273         3.87339         1.54155
H          5.51047         3.54455         1.98358
O         15.03226         8.39519         2.27473
H         15.90050         8.83217         2.45481
O         12.43298         5.25931         2.24758
H         11.94021         6.01560         2.65199
O          7.76872        16.02872         2.32570
H          8.06992        15.12971         2.59615
O         19.67417        18.77180        -2.39178
H         19.03787        18.16715        -2.83269
O          2.49259         8.56149         1.00337
H          3.23880         9.09682         1.34979
O          9.41956        13.85544         2.06020
H          9.94664        14.47853         2.61581
O         12.75985        17.14875         2.69454
H         11.90580        17.20541         3.19228
O          8.10239        17.58125        -0.95138
H          7.56943        18.25630        -1.42057
O         15.48259        16.44548        -1.99545
H         16.26868        16.07939        -2.47281
O         16.39526        12.30616         1.95789
H         15.82623        13.04043         2.28451
H          0.27299         1.69304         0.07878
H          0.31666         4.08462        -0.57227
H          2.38730         0.44106         0.45770
H          0.32023         6.02738        -1.27550
H          0.38390         8.40378        -0.99920
H          0.45308        10.27376        -0.91155
H          0.43747        12.71517        -1.04444
H          0.36890        14.40522         0.07048
H          0.33770        16.69729         0.90129
H          1.46794        18.88920         1.26322
H          4.76107         0.36008         0.55842
H          3.56240        20.17395         1.59836
H          7.00411         0.21449         1.15362
H          6.05464        20.23030         1.71285
H          9.91159         0.39807         1.65739
H          8.61255        20.31959         1.59531
H         12.33187         0.14727         1.00440
H         10.98617        20.27296         0.92277
H         14.87451         0.17568         0.84586
H         13.31309        20.25747         0.17392
H         17.33281         0.24932         0.87019
H         15.72470        20.28287        -0.25405
H         19.82355         0.32836         1.00270
H         18.14600        20.32160        -0.67711
H         21.93266         1.63147         0.96354
H         23.09093         3.85523         0.97375
H         23.11268         6.21893         0.32188
H         23.08767         7.99680        -0.65216
H         23.01787        10.33451        -1.32107
H         22.91680        12.23244        -0.73462
H         22.90521        14.66640        -0.57210
H         22.87585        16.59902        -0.25645
H         20.66449        20.29716        -0.04051
H         22.74891        18.99637         0.28815
