         349
 CSIRO Nanostructure Databank - Neutral Graphene Oxide Data Set
C          1.47988         3.40184        -0.33835
C          0.37001         4.04239        -0.83940
C          1.26032         6.27291        -0.36509
C          0.25362         5.46129        -0.87205
C          1.24095         7.72010        -0.38961
C          0.03295         8.44085        -0.52725
C          1.23360        10.57656        -0.48863
C          0.02580         9.82303        -0.52618
C          1.22765        12.01667        -0.39885
C          0.03235        12.72405        -0.15022
C          1.22558        14.84771        -0.15055
C          0.03521        14.09857        -0.00816
C          1.20274        16.29400        -0.00494
C          0.08732        16.97729         0.52082
C          1.13892        19.16424         0.31091
C          0.09484        18.38025         0.73609
C          1.16876        20.65749         0.56813
C         -0.05812        21.42824         0.11715
C          1.21107        23.54325         0.29132
C         -0.00971        22.77488         0.02732
C          1.23488        24.96682         0.35868
C          0.04753        25.75889         0.08173
C          1.26563        27.89017         0.33577
C          0.06155        27.11149         0.00307
C          1.40054        29.27037        -0.18369
C          3.74217         3.55439         0.65095
C          2.58491         4.14644         0.21048
C          3.71673         6.43946         0.30438
C          2.43058         5.62101         0.24310
C          3.70113         7.79269        -0.23755
C          2.47450         8.46381        -0.35930
C          3.70730        10.64259        -0.62924
C          2.47386         9.89837        -0.50325
C          3.67351        12.05382        -0.74666
C          2.45183        12.74258        -0.54636
C          3.65392        14.92080        -0.65443
C          2.43727        14.17707        -0.46681
C          3.58060        16.35133        -0.64757
C          2.36336        17.02642        -0.36401
C          3.55174        19.21691        -0.50273
C          2.21811        18.52302        -0.51471
C          3.63391        20.70739        -0.40610
C          2.38911        21.39067         0.03547
C          3.64505        23.47956         0.66769
C          2.41991        22.83031         0.42217
C          3.67230        24.88114         0.72158
C          2.47749        25.62031         0.56395
C          3.84922        27.78249         0.39079
C          2.52904        27.10357         0.63731
C          3.88073        29.21676        -0.05260
C          2.58934        29.88525        -0.33702
C          6.22900         3.60667         1.05251
C          4.91656         4.34622         1.18422
C          6.15379         6.37915         0.42653
C          4.98115         5.71923         0.53518
C          6.22455         7.74800        -0.14494
C          4.96036         8.48849        -0.51829
C          6.20440        10.64878        -0.83498
C          4.96465         9.96652        -0.64873
C          6.21810        12.08890        -1.08449
C          4.88559        12.80230        -1.26152
C          6.09314        15.05655        -1.03479
C          4.90107        14.28866        -0.91404
C          6.04139        16.49440        -1.06213
C          4.76606        17.09366        -0.97630
C          6.44517        19.59750        -0.92133
C          4.55085        18.51578        -1.11521
C          6.28028        20.77112        -0.18494
C          4.93501        21.33503         0.10207
C          6.14714        23.34209         1.40020
C          4.88295        22.65891         0.82934
C          6.22586        24.81682         1.00955
C          4.95566        25.64420         0.97334
C          6.31889        27.58717        -0.06099
C          4.98431        26.85347        -0.01618
C          6.37476        29.06447        -0.24162
C          5.12285        29.74580        -0.75482
C          8.69792         3.56644         0.95407
C          7.42125         4.25916         0.96742
C          8.61871         6.37925         0.30748
C          7.41992         5.77499         0.99379
C          8.67974         7.83822         0.19194
C          7.39040         8.62570         0.27552
C          8.63689        10.23455        -1.09618
C          7.39732         9.87170        -0.58838
C          8.65777        12.34124        -1.52009
C          7.36194        12.89951        -1.24680
C          8.60245        15.02209        -1.09418
C          7.37320        14.35335        -1.13363
C          8.63735        16.50043        -1.14409
C          7.34227        17.27273        -1.18674
C          8.69502        19.26424        -0.22334
C          7.49121        18.69566        -0.72482
C          8.70064        20.60270         0.22621
C          7.45624        21.30330         0.40985
C          8.66826        22.95312         1.66881
C          7.42325        22.53133         1.12769
C          8.62090        25.05623         1.63524
C          7.40683        25.53867         1.07935
C          8.67613        27.72962         1.01664
C          7.51484        26.90896         0.49477
C          8.78199        29.10564         0.38707
C          7.55400        29.72853        -0.10073
C         11.16826         3.51816         0.69819
C          9.90164         4.19153         0.69244
C         11.16583         6.35110         0.15449
C          9.90409         5.60166         0.23272
C         11.15276         7.72878        -0.08555
C          9.88810         8.43716        -0.13025
C         11.10062        10.59263        -0.62197
C          9.87737         9.77495        -0.62129
C         11.09550        12.08146        -0.91037
C          9.87475        12.90199        -1.20295
C         11.11373        15.00517        -1.04972
C          9.89422        14.33812        -1.05521
C         11.18649        16.50865        -1.14869
C          9.89882        17.19020        -0.73665
C         11.22334        19.28648        -0.41924
C          9.92903        18.49743        -0.33798
C         11.25775        20.57710         0.38445
C          9.99420        21.40084         0.27493
C         11.15572        23.31982         1.62311
C          9.92754        22.53367         1.27508
C         11.11019        24.80452         1.56382
C          9.90506        25.58253         1.27139
C         11.24198        27.62296         0.64355
C          9.95200        26.91875         0.91282
C         11.15940        29.08022         1.10254
C          9.97548        29.75398         0.44050
C         13.61385         3.46359         0.43938
C         12.35462         4.15857         0.36939
C         13.58678         6.25743        -0.12931
C         12.40010         5.60486         0.13274
C         13.65539         7.75644         0.03720
C         12.36761         8.46947        -0.28696
C         13.62093        10.56839        -0.63337
C         12.38624         9.84429        -0.55716
C         13.66334        11.98881        -0.79584
C         12.42028        12.73471        -1.16438
C         13.64425        14.92887        -0.74794
C         12.39946        14.26062        -1.14104
C         13.63129        16.29442        -0.43074
C         12.42503        17.07092        -0.49493
C         13.66221        19.07853         0.09124
C         12.44851        18.43552        -0.18269
C         13.76289        20.47028         0.64915
C         12.42390        21.17612         0.73599
C         13.75109        23.27699         0.90994
C         12.51106        22.56899         1.29371
C         14.09772        24.54388         1.40639
C         12.25764        25.58600         1.74225
C         13.68567        27.53322         1.07836
C         12.43816        26.90472         1.24859
C         13.65421        29.00047         0.91141
C         12.50604        29.72478         0.90785
C         16.05967         3.41694         0.35909
C         14.80664         4.08120         0.13722
C         16.07174         6.21247        -0.38466
C         14.79494         5.44363        -0.53161
C         16.08349         7.63470        -0.75139
C         14.86049         8.43792        -0.55210
C         16.12512        10.58720        -0.79199
C         14.86169         9.81429        -0.67402
C         16.08860        12.00962        -0.36606
C         14.86747        12.70079        -0.63685
C         16.13242        14.82896        -0.22085
C         14.95419        14.18261        -0.92107
C         16.11873        16.27217        -0.16763
C         14.88544        16.98231        -0.23612
C         16.09797        19.14460        -0.15960
C         14.88046        18.39121        -0.09537
C         16.05791        20.55682        -0.42597
C         14.82621        21.28579        -0.10971
C         15.48723        23.75693        -0.68591
C         14.69120        22.66037        -0.02336
C         16.28373        24.64609         0.27582
C         15.11094        25.43020         0.89490
C         15.96535        27.60929         0.13988
C         14.93933        26.82817         0.82609
C         16.00960        28.99027         0.12859
C         14.97404        29.74369         0.91655
C         18.50204         3.43242         0.65957
C         17.25978         4.08934         0.35332
C         18.60999         6.12383        -0.25100
C         17.27576         5.59709         0.24902
C         18.68682         7.59574        -0.64337
C         17.41082         8.35581        -0.90129
C         18.58012        10.48765        -0.07913
C         17.44615         9.85692        -0.79809
C         18.40457        11.79547         0.46808
C         17.24173        12.64139         0.13690
C         18.36742        14.88585         0.76488
C         17.22661        14.10148         0.26499
C         18.55178        16.27029         0.25944
C         17.31684        17.01074        -0.03488
C         18.53408        19.18229         0.10463
C         17.32110        18.42805        -0.08374
C         18.50742        20.57581        -0.16680
C         17.31413        21.17620        -0.69215
C         18.52994        23.29756        -1.06390
C         17.51009        22.40919        -1.42361
C         18.43655        24.77960        -1.42629
C         17.34566        25.46559        -0.43604
C         17.46068        27.73481        -1.78833
C         17.08398        26.91740        -0.56566
C         17.87516        29.14239        -1.46901
C         17.05350        29.74170        -0.54355
C         19.70125         4.10007         0.69326
C         21.01134         6.17258         0.24336
C         19.81325         5.47362         0.29108
C         21.03511         7.57766         0.04894
C         19.88772         8.31964        -0.21475
C         20.76397        10.27450         1.00297
C         19.75406         9.72328         0.18549
C         20.54171        11.46792         1.67272
C         19.35965        12.17442         1.44237
C         20.35593        15.24619         2.22572
C         19.27823        14.45424         1.70251
C         20.59464        16.50953         1.78205
C         19.76500        17.09730         0.72941
C         20.83276        19.38556         0.84763
C         19.71731        18.57755         0.58555
C         20.80093        20.76004         0.60203
C         19.65651        21.38153         0.07016
C         20.62276        23.66837         0.16040
C         19.58959        22.81257        -0.21882
C         20.67595        25.00710        -0.30277
C         19.72813        25.53749        -1.14562
C         19.80220        27.50475        -2.78211
C         19.86531        26.95953        -1.52111
C         19.77680        28.94798        -2.97114
C         18.91814        29.74568        -2.26469
O         11.04846        11.61504         0.49357
O          8.60311        24.04634         2.57597
O         12.53718        13.45668        -2.41380
O         11.27537        19.69385        -1.79393
O          1.74439        27.68679         1.71131
O         13.33165        25.04128         2.46938
O          4.16818        28.83769         1.33267
O          5.83772         7.81988        -1.53854
O         15.21098        24.15331        -1.80884
O          5.47843        19.24304        -1.84692
O         16.73036         7.89336        -2.08864
O         18.81829         6.52251        -1.62376
O         16.94585        10.48392        -2.01440
O          8.67648        11.11548        -2.17668
O         19.73128        16.44174        -0.58529
O         12.02035        22.73244         2.65195
O          8.07902        17.00816        -2.42330
O          7.29857        26.91552        -0.95409
O         18.05351        26.41256         0.44130
O          4.70791        21.41573         1.58493
O          2.74600        21.33449        -1.40648
O          2.82962         6.26336         1.49965
O         17.02420        27.42086        -2.88591
O         19.10195        13.22013         2.33559
O          9.01569         5.73959        -0.95173
O         16.80816        22.57693        -2.57526
H         16.09545        21.90984        -2.64568
O         14.63309         5.17549        -1.97544
H         13.75481         4.75707        -2.10159
O         14.82610        31.08192         0.44439
H         14.62129        31.04761        -0.51247
O          5.92304        23.37234         2.84042
H          5.60562        22.47206         3.08443
O         13.82443         7.93149         1.51801
H         13.55582         8.85156         1.73283
O          4.68534        12.79132        -2.73000
H          5.45781        13.24076        -3.13672
O          4.71725         4.59707         2.61730
H          3.89192         5.14049         2.67630
O         11.37589        16.88732        -2.55255
H         11.30584        17.88294        -2.57404
O         16.88979        23.82252         1.28262
H         17.45208        24.40275         1.83845
O          4.98209        29.48453        -2.15769
H          5.83751        29.66448        -2.59814
O         11.45103        27.66811        -0.79689
H         11.42974        26.75243        -1.14559
O          1.26788        20.81827         2.01703
H          0.46027        20.43796         2.42100
O         10.11217        21.98222        -1.07131
H         10.48978        21.23033        -1.63469
O         20.19387        27.78182        -0.47999
H         19.98090        27.33118         0.36456
O         18.04954        24.98825        -2.77026
H         17.18094        24.55663        -2.93336
O          1.73273        18.74135        -1.90946
H          1.90242        19.69622        -2.10938
O          4.69179        26.36308        -1.33553
H          5.55066        26.22417        -1.79530
O         10.90969        29.06618         2.54799
H         11.03558        29.97877         2.88352
O         14.26284        20.30547         2.01124
H         14.12895        21.15489         2.48437
O          8.41102        27.91532         2.43292
H          9.21310        28.35447         2.81465
O          4.89243        26.20289         2.30787
H          5.01005        25.46538         2.94764
O          7.46817         6.20193         2.39267
H          6.72174         5.74851         2.85059
O          7.15534         8.99556         1.66717
H          7.29115         8.17754         2.20664
O         17.24577         6.09255         1.65232
H         16.42091         5.75999         2.06843
O         15.22570        14.30812        -2.36376
H         14.43410        13.94784        -2.83259
H          1.54105         2.30438        -0.35530
H         -0.45329         3.44439        -1.25495
H         -0.64049         5.90736        -1.32944
H         -0.92062         7.89662        -0.57511
H         -0.94028        10.34194        -0.57759
H         -0.91718        12.18490        -0.03875
H         -0.91437        14.60841         0.19969
H         -0.79882        16.41755         0.84735
H         -0.76231        18.83568         1.25731
H         -0.99751        20.88875        -0.07715
H         -0.92454        23.31729        -0.25129
H         -0.88759        25.23229        -0.15328
H         -0.83818        27.65370        -0.32551
H          0.47604        29.79008        -0.48031
H          3.82127         2.45629         0.63092
H          2.62877        30.89757        -0.76786
H          6.20596         2.50578         1.07658
H          5.20787        30.86014        -0.58828
H          8.69150         2.48682         1.17171
H          7.59249        30.80755        -0.32443
H         11.19426         2.44984         0.96291
H         10.07862        30.77608         0.04247
H         13.62000         2.43293         0.82737
H         12.57458        30.82509         0.89582
H         16.04236         2.34264         0.60382
H         15.32049        29.81878         1.98682
H         18.47109         2.35657         0.88780
H         17.14710        30.81229        -0.30558
H         20.61803         3.56219         0.97704
H         21.94570         5.66723         0.52874
H         21.98573         8.09031         0.25118
H         21.68834         9.71863         1.20041
H         21.25871        11.84044         2.41514
H         20.95201        14.81947         3.04376
H         21.33378        17.14211         2.29468
H         21.76080        18.93290         1.22398
H         21.70613        21.34780         0.80530
H         21.45919        23.29606         0.76559
H         21.55782        25.61226        -0.04324
H         19.75191        26.84371        -3.65814
H         20.43926        29.39672        -3.73063
H         18.97014        30.84222        -2.34512
