         732
 CSIRO Nanostructure Databank - Neutral Graphene Oxide Data Set
C         22.95607        24.50715         0.96565
C         21.76740        25.19973         1.14438
C         22.93291        27.33704         0.96205
C         21.74883        26.59836         1.13967
C         22.92683        28.79251         0.93539
C         21.72631        29.52418         1.03130
C         22.91563        31.64735         0.84479
C         21.72102        30.91046         0.98919
C         22.89543        33.09838         0.77998
C         21.75403        33.83701         0.99827
C         22.92130        35.99230         0.81315
C         21.74832        35.25563         0.93220
C         22.91391        37.44191         0.89960
C         21.76146        38.20748         0.83858
C         22.96113        40.36692         0.83919
C         21.79011        39.62270         0.77227
C         23.00878        41.78021         0.50126
C         21.83006        42.45410         0.11266
C         23.06595        44.49143        -0.42587
C         21.87291        43.74275        -0.39895
C         23.07118        45.75247        -1.18571
C         22.36146        45.91978        -2.39424
C         23.59689        47.97276        -2.88260
C         22.59530        47.04215        -3.19364
C         25.50543        23.06299         0.65367
C         25.40980        24.50406         0.56119
C         24.17911        25.20271         0.78741
C         25.39085        27.36609         0.66278
C         24.16506        26.63656         0.79447
C         25.39250        28.79310         0.70390
C         24.15278        29.51194         0.80471
C         25.40067        31.65985         0.68755
C         24.14697        30.93698         0.76020
C         25.41440        33.07253         0.63561
C         24.13965        33.81703         0.31741
C         25.39563        35.95335         0.69203
C         24.18187        35.28563         0.68753
C         25.45084        37.40454         0.83827
C         24.19092        38.13355         1.14627
C         25.54406        40.38636         1.13004
C         24.20174        39.65691         1.20238
C         25.48888        41.80703         0.61337
C         24.24935        42.50202         0.47008
C         25.50417        44.61854         0.19903
C         24.25360        43.91121         0.13143
C         25.60937        46.00325         0.12602
C         23.92351        46.80943        -0.82526
C         25.53551        48.63340        -1.38286
C         24.31893        47.84882        -1.68221
C         25.59762        49.95024        -1.83553
C         27.72010        23.12841        -0.46476
C         26.61844        22.39822         0.26096
C         27.81705        24.55806         0.00436
C         26.61089        25.23737         0.33143
C         27.84702        27.37152         0.38736
C         26.61437        26.66392         0.46818
C         27.85584        28.79397         0.51200
C         26.62521        29.50348         0.63642
C         27.86919        31.63919         0.63800
C         26.62986        30.93644         0.67266
C         27.87401        33.06542         0.64113
C         26.63896        33.77955         0.63949
C         27.86283        35.90516         0.47586
C         26.65385        35.22169         0.57985
C         27.84670        37.36608         0.09521
C         26.60260        38.08767         0.56398
C         27.90726        40.28614         0.14392
C         26.61270        39.56650         0.41088
C         27.95111        41.74742         0.31306
C         26.73551        42.44816         0.42957
C         28.03480        44.58758         0.07369
C         26.78610        43.93104         0.60541
C         28.02223        45.97163        -0.26066
C         26.79172        46.69561        -0.31215
C         27.98585        48.70740        -1.03978
C         26.73388        48.01713        -0.85499
C         27.98774        50.09560        -1.42390
C         26.78452        50.69979        -1.77867
C         30.28135        20.33771        -0.83220
C         29.06737        21.02794        -0.71370
C         30.26970        23.12360        -0.46873
C         29.04328        22.40070        -0.49691
C         30.27663        24.54484        -0.28855
C         29.04340        25.24990        -0.03772
C         30.31091        27.36606         0.16026
C         29.06744        26.66237         0.18194
C         30.32494        28.78463         0.36118
C         29.10005        29.49680         0.49816
C         30.34161        31.63019         0.60997
C         29.10442        30.92307         0.58896
C         30.34616        33.06001         0.61905
C         29.11152        33.77534         0.60367
C         30.35197        35.89525         0.56692
C         29.11115        35.20174         0.53828
C         30.36964        37.36045         0.72944
C         29.08651        38.11882         0.55429
C         30.39071        40.23820         0.30628
C         29.17422        39.55515         0.25137
C         30.41992        41.68269         0.15503
C         29.20895        42.41490         0.18653
C         30.47620        44.52162        -0.25202
C         29.22662        43.85408         0.01050
C         30.47832        45.91634        -0.46344
C         29.25477        46.63719        -0.55631
C         30.45958        48.69973        -1.29612
C         29.21246        48.02200        -0.89053
C         30.45345        50.16470        -1.43372
C         29.24672        50.84064        -1.44986
C         30.35492        53.01893        -1.24318
C         29.22023        52.28294        -1.34119
C         32.79982        18.87760        -0.71539
C         32.77590        20.28996        -0.83264
C         31.50310        21.01219        -0.78299
C         32.72846        23.17563        -0.76288
C         31.50645        22.43331        -0.64624
C         32.71778        24.55782        -0.65525
C         31.50102        25.25278        -0.33974
C         32.76989        27.37587        -0.11163
C         31.51741        26.66215        -0.09249
C         32.77565        28.76806         0.23192
C         31.57738        29.48007         0.42920
C         32.79086        31.63941         0.70028
C         31.57754        30.91697         0.60686
C         32.81301        33.05654         0.69643
C         31.58089        33.77100         0.62339
C         32.81900        35.92541         0.70170
C         31.57411        35.20118         0.60568
C         32.84170        37.35837         0.62274
C         31.63527        38.09763         0.57774
C         32.87887        40.21037         0.29336
C         31.63221        39.50415         0.43363
C         32.88040        41.59941        -0.01373
C         31.68082        42.35624        -0.04632
C         32.93580        44.46381        -0.60221
C         31.70457        43.77121        -0.27648
C         32.98404        45.83832        -0.72088
C         31.77817        46.67448        -0.37932
C         33.03578        48.76500        -1.06710
C         31.76639        47.98561        -1.14593
C         33.00988        50.21225        -1.19292
C         31.73691        50.87855        -1.54897
C         32.90487        53.12903        -1.03370
C         31.67792        52.42038        -1.45596
C         32.87972        54.51384        -0.79796
C         35.22335        18.85771        -0.87444
C         33.98839        18.17887        -0.76700
C         35.22234        20.28177        -0.91240
C         33.98918        20.98672        -0.93298
C         35.27292        23.15259        -0.77983
C         33.99187        22.47107        -1.21636
C         35.24985        24.61339        -0.40799
C         33.97001        25.33601        -0.98928
C         35.13858        27.59122        -0.90798
C         33.95208        26.74774        -0.51526
C         35.30657        28.84126        -0.06577
C         34.07588        29.40812         0.48337
C         35.32038        31.64743         0.65814
C         34.06030        30.91852         0.80564
C         35.30479        33.07379         0.84202
C         34.05500        33.77758         0.84282
C         35.23349        35.95803         1.20368
C         34.01646        35.19846         0.88934
C         35.26593        37.40021         0.98358
C         34.09262        38.08279         0.66282
C         35.36773        40.21647         0.47267
C         34.10609        39.50454         0.45451
C         35.39860        41.57755         0.09360
C         34.16543        42.15119        -0.57964
C         35.48215        44.45772        -0.49135
C         34.19229        43.67323        -0.75277
C         35.43868        45.92003        -0.45957
C         34.25132        46.57213        -1.12794
C         35.52147        48.78573        -0.98141
C         34.20268        48.07128        -0.91140
C         35.42429        50.27439        -0.73531
C         34.17694        50.95811        -1.01355
C         35.31144        53.14625        -0.65288
C         34.13366        52.42056        -0.93177
C         35.28545        54.54772        -0.48222
C         34.04578        55.21662        -0.52724
C         37.70515        16.04867        -1.19887
C         36.50432        16.72897        -1.09353
C         37.70254        18.84605        -0.90490
C         36.47351        18.13464        -0.95528
C         37.69346        20.28099        -0.84019
C         36.47153        20.99611        -0.90389
C         37.74163        23.13147        -0.85374
C         36.47612        22.44004        -0.85019
C         37.73801        24.59550        -1.25448
C         36.48365        25.34615        -0.85420
C         37.76400        27.56731        -0.92598
C         36.44017        26.78610        -1.06281
C         37.78165        28.92389        -0.34227
C         36.51434        29.54572         0.03701
C         37.77281        31.63190         0.72591
C         36.50226        30.92703         0.47793
C         37.77428        33.10774         0.76449
C         36.54826        33.77193         0.90888
C         37.81112        35.97653         1.02422
C         36.56427        35.20691         1.22384
C         37.77798        37.35524         1.10280
C         36.51268        38.13509         1.39145
C         37.79547        40.25099         0.87155
C         36.56730        39.55410         0.87008
C         37.81079        41.67373         0.67759
C         36.58733        42.34720         0.27569
C         37.66855        44.52268         0.82267
C         36.61003        43.74087         0.09395
C         37.71189        45.98436         0.47496
C         36.58726        46.65495        -0.04258
C         37.77247        48.84002         0.11468
C         36.62291        48.10173        -0.20223
C         37.78742        50.28228        -0.03915
C         36.57874        50.96775        -0.42415
C         37.62084        53.12857         0.30994
C         36.65466        52.45843        -0.66197
C         37.69515        54.62180         0.09163
C         36.52998        55.28870        -0.26929
C         37.69901        57.43475        -0.28238
C         36.58568        56.71304        -0.53316
C         40.22301        14.64173        -1.59951
C         40.19767        15.99831        -1.21546
C         38.94025        16.72442        -1.11652
C         40.17695        18.84027        -0.72976
C         38.94259        18.13506        -0.92483
C         40.16170        20.25499        -0.62266
C         38.93348        20.98134        -0.73122
C         40.24904        23.10308        -0.86493
C         38.93401        22.41393        -0.78475
C         40.26964        24.61593        -0.87717
C         38.98919        25.32526        -0.80479
C         40.34629        27.49705        -0.65590
C         39.03400        26.76853        -0.92570
C         40.28838        28.89190        -0.20069
C         39.02129        29.52620        -0.04164
C         40.31943        31.65652         0.41278
C         39.06112        30.89230         0.52406
C         40.31094        33.15935         0.33923
C         39.00345        33.84043         0.69671
C         40.30160        35.97585         0.48147
C         39.02450        35.22723         0.79123
C         40.32579        37.36575         1.06332
C         39.03713        38.10768         1.23752
C         40.26587        40.23687         0.91653
C         39.04347        39.56428         1.05360
C         40.27108        41.66981         0.85013
C         39.02363        42.38862         0.78775
C         40.19217        44.56061         0.84596
C         39.01845        43.83584         0.76150
C         40.20788        46.00719         0.85510
C         38.89092        46.74719         1.01958
C         40.17644        48.86745         0.61750
C         38.96578        48.17515         0.54951
C         40.19924        50.29965         0.48657
C         38.96444        51.00573         0.25679
C         40.12482        53.17922         0.43286
C         38.96350        52.44662         0.27670
C         40.13956        54.62982         0.38648
C         38.93031        55.32402         0.26666
C         40.19640        57.50542         0.06210
C         38.88993        56.82952         0.41968
C         40.23619        58.88430        -0.09680
C         42.61485        14.56759        -1.29386
C         41.42120        13.94033        -1.65594
C         42.62681        15.91438        -0.90584
C         41.41721        16.65987        -0.90581
C         42.59349        18.74476        -0.27931
C         41.41709        18.09013        -0.62918
C         42.56630        20.17919         0.02853
C         41.38466        20.97587        -0.34268
C         42.69302        23.08257        -0.19271
C         41.45119        22.36314        -0.40981
C         42.69768        24.55067        -0.22538
C         41.51689        25.30367        -0.46013
C         42.74257        27.41644        -0.05491
C         41.54296        26.70438        -0.32932
C         42.74381        28.84927         0.09159
C         41.51144        29.54900         0.12143
C         42.78671        31.70421         0.52724
C         41.51537        30.98772         0.33904
C         42.77498        33.03850         0.88656
C         41.47707        33.76561         1.13208
C         42.76732        35.93458         0.88185
C         41.58205        35.24572         0.83583
C         42.78139        37.40336         0.77510
C         41.56490        38.12486         0.82440
C         42.75849        40.25024         0.72686
C         41.53261        39.53154         0.84801
C         42.74433        41.68497         0.74837
C         41.49694        42.36002         0.84024
C         42.69476        44.52139         0.57911
C         41.48489        43.83204         1.13993
C         42.67411        46.00404         0.57129
C         41.39726        46.71844         0.83509
C         42.63329        48.87978         0.84035
C         41.42666        48.16851         0.81624
C         42.65885        50.31396         0.74369
C         41.40560        50.99819         0.63870
C         42.68612        53.22238         0.64668
C         41.37982        52.46487         0.72345
C         42.63572        54.64085         0.22767
C         41.40680        55.33590         0.24909
C         42.62434        57.41519        -0.34044
C         41.40119        56.74752        -0.02004
C         42.61354        58.82425        -0.52699
C         41.44498        59.54435        -0.39036
C         45.18926        15.95488        -0.80334
C         43.88845        16.54019        -0.43387
C         45.15674        18.77571        -0.15825
C         43.87308        18.02559        -0.08796
C         45.16976        20.17062        -0.04270
C         43.90133        20.91533         0.18757
C         45.17070        23.05210         0.16980
C         43.87455        22.37100         0.00773
C         45.16471        24.54167         0.16095
C         43.89974        25.27153        -0.03190
C         45.22096        27.40001         0.03012
C         43.95065        26.68007         0.00741
C         45.22102        28.83624         0.14930
C         43.99950        29.55531         0.23979
C         45.27387        31.66717         0.64653
C         44.02440        30.96386         0.45288
C         45.27246        33.02055         1.00535
C         44.00912        33.74568         1.37563
C         45.23032        35.92713         1.00582
C         44.04917        35.23809         1.03282
C         45.29000        37.43661         1.08309
C         43.98708        38.12063         0.76394
C         45.24947        40.24499         0.58315
C         43.98836        39.53301         0.68337
C         45.23543        41.67454         0.55471
C         43.98978        42.39823         0.66025
C         45.17871        44.56193         0.49087
C         43.99416        43.81669         0.64827
C         45.23442        45.97461         0.64767
C         43.95524        46.67818         0.92024
C         45.20298        48.90677         1.05215
C         43.90594        48.16332         1.10274
C         45.16079        50.25962         0.37419
C         43.88869        51.03090         0.65541
C         45.14406        53.10987         0.24253
C         43.92711        52.43393         0.47722
C         45.13011        54.51484        -0.33664
C         43.83850        55.29014        -0.14023
C         45.09753        57.30105        -0.80862
C         43.83936        56.65906        -0.44088
C         46.34277        16.65031        -0.67686
C         47.61930        18.75224        -0.35979
C         46.38474        18.06227        -0.35006
C         47.63762        20.17884        -0.29766
C         46.40536        20.88390        -0.13106
C         47.65368        22.98358        -0.07181
C         46.43345        22.30648        -0.06383
C         47.66975        24.45489        -0.29262
C         46.40327        25.24659        -0.26174
C         47.70006        27.41116        -0.49936
C         46.40766        26.71534        -0.16858
C         47.67329        28.86901        -0.12018
C         46.48446        29.54125         0.17029
C         47.77267        31.62608         0.57395
C         46.51982        30.95640         0.45296
C         47.81503        32.99706         1.13297
C         46.52454        33.73440         1.29728
C         47.80828        35.99308         0.98781
C         46.53386        35.24992         1.24863
C         47.75688        37.35605         0.68562
C         46.45611        38.03551         0.28948
C         47.68535        40.27603         0.32807
C         46.47432        39.55248         0.45336
C         47.68086        41.70251         0.21868
C         46.44239        42.37708         0.32008
C         47.69929        44.60066         0.02795
C         46.39631        43.83125         0.11866
C         47.69869        46.03131         0.37715
C         46.46274        46.67745         0.66493
C         47.72757        48.89410         0.62780
C         46.49009        48.13491         0.92604
C         47.67078        50.29861         0.65040
C         46.43985        51.03525         0.56549
C         47.64185        53.23267         0.41820
C         46.38705        52.42991         0.41114
C         47.63174        54.59521        -0.15694
C         46.35120        55.36074         0.09024
C         46.28402        56.71032        -0.58020
C         50.07573        18.70058        -0.44537
C         48.89701        18.05244        -0.33565
C         50.13417        20.17123        -0.77189
C         48.87875        20.89252        -0.31292
C         50.13163        23.00506         0.37444
C         48.89184        22.27318        -0.12256
C         50.23298        24.45077        -0.10051
C         48.96421        25.21292        -0.24545
C         50.18818        27.38573         0.21345
C         48.84776        26.65795         0.24985
C         50.23905        28.81750        -0.22655
C         48.93018        29.60653        -0.21549
C         50.25398        31.68695         0.28347
C         48.98294        31.00478         0.22421
C         50.28905        33.08907         0.51506
C         49.09541        33.79404         1.02602
C         50.27797        35.94898         0.71679
C         49.06460        35.28252         0.97087
C         50.32341        37.41916         0.72720
C         48.96704        38.16375         0.70542
C         50.12414        40.26715         0.00894
C         48.94573        39.58698         0.27453
C         50.15923        41.70443        -0.07932
C         48.92597        42.42478         0.06675
C         50.17498        44.55735         0.04609
C         48.95697        43.83904         0.08351
C         50.16747        45.99417         0.13682
C         48.93725        46.71642         0.36119
C         50.19383        48.82807         0.38499
C         48.96383        48.15905         0.48823
C         50.22771        50.28563         0.60319
C         48.94390        51.04009         0.77090
C         50.14782        53.13739        -0.09935
C         48.95991        52.52176         0.53888
C         50.03184        54.39962        -0.62385
C         48.80068        55.14032        -0.59951
C         52.69454        20.35965        -0.95990
C         51.44641        20.82115        -0.34070
C         52.71066        23.02967         0.07005
C         51.45720        22.25575         0.18341
C         52.69160        24.47384         0.22236
C         51.49040        25.15296         0.23123
C         52.72393        27.31272        -0.23374
C         51.47712        26.62960         0.27408
C         52.69127        28.80418        -0.01904
C         51.52120        29.53158        -0.01078
C         52.70639        31.69907         0.09257
C         51.48663        30.98179         0.07092
C         52.70977        33.09199         0.27329
C         51.50194        33.80364         0.43597
C         52.70999        35.97168         0.25630
C         51.51233        35.25440         0.50123
C         52.67946        37.39517         0.00937
C         51.49607        38.11024         0.18603
C         52.61853        40.28037        -0.39699
C         51.34419        39.49128        -0.40938
C         52.63436        41.66780        -0.44204
C         51.38275        42.40676        -0.25123
C         52.61295        44.56770        -0.30730
C         51.40422        43.83959        -0.16862
C         52.62976        45.97633        -0.16649
C         51.40215        46.69270         0.04374
C         52.65642        48.81904         0.10345
C         51.42593        48.12572         0.16063
C         52.72125        50.29641         0.44998
C         51.43776        51.03165         0.21147
C         52.62788        53.02432        -0.49725
C         51.40478        52.37804        -0.12735
C         53.86093        21.03895        -0.77665
C         55.17366        23.08557        -0.05549
C         53.90803        22.37119        -0.21509
C         55.15783        24.45498         0.34801
C         53.95531        25.20077         0.34408
C         55.17964        27.35673         0.38392
C         53.98041        26.62443         0.28576
C         55.23767        28.76271         0.13395
C         53.98757        29.47876        -0.17698
C         55.25645        31.62811         0.19143
C         53.98191        30.98635        -0.14540
C         55.25496        33.08942         0.39613
C         53.97640        33.83808         0.40852
C         55.13810        35.95554        -0.22149
C         53.96541        35.29037         0.11100
C         55.11705        37.38331        -0.45540
C         53.89451        38.06275        -0.39650
C         55.11543        40.25620        -0.93756
C         53.82150        39.49973        -0.72737
C         55.11037        41.72294        -0.73673
C         53.88664        42.38442        -0.60048
C         55.13774        44.57849        -0.47321
C         53.84769        43.87634        -0.82769
C         55.12958        45.98357        -0.30959
C         53.87539        46.69942        -0.21377
C         55.13348        48.83433        -0.07962
C         53.87781        48.11165        -0.07421
C         55.15067        50.26133        -0.12866
C         53.91953        50.98875        -0.12620
C         53.83080        52.33117        -0.51783
C         57.63662        23.14674        -0.08233
C         56.41998        22.46437        -0.24937
C         57.69176        24.45825         0.39202
C         56.42024        25.11250         0.69058
C         57.70673        27.38399         0.54448
C         56.42826        26.68704         0.75502
C         57.69686        28.78246         0.40246
C         56.44505        29.47910         0.25205
C         57.68676        31.69119         0.66113
C         56.43132        30.92834         0.27379
C         57.67615        33.11152         0.11344
C         56.49745        33.78439         0.01879
C         57.66849        35.92842        -0.25492
C         56.39914        35.17541        -0.56782
C         57.65429        37.41642        -0.42816
C         56.36274        38.12332        -0.66590
C         57.61501        40.26269        -1.01338
C         56.36713        39.49102        -0.81310
C         57.60371        41.72580        -0.79919
C         56.37191        42.42669        -0.70862
C         57.58921        44.59165        -0.52302
C         56.36319        43.87250        -0.54882
C         57.60524        45.99343        -0.32868
C         56.36727        46.69202        -0.21182
C         57.59452        48.84079        -0.03256
C         56.36371        48.12494        -0.09900
C         57.58101        50.25241        -0.08685
C         56.39074        50.94439        -0.17463
C         60.16345        24.52395         0.53926
C         58.93047        25.20423         0.52446
C         60.17370        27.34855         0.46154
C         58.93103        26.64171         0.54727
C         60.17523        28.79692         0.36161
C         58.94583        29.51825         0.36335
C         60.16738        31.65136         0.20248
C         58.95354        30.93549         0.33643
C         60.17304        33.09185         0.07234
C         58.94297        33.80355        -0.11830
C         60.22212        35.89367        -0.66088
C         58.93737        35.17806        -0.33899
C         60.15438        37.40862        -0.54935
C         58.94675        38.08496        -0.65426
C         60.17334        40.29132        -0.70569
C         58.94446        39.52669        -0.94908
C         60.10495        41.71336        -0.69033
C         58.85578        42.39773        -0.76038
C         60.16594        44.62221        -0.57665
C         58.84830        43.87299        -0.78855
C         60.10667        46.03824        -0.14931
C         58.85717        46.71379        -0.16037
C         60.04632        48.78856         0.38245
C         58.84432        48.11736         0.06610
C         61.36898        25.22343         0.53829
C         61.37824        26.61433         0.47183
C         61.38267        29.53454         0.25273
C         61.38060        30.90967         0.14623
C         61.37034        33.87243         0.22662
C         61.39108        35.21675         0.00316
C         61.36438        38.16064        -0.56995
C         61.36693        39.54658        -0.56109
C         61.31445        42.45895        -0.41273
C         61.34600        43.80480        -0.27744
C         61.28037        46.72975         0.17192
C         61.24691        48.09785         0.45762
O         49.75775        38.02007         1.93678
O         40.45026        23.81469        -2.14861
O         58.30173        39.85996        -2.25041
O         43.83895        47.26548         2.25955
O         46.93875        24.75959        -1.56088
O         49.73353        50.66330         1.95875
O         54.68422        33.52440         1.69618
O         57.61405        36.77907         0.93394
O         48.67686        33.15758         2.29704
O         29.55451        37.79074         1.90056
O         54.30908        39.81574        -2.09412
O         35.87764        35.53895         2.48016
O         34.14718        29.90859         1.85935
O         39.81499        37.58093         2.40315
O         46.50751        34.52987         2.54236
O         54.03599        30.26704        -1.43440
O         35.04696        43.98753        -1.88513
O         48.39110        53.22974         1.69773
O         24.49213        46.78263         0.45838
O         50.91044        27.23136         1.48666
O         31.12736        47.97186        -2.43913
O         56.38319        25.85970         1.94358
O         51.57342        21.10101         1.07144
O         37.15103        27.34164        -2.24160
O         49.65083        29.21846        -1.47263
O         26.94198        39.92399        -0.98021
O         42.04301        52.98125         1.94221
O         43.13046        20.47509         1.35327
O         38.49050        31.01670         1.88512
O         45.24636        23.83996         1.44125
O         39.90885        27.25521        -2.03868
O         49.90010        23.14619         1.76048
O         46.92367        44.27723        -1.18587
O         31.82937        51.73224        -2.73658
O         49.76227        24.89029        -1.43260
O         42.59000        45.25157        -0.68993
O         45.98339        48.67650         2.23496
O         24.14020        38.86164         2.43533
O         59.61580        44.42690        -1.91982
O         43.82161        16.99618         0.95799
O         43.91816        33.73229         2.85740
H         44.80779        34.03225         3.17977
O         31.91435        47.08940         1.02827
H         31.87762        46.28251         1.58464
O         24.05654        33.79863        -1.16091
H         24.85983        34.24724        -1.50271
O         45.28647        54.32253        -1.78190
H         44.41823        54.05750        -2.15096
O         37.08206        52.90748         1.64659
H         37.75601        53.19663         2.29704
O         37.28902        44.45900         2.27657
H         37.29382        43.51069         2.53419
O         37.22094        52.62555        -1.99387
H         36.67279        52.10771        -2.62093
O         34.41183        46.45086        -2.59179
H         34.60504        45.49555        -2.77015
O         53.73876        44.02091        -2.30001
H         54.48241        43.51990        -2.69960
O         38.68652        57.08353         1.85580
H         37.83138        56.67332         2.10517
O         47.91649        27.30478        -1.92123
H         47.74833        26.36240        -2.17568
O         41.67484        43.93184         2.59387
H         40.92830        43.47104         3.03154
O         36.44970        38.24448         2.85844
H         36.35569        37.32108         3.19926
O         34.19173        41.59937        -1.94202
H         34.79147        42.18087        -2.46579
O         60.42917        35.68485        -2.11673
H         60.46186        34.71639        -2.27158
O         37.80877        24.58464        -2.72181
H         38.73033        24.30926        -2.95361
O         40.32102        36.18656        -0.96604
H         40.47697        35.29692        -1.37231
O         40.58549        33.47090        -1.07484
H         39.98802        32.92860        -1.63204
O         46.29671        55.58387         1.52130
H         46.83137        54.89615         1.97414
O         26.03816        40.53244         2.49365
H         25.57484        39.84753         3.03606
O         35.07030        24.71294         1.04389
H         35.76919        24.17952         1.47789
O         57.66704        31.81098         2.11790
H         56.87055        32.32999         2.36465
O         41.16483        33.62496         2.53832
H         42.00930        33.73129         3.03996
O         45.09539        49.90887        -1.06111
H         45.08754        50.74688        -1.57108
O         34.01856        22.57768        -2.68223
H         34.07211        23.54260        -2.90191
O         51.08726        39.21581        -1.85138
H         51.95341        39.21543        -2.31707
O         34.77954        28.05976        -2.26267
H         35.64217        28.19239        -2.73483
O         27.29119        23.20010        -1.87700
H         26.43892        23.68586        -1.89555
O         45.58609        37.74622         2.47375
H         44.91411        37.31212         3.03984
O         52.72572        27.11825        -1.67999
H         53.34133        27.77007        -2.07821
O         50.14032        20.27615        -2.23436
H         49.31244        19.87001        -2.56726
O         46.20863        37.75429        -1.11403
H         46.83344        38.28331        -1.65290
O         56.38829        35.02647        -2.02184
H         55.58701        34.52475        -2.27993
O         27.84840        37.39502        -1.36432
H         27.55327        38.30384        -1.62979
O         35.96587        48.67763        -2.39179
H         35.53559        47.86338        -2.76512
O         26.86703        44.12505         2.07359
H         26.25506        43.48032         2.49098
O         34.12227        25.33598        -2.44023
H         34.32177        26.26189        -2.73046
O         52.91195        50.33944         1.92361
H         52.02129        50.29467         2.33873
O         38.65266        46.84498         2.47377
H         38.21923        46.00144         2.75538
O         48.41208        26.58362         1.61728
H         49.20649        26.41723         2.17732
H         22.93839        23.40950         0.95435
H         20.82828        24.64632         1.28275
H         20.78739        27.10908         1.27959
H         20.76488        29.00343         1.12879
H         20.75594        31.43062         1.04857
H         20.80703        33.34190         1.25422
H         20.78787        35.77036         1.06964
H         20.78475        37.71867         0.71859
H         20.83206        40.12339         0.58017
H         20.86147        41.93972         0.14398
H         20.94733        44.19964        -0.77618
H         21.66036        45.14482        -2.73459
H         23.83984        48.77213        -3.59650
H         22.04043        47.15152        -4.13565
H         24.67134        22.49992         1.09615
H         24.69181        50.42020        -2.24375
H         26.66487        21.30454         0.36274
H         26.76370        51.74718        -2.10769
H         30.24772        19.25177        -0.98895
H         28.12829        20.46467        -0.80028
H         30.28026        54.08513        -0.98895
H         28.25061        52.78003        -1.19987
H         31.86435        18.31644        -0.59434
H         31.93383        55.06759        -0.86209
H         33.96028        17.08381        -0.69804
H         33.99164        56.30050        -0.35914
H         37.67769        14.95855        -1.32277
H         35.57009        16.15544        -1.14659
H         37.70199        58.51106        -0.50515
H         35.71551        57.20157        -0.99486
H         39.29466        14.12267        -1.87004
H         39.32481        59.48539         0.02194
H         43.54286        13.98132        -1.29366
H         41.42725        12.88440        -1.95833
H         43.54528        59.35817        -0.75360
H         41.45204        60.63652        -0.51007
H         45.22607        14.92441        -1.18280
H         45.07390        58.30397        -1.25723
H         47.28455        16.15143        -0.94368
H         47.21294        57.25071        -0.81096
H         51.02035        18.14039        -0.37980
H         48.89984        16.96929        -0.14716
H         50.89743        54.88901        -1.09066
H         48.82957        56.17026        -0.98041
H         52.67755        19.44517        -1.57063
H         52.62269        54.08160        -0.79055
H         54.78456        20.61809        -1.19896
H         54.72787        52.85439        -0.87812
H         58.56583        22.61389        -0.32841
H         56.46235        21.41801        -0.57960
H         58.52233        50.81654        -0.08452
H         56.41087        52.04133        -0.21582
H         60.18238        23.42615         0.56469
H         60.03998        49.86529         0.59478
H         62.31927        24.67267         0.56493
H         62.34576        27.13100         0.43222
H         62.34829        29.01264         0.23248
H         62.33682        31.43661         0.02466
H         62.27673        33.38171         0.61001
H         62.32139        35.77660         0.17355
H         62.32773        37.63521        -0.53421
H         62.33466        40.05868        -0.48141
H         62.23792        41.90009        -0.21453
H         62.27031        44.28843         0.06615
H         62.24731        46.21025         0.18070
H         62.17456        48.62740         0.71317
