         210
 CSIRO Nanostructure Databank - Neutral Graphene Oxide Data Set
C         30.38317        31.68669         0.32910
C         30.44796        32.94357         0.32204
C         30.44779        36.04684         0.26428
C         30.45108        37.29649         0.19689
C         30.46856        40.36313        -0.15527
C         30.37819        41.59768        -0.36975
C         32.81285        28.83956         0.51349
C         31.74802        29.46359         0.41782
C         32.76625        31.61215         0.21214
C         31.53873        30.87738         0.27457
C         32.79701        33.03631         0.22519
C         31.57251        33.78708         0.27831
C         32.80917        35.94172         0.22766
C         31.58099        35.20267         0.26605
C         32.81874        37.37808         0.16422
C         31.59722        38.12208         0.11995
C         32.81623        40.26999        -0.15881
C         31.59469        39.52920        -0.03785
C         32.79043        41.69176        -0.39520
C         31.52428        42.40892        -0.53026
C         32.79641        44.34551        -0.90845
C         31.67801        43.79017        -0.80215
C         35.52920        27.38031         0.11564
C         35.36607        28.75938         0.30833
C         34.14968        29.49196         0.78046
C         35.33197        31.63677         0.20393
C         34.05742        30.83767        -0.01235
C         35.29407        33.06766         0.24900
C         34.04590        33.77779         0.23208
C         35.27651        35.93901         0.32560
C         34.04161        35.20293         0.24478
C         35.27516        37.38816         0.27312
C         34.06309        38.10714         0.13335
C         35.28531        40.26233        -0.11326
C         34.05939        39.54829        -0.04111
C         35.28362        41.68606        -0.34366
C         34.04219        42.39061        -0.50669
C         35.31815        44.50611        -0.83029
C         34.09407        43.80293        -0.78024
C         35.50607        45.90048        -0.97369
C         37.85490        27.38448        -0.41155
C         36.58860        26.78678        -0.21729
C         37.78428        28.80481        -0.23996
C         36.57425        29.47741         0.09123
C         37.79456        31.66484         0.22414
C         36.54670        30.94323         0.18284
C         37.77453        33.08302         0.34548
C         36.51733        33.80070         0.35095
C         37.75123        35.94813         0.80347
C         36.48647        35.21828         0.43011
C         37.73013        37.42133         0.48525
C         36.53427        38.11283         0.32846
C         37.73879        40.25810         0.05098
C         36.53319        39.56061         0.11298
C         37.76718        41.65051        -0.41134
C         36.50998        42.40744        -0.44828
C         37.81735        44.55405        -0.49332
C         36.56668        43.81268        -0.64040
C         37.85570        46.00879        -0.53712
C         36.58558        46.52980        -0.84480
C         40.26771        24.53649        -0.54739
C         39.27881        25.27947        -0.64442
C         40.34706        27.34731        -0.47194
C         39.09266        26.69658        -0.56316
C         40.36227        28.82828        -0.45731
C         39.02636        29.58150        -0.37658
C         40.27176        31.65928         0.25134
C         39.03603        30.98537         0.08260
C         40.23380        33.08095         0.40521
C         39.01813        33.77170         0.37939
C         40.29781        36.00809         0.31857
C         39.00436        35.25528         0.30174
C         40.30658        37.45953         0.59200
C         38.99870        38.13611         0.69385
C         40.30275        40.31476         0.30880
C         38.99686        39.64629         0.48964
C         40.31640        41.71181         0.14281
C         39.08669        42.43266        -0.26659
C         40.17464        44.62224         0.34567
C         39.00157        43.88315        -0.15250
C         40.24936        46.08329         0.17808
C         39.05150        46.73980        -0.26031
C         40.29634        48.79111        -0.04669
C         39.24884        48.13457        -0.30222
C         42.80897        24.49285        -0.03617
C         41.64809        25.10366        -0.80130
C         42.73521        27.33937         0.04946
C         41.58394        26.63666        -0.37584
C         42.72553        28.76099         0.24928
C         41.56973        29.52040         0.02728
C         42.76784        31.61028         0.51794
C         41.53035        30.93331         0.27789
C         42.79234        33.06368         0.77123
C         41.48537        33.82546         0.68658
C         42.77178        35.94222         0.63151
C         41.56751        35.27859         0.49563
C         42.80312        37.43480         0.92158
C         41.49482        38.15212         0.61879
C         42.75882        40.28620         0.37394
C         41.51371        39.59884         0.50033
C         42.75109        41.69102         0.25290
C         41.53631        42.40753         0.21867
C         42.73561        44.65786         0.45068
C         41.50191        43.86730         0.45173
C         42.70164        46.01461         0.68470
C         41.46224        46.77222         0.47179
C         42.83027        48.73037         0.57857
C         41.51690        48.22271         0.34188
C         43.78424        25.22276         0.20933
C         45.17243        27.28825         0.58461
C         43.98670        26.62565         0.34409
C         45.24752        28.74501         0.61836
C         43.93199        29.44432         0.85619
C         45.23750        31.62337         0.53250
C         43.98713        30.92325         0.57532
C         45.27114        33.05658         0.45084
C         44.04914        33.81640         0.61446
C         45.28399        35.97611         0.59872
C         44.01722        35.21137         0.66267
C         45.26004        37.43933         0.29949
C         44.04495        38.15581         0.42843
C         45.26048        40.27641         0.16753
C         44.02527        39.56048         0.31924
C         45.29678        41.70741         0.10386
C         44.00677        42.43731         0.01777
C         45.27120        44.65157         0.29019
C         43.99062        43.94148         0.12157
C         45.25719        45.96875         0.69730
C         44.01333        46.67800         1.16373
C         43.89987        48.12376         0.73456
C         47.60239        27.27565         0.87568
C         46.48839        26.75349         0.71403
C         47.75375        28.73395         0.83785
C         46.44406        29.44703         0.65303
C         47.66886        31.58401         0.13038
C         46.47397        30.89901         0.48501
C         47.68394        32.99491        -0.06111
C         46.49326        33.72080         0.20958
C         47.64260        35.90228        -0.44278
C         46.54224        35.19833         0.31746
C         47.72092        37.38794        -0.14536
C         46.47330        38.11588         0.03339
C         47.71216        40.27355        -0.05799
C         46.48751        39.55585         0.03523
C         47.74544        41.68081         0.03952
C         46.50480        42.40761         0.06390
C         47.81805        44.55348         0.24899
C         46.50903        43.91055        -0.22172
C         47.57098        45.88015         0.58980
C         46.55601        46.61860         0.73044
C         50.24338        28.77543        -0.09241
C         49.00873        29.41434         0.35606
C         50.14283        31.52000        -0.73035
C         48.87435        30.79730        -0.23949
C         50.14063        32.99981        -0.60740
C         48.92759        33.71590        -0.37091
C         50.16481        35.86839        -0.45162
C         48.95011        35.13862        -0.37363
C         50.17009        37.31327        -0.37513
C         48.92598        38.04987        -0.26169
C         50.23907        40.23198        -0.03396
C         48.96314        39.54987        -0.48929
C         50.25871        41.64321         0.20627
C         49.01994        42.38007         0.14731
C         50.29452        44.30916         0.61742
C         48.99433        43.80758         0.33500
C         51.23327        29.38248        -0.55454
C         52.56329        31.60382        -0.83669
C         51.45952        30.75385        -0.76737
C         52.49343        32.86200        -0.79179
C         51.37300        33.72078        -0.66329
C         52.54288        35.95625        -0.55182
C         51.39635        35.12634        -0.55045
C         52.51643        37.20237        -0.42275
C         51.38844        38.04419        -0.32063
C         52.56280        40.23178         0.22060
C         51.41925        39.45758        -0.06499
C         52.64375        41.46192         0.47648
C         51.52835        42.31943         0.48556
C         51.39380        43.72055         0.68910
O         38.62448        41.91308        -1.57427
O         39.74233        29.41525        -1.64928
O         38.90979        39.05855         1.83803
O         43.89448        43.27554        -1.21188
O         39.55880        35.73819        -0.95975
O         48.67657        29.36030         1.75733
O         46.26783        35.67028         1.66441
O         49.16873        30.92369        -1.65875
O         40.67038        44.15276         1.64302
O         42.05303        33.42161         1.99355
O         41.92779        25.06296        -2.17023
H         41.94184        24.13261        -2.47395
O         48.97318        39.66140        -1.96523
H         48.93667        40.61637        -2.18994
O         34.05888        30.43934        -1.40838
H         33.99461        31.24413        -1.96309
O         42.92151        37.51867         2.38237
H         42.20500        36.97956         2.78026
O         34.27021        29.77319         2.16687
H         34.42164        28.93672         2.65314
O         46.48617        44.02208        -1.67447
H         45.57663        43.75630        -1.96043
O         47.21638        35.82349        -1.84535
H         47.86271        36.32381        -2.38817
O         43.98543        46.62573         2.59124
H         44.84128        46.96468         2.92863
O         43.73301        29.32754         2.31838
H         44.39932        29.89702         2.75947
O         37.86345        35.86215         2.26543
H         37.12117        36.36693         2.66028
