         280
 CSIRO Nanostructure Databank - Neutral Graphene Oxide Data Set
C         30.98551        31.60249         2.18850
C         31.08939        32.87496         2.08445
C         30.74761        35.98173         1.33333
C         30.62055        37.18095         1.07124
C         30.48420        40.40790         0.46350
C         30.28401        41.59434         0.08402
C         32.93641        28.81144         0.76993
C         31.89667        29.35749         1.20449
C         33.15840        31.52392         0.94389
C         31.46694        30.77191         1.05297
C         32.95337        32.99434         0.65407
C         32.02683        33.75319         1.54849
C         33.04255        35.89385         0.59714
C         32.05208        35.24030         1.59819
C         32.84772        37.34747         0.29631
C         31.74941        38.17319         0.98745
C         32.74600        40.23489        -0.05676
C         31.58168        39.51891         0.33638
C         32.73681        41.71754        -0.16838
C         31.41158        42.52217         0.02838
C         32.64540        44.38811        -0.85937
C         31.56373        43.82860        -0.62753
C         35.64460        27.31405         0.52448
C         35.40718        28.69173         0.28498
C         34.17297        29.33144         0.31162
C         35.33109        31.49840        -0.31601
C         34.00303        30.78281        -0.12669
C         35.20254        32.96733        -0.75459
C         34.00999        33.72289        -0.12312
C         35.13935        35.90216        -0.85000
C         34.04102        35.21571        -0.03460
C         35.26306        37.39148        -0.53128
C         33.99768        38.11470        -0.29654
C         35.23183        40.30370        -0.29380
C         33.99793        39.58518        -0.18081
C         35.25248        41.65985        -0.57791
C         33.95926        42.34136        -0.80829
C         35.23221        44.54238        -0.94639
C         33.96757        43.82215        -1.16162
C         35.33145        45.91128        -0.65643
C         37.91209        27.24288        -0.14468
C         36.70416        26.67626         0.32871
C         37.85636        28.65961        -0.26509
C         36.63642        29.37872        -0.08472
C         37.78833        31.53633        -0.68580
C         36.52763        30.81627        -0.33033
C         37.75494        33.03116        -0.77521
C         36.47956        33.78190        -0.60989
C         37.72335        35.91295        -0.78156
C         36.45329        35.14269        -0.66156
C         37.71880        37.40827        -0.74051
C         36.42879        38.08762        -0.50864
C         37.76833        40.26758        -0.33253
C         36.49344        39.51823        -0.00006
C         37.70090        41.76405        -0.16792
C         36.53860        42.36100        -1.00176
C         37.67972        44.59652        -0.53025
C         36.48451        43.88039        -0.82881
C         37.67470        45.98543        -0.25804
C         36.38508        46.53220        -0.34663
C         40.40017        24.46752        -0.11242
C         39.30320        25.05869        -0.10292
C         40.49654        27.19591        -0.43876
C         39.10677        26.45692        -0.46031
C         40.41921        28.66967        -0.25342
C         39.13588        29.36552        -0.74469
C         40.19935        31.53601        -0.04095
C         39.09397        30.84721        -0.41603
C         40.14548        33.04350         0.17824
C         39.08399        33.77232        -0.68552
C         40.24225        35.96981        -0.45678
C         38.95501        35.23347        -0.19593
C         40.25028        37.44867        -0.79418
C         38.97922        38.10235        -0.22072
C         40.23104        40.30608        -0.23190
C         38.97646        39.60888        -0.37165
C         40.21043        41.74221        -0.24484
C         39.02302        42.44679        -0.35372
C         40.23146        44.69821        -0.21729
C         39.02436        43.91557        -0.72182
C         40.19857        46.04129        -0.03205
C         38.86525        46.75627         0.22681
C         40.08489        48.77190        -0.15894
C         39.00335        48.15438        -0.40574
C         42.97999        24.49036         0.43777
C         41.70604        25.03562         0.04984
C         42.99101        27.21854         0.19134
C         41.70594        26.43198        -0.04802
C         42.74973        28.65472         0.64082
C         41.49129        29.35582         0.23163
C         42.66915        31.60138         0.79245
C         41.41362        30.82204         0.46381
C         42.70283        33.01808         0.28974
C         41.47809        33.71539        -0.17902
C         42.61050        36.04439         0.19724
C         41.54002        35.21685        -0.58311
C         42.79566        37.43677        -0.49669
C         41.49801        38.19115        -0.34575
C         42.72722        40.25169         0.20479
C         41.47192        39.55997        -0.11531
C         42.69062        41.71968         0.45933
C         41.45614        42.49678         0.10187
C         42.67313        44.67103         0.49779
C         41.57472        43.96517        -0.32860
C         42.61584        46.15597         0.69275
C         41.51240        46.81892        -0.15394
C         42.65432        48.90290         0.32599
C         41.39806        48.36134         0.01675
C         44.02902        25.10101         0.70238
C         45.35514        27.28557         1.04111
C         44.06065        26.53973         1.18527
C         45.39748        28.83931         1.11963
C         44.00356        29.45053         0.90732
C         45.12785        31.58061         0.34500
C         43.99029        30.91642         0.69978
C         45.21677        33.04826         0.51470
C         43.93047        33.80670         0.59122
C         45.21214        35.96787         0.17659
C         43.91930        35.29327         0.45951
C         45.17857        37.42488         0.17502
C         44.00932        38.14774         0.04702
C         45.18079        40.24477         0.74897
C         43.93633        39.57728         0.25096
C         45.19936        41.70724         1.05871
C         44.00453        42.45967         0.54497
C         45.20757        44.68226         1.18068
C         43.99738        43.94997         0.58389
C         45.14407        46.17486         0.57152
C         43.95379        46.95968         1.14159
C         43.74367        48.30453         0.50909
C         47.72661        27.40057         0.38868
C         46.59293        26.84558         0.68824
C         47.59154        28.73029        -0.17312
C         46.47836        29.44663         0.21738
C         47.60536        31.66873        -0.36192
C         46.29582        30.86377        -0.30287
C         47.66450        33.03374        -0.26078
C         46.47608        33.79841         0.22170
C         47.65191        36.00084        -0.32502
C         46.38656        35.26581         0.04223
C         47.73465        37.33061         0.42227
C         46.44691        38.08835         0.53846
C         47.71513        40.21101         1.05132
C         46.49799        39.59112         0.35575
C         47.73379        41.71358         0.81892
C         46.52461        42.47182         1.34683
C         47.71930        44.55980         0.71625
C         46.50290        43.92031         0.89620
C         47.57133        46.00166         0.63216
C         46.54235        46.67145         0.79859
C         50.00081        28.76426        -1.03475
C         48.62818        29.39209        -1.03973
C         50.01397        31.62085        -1.23838
C         48.90031        30.88133        -0.46165
C         50.16046        33.14776        -0.98848
C         48.90287        33.79854        -0.42504
C         50.20109        35.92425        -0.39570
C         48.92084        35.16373        -0.27020
C         50.22547        37.45968        -0.11383
C         48.98438        38.11411         0.35823
C         50.18658        40.24004         0.49231
C         48.99516        39.48002         0.62775
C         49.89595        41.48675        -0.35053
C         48.83411        42.35706         0.33408
C         50.24099        44.22711         0.44619
C         48.93366        43.81969         0.47848
C         51.09129        29.33481        -0.85249
C         52.36297        31.55058        -0.24670
C         51.52553        30.66088        -0.74142
C         52.45453        32.84015        -0.03360
C         51.41964        33.71188        -0.27898
C         52.54661        35.99752        -0.10259
C         51.46526        35.14305        -0.21975
C         52.54596        37.25714         0.15078
C         51.50620        38.14480         0.24620
C         52.61398        40.44646         0.56882
C         51.47534        39.51550         0.89573
C         52.74593        41.67793         0.51383
C         51.92944        42.74924         0.04430
C         51.48749        43.92315         0.65485
O         51.02990        42.19865        -0.90112
O         42.16419        45.26134         1.72856
O         50.22373        33.79941        -2.34612
O         32.88934        37.61105        -1.12990
O         37.70814        32.19791        -1.99431
O         42.30557        32.96865        -1.12355
O         37.82929        36.68215        -2.02698
O         43.85473        34.64106         1.78489
O         46.13584        33.38727         1.60780
O         32.74649        33.29109        -0.76631
O         41.75472        31.25245         1.85753
O         50.18589        36.91472        -1.48980
O         44.33966        43.24368        -0.64962
O         33.88758        42.82277        -2.21321
O         32.35871        42.37188         1.10175
O         44.96641        40.72768         2.11351
O         47.06131        37.47550         1.73027
O         39.82068        26.77738        -1.67914
O         41.76849        42.20183         1.50249
O         43.12761        29.00692         2.00108
O         39.14554        29.31775        -2.18965
H         39.30210        28.37920        -2.45701
O         39.88850        33.20898         1.57954
H         40.49137        32.59580         2.06872
O         51.51725        33.48619        -2.93277
H         52.06903        34.27320        -2.69552
O         34.80502        35.74414        -2.25698
H         35.49035        36.21620        -2.77872
O         47.59457        40.01998         2.47685
H         47.47085        39.04952         2.63440
O         38.98353        37.89142         1.22293
H         38.19978        38.38024         1.58781
O         49.37542        30.75087         0.88732
H         48.69525        30.29246         1.42672
O         39.21977        43.92923        -2.17541
H         40.16084        43.67556        -2.35081
O         44.91187        46.08059        -0.81936
H         45.64134        45.58087        -1.24174
O         30.80674        31.00510        -0.12127
H         31.37331        30.71590        -0.87728
O         33.79897        31.35271         2.18267
H         33.28424        31.81318         2.88047
O         41.95353        46.65272        -1.53557
H         41.34979        47.16477        -2.11609
O         32.46840        35.64388         2.90392
H         32.37604        36.62818         2.96723
O         47.52534        36.35699        -1.73135
H         48.40842        36.68452        -2.03594
O         45.06515        44.74700         2.60924
H         45.58727        43.99991         3.00855
O         46.63312        42.55046         2.79973
H         46.70866        41.61569         3.12158
O         38.74446        46.92771         1.63370
H         37.85315        47.28472         1.83089
O         43.65886        27.33790        -1.08109
H         43.82727        26.43641        -1.43074
O         42.02824        36.36362         1.47379
H         42.41835        35.75786         2.14825
O         36.55522        39.37610         1.47246
H         36.61746        40.30208         1.82052
O         41.94656        43.93494        -1.72377
H         42.17107        44.86471        -1.98423
O         41.89332        35.22088        -1.98116
H         41.24049        34.63263        -2.43286
O         46.62493        39.82862        -1.06719
H         47.52491        40.18370        -1.27669
O         49.23056        41.00752        -1.54549
H         49.91851        40.71633        -2.18163
O         51.43342        39.33632         2.31996
H         52.21579        38.81300         2.59218
O         32.18163        38.40566         2.34759
H         31.53807        39.00775         2.77957
O         43.07323        37.35894        -1.90817
H         42.21921        37.23794        -2.39009
O         40.26920        37.59170        -2.25105
H         39.47078        37.12624        -2.60775
O         45.85489        30.75250        -1.69366
H         46.53422        30.21612        -2.18291
O         34.90874        32.90974        -2.17865
H         34.72643        33.83915        -2.47489
O         37.30631        42.02739         1.23764
H         38.12464        42.06725         1.77977
O         43.57278        26.56864         2.50635
H         44.30650        26.38667         3.12803
O         49.88881        31.34578        -2.59020
H         50.44866        31.96417        -3.11407
O         43.98270        47.12469         2.52628
H         44.36409        46.31588         2.94789
O         45.75825        29.21200         2.47150
H         44.95202        29.11545         3.02658
O         36.78198        42.03476        -2.38090
H         35.99934        42.32736        -2.89888
O         33.28202        30.77841        -1.37908
H         33.57424        31.56981        -1.90327
O         38.66582        35.23620         1.22649
H         38.90863        36.13414         1.57269
O         48.11503        29.43950        -2.36202
H         48.77067        29.91067        -2.92897
O         39.59911        33.84683        -2.03079
H         39.20294        33.08979        -2.53285
