         344
 CSIRO Nanostructure Databank - Neutral Graphene Oxide Data Set
C          1.25482         2.00396        -0.18421
C          1.20130         3.40590        -0.25282
C          2.46974         1.34235        -0.18558
C          2.37371         4.17965        -0.32102
C          1.15407         6.35858        -0.33705
C          1.14483         7.80100        -0.35099
C          2.31929         5.63971        -0.36696
C          2.27774         8.53306        -0.11401
C          1.11698        10.73977        -0.10046
C          1.12971        12.13320         0.00767
C          2.30475         9.99251        -0.05167
C          2.33044        12.83909         0.10373
C          1.11099        15.10620         0.13287
C          1.14701        16.44970         0.00250
C          2.38435        14.33297         0.39801
C          2.40269        17.18406         0.01955
C          2.43090        18.59000         0.12993
C          3.68774         2.07887        -0.26042
C          3.63273         3.50995        -0.32429
C          4.93078         1.40960        -0.27153
C          4.87606         4.24442        -0.35975
C          3.59785         6.44119        -0.55727
C          3.52972         7.75293         0.23651
C          4.86030         5.67257        -0.28186
C          4.80657         8.55094         0.12168
C          3.54532        10.69300         0.06009
C          3.55729        12.11564         0.09202
C          4.79769         9.96114         0.13476
C          4.82013        12.83476         0.13106
C          3.57071        14.97837        -0.34093
C          3.62321        16.46983        -0.08770
C          4.85526        14.25368         0.00427
C          4.83492        17.15146        -0.05178
C          3.63844        19.27442         0.15444
C          4.86801        18.57283         0.07855
C          6.15725         2.11655        -0.42101
C          6.10143         3.55204        -0.43208
C          7.37343         1.43463        -0.60579
C          7.35851         4.35394        -0.67830
C          6.05959         6.38399         0.00544
C          6.02516         7.83944         0.19443
C          7.27289         5.68612         0.00898
C          7.23151         8.55853         0.32900
C          6.03047        10.68214         0.22626
C          6.03781        12.11614         0.23033
C          7.25908         9.97280         0.33290
C          7.28352        12.82121         0.31947
C          6.06660        14.94307         0.03947
C          6.13354        16.42106        -0.28907
C          7.29427        14.25183         0.22717
C          7.27602        17.09591         0.47328
C          6.12132        19.26484         0.08292
C          7.34057        18.57969         0.17532
C          8.63585         2.16602        -0.94210
C          8.62354         3.57285        -0.38103
C          9.86800         1.38076        -0.60814
C          9.73794         4.14284         0.15127
C          8.49819         6.31664         0.46910
C          8.47395         7.82168         0.59620
C          9.78804         5.58426         0.38837
C          9.75290         8.54094         0.36795
C          8.50627        10.70011         0.49402
C          8.49511        12.10068         0.49109
C          9.76468        10.00602         0.57119
C          9.76390        12.87574         0.78518
C          8.53717        14.97405         0.21347
C          8.57840        16.36281         0.24585
C          9.80376        14.18124         0.00651
C          9.81483        17.07449         0.22789
C          8.58042        19.22822         0.13733
C          9.81976        18.51850         0.20677
C         11.02461         1.96961        -0.14335
C         10.99980         3.35443         0.46945
C         12.27593         1.29674        -0.14032
C         12.22885         4.17830         0.02383
C         10.96733         6.26137         0.53720
C         11.00264         7.73355         0.36559
C         12.28303         5.54500         0.73935
C         12.28468         8.43926         0.64058
C         10.99032        10.67853         0.61230
C         11.04515        12.09578         0.58262
C         12.26801         9.92703         0.70365
C         12.26311        12.78246         0.49123
C         11.07618        14.94748         0.29307
C         11.05683        16.36732         0.26001
C         12.27987        14.23228         0.41978
C         12.29008        17.08754         0.32044
C         11.04399        19.20632         0.21759
C         12.28895        18.52154         0.28411
C         13.50794         1.99407         0.00367
C         13.53251         3.41989         0.11678
C         14.75470         1.31257        -0.02679
C         14.74295         4.11170         0.07306
C         13.50397         6.33633         0.31662
C         13.52703         7.69904         0.30993
C         14.82446         5.59639         0.35627
C         14.76614         8.45689         0.10659
C         13.53385        10.64338         0.45534
C         13.51735        12.05770         0.43888
C         14.73671         9.91869         0.25907
C         14.74502        12.77642         0.36987
C         13.53242        14.93472         0.43551
C         13.52313        16.38205         0.39998
C         14.75130        14.21546         0.40411
C         14.73279        17.10732         0.46147
C         13.52102        19.21634         0.28897
C         14.75117        18.53183         0.36298
C         15.96378         2.00420        -0.07643
C         15.97570         3.42153        -0.08515
C         17.24338         1.20479        -0.11039
C         17.21298         4.16990        -0.33140
C         15.85417         6.28223        -0.53350
C         15.91458         7.77529        -0.23659
C         17.18343         5.55777        -0.47340
C         17.18740         8.49207        -0.42416
C         15.94264        10.64993         0.19162
C         15.96476        12.05637         0.29309
C         17.20756         9.95761        -0.13481
C         17.23975        12.76412         0.26985
C         16.00870        14.90460         0.38479
C         15.99416        16.37056         0.60502
C         17.22277        14.21842         0.29006
C         17.27565        17.14601         0.49493
C         16.00131        19.24692         0.25755
C         17.23275        18.61000         0.24578
C         18.50188         2.03678        -0.20998
C         18.44141         3.42652        -0.46980
C         19.72054         1.37043        -0.05525
C         19.67835         4.10339        -0.91290
C         18.40915         6.32798        -0.79118
C         18.46940         7.75725        -0.44939
C         19.70481         5.59911        -0.99759
C         19.69219         8.44696        -0.43910
C         18.48358        10.55875         0.39864
C         18.43579        12.06871         0.29042
C         19.72179         9.87627        -0.16763
C         19.70606        12.78873         0.40202
C         18.48824        14.93474         0.22626
C         18.49114        16.42666        -0.05229
C         19.67866        14.25995         0.26709
C         19.73994        17.16402         0.46989
C         18.47805        19.28228         0.01814
C         19.71134        18.62349         0.04548
C         20.98751         2.00164        -0.25197
C         20.99058         3.37731        -0.81051
C         22.18774         1.36060        -0.05597
C         22.24673         4.17037        -0.70901
C         20.98402         6.32109        -0.78485
C         20.94600         7.74456        -0.62604
C         22.19557         5.60023        -0.75930
C         22.17967         8.47781        -0.53379
C         20.91516        10.56890        -0.20687
C         20.97021        12.02057         0.12339
C         22.17120         9.89219        -0.39240
C         22.12529        12.76909        -0.51217
C         20.97000        14.98743         0.20837
C         20.96823        16.43447         0.03467
C         22.22329        14.22011        -0.09868
C         22.09804        17.11840        -0.54311
C         20.94153        19.28363        -0.20191
C         22.15986        18.59555        -0.39921
C         23.46497         1.97119        -0.57726
C         23.43874         3.48170        -0.47682
C         24.68192         1.34389         0.03730
C         24.64894         4.19491        -0.15259
C         23.50473         6.32925        -0.93842
C         23.43508         7.79591        -0.58575
C         24.68146         5.62600        -0.30300
C         24.62485         8.49605        -0.43650
C         23.40693        10.61930        -0.32899
C         23.43914        12.05278        -0.32725
C         24.63187         9.91295        -0.30307
C         24.63431        12.76898        -0.30932
C         23.44399        14.92389        -0.54083
C         23.38792        16.34527        -0.86534
C         24.65018        14.22618        -0.46098
C         24.69927        17.09850        -1.09567
C         23.41348        19.22445        -0.43964
C         24.65138        18.53443        -0.58765
C         25.80173         2.06981         0.38341
C         25.79272         3.50949         0.26981
C         27.02344         1.40812         0.79149
C         26.98126         4.27405         0.78399
C         25.86451         6.33309        -0.11166
C         25.94610         7.77260        -0.56175
C         27.06527         5.68777         0.28154
C         27.01241         8.49835         0.25426
C         25.87519        10.64276        -0.23212
C         25.88683        12.06372        -0.25367
C         27.09649         9.95050        -0.10917
C         27.12480        12.75515        -0.20299
C         25.88476        14.94401        -0.44779
C         25.91433        16.33761        -0.59241
C         27.10230        14.23005         0.09219
C         27.12978        17.04981        -0.43075
C         25.86238        19.18728        -0.40779
C         27.12100        18.49104        -0.43082
C         28.23001         2.08095         0.89409
C         28.28568         3.51786         0.70967
C         29.47375         1.37645         1.10315
C         29.49162         4.17870         0.66018
C         28.30033         6.38079         0.31833
C         28.33214         7.78035         0.24447
C         29.59104         5.61105         0.17774
C         29.54978         8.51554         0.24585
C         28.32741        10.62341        -0.18365
C         28.34265        12.05874        -0.23789
C         29.55798         9.88237        -0.05316
C         29.61339        12.77286        -0.20369
C         28.39447        14.93604        -0.19761
C         28.37810        16.34108        -0.28868
C         29.61973        14.21005        -0.18368
C         29.61266        17.06921        -0.28423
C         28.33258        19.18264        -0.35393
C         29.58289        18.49997        -0.31377
C         30.66574         2.03809         1.11173
C         30.72850         3.46424         0.90059
C         31.91176         4.17814         1.02819
C         30.81439         6.34347         0.68748
C         30.79426         7.85744         0.81475
C         31.92142         5.61306         1.01062
C         32.05432         8.55202         0.35355
C         30.82251        10.56692        -0.51382
C         30.83069        12.06420        -0.23929
C         32.06743         9.80446        -0.12251
C         32.03986        12.78402        -0.21360
C         30.86027        14.92148        -0.19801
C         30.85516        16.37545        -0.21833
C         32.05639        14.17413        -0.18454
C         32.04697        17.13335        -0.18881
C         30.80306        19.21404        -0.27775
C         32.01393        18.52958        -0.21801
O         20.30391         3.47139        -2.10227
O         12.33136         9.08728         1.95712
O         20.61344        12.29290         1.50283
O         21.92252        14.53581         1.29609
O         16.80432        16.74732         1.80219
O         18.95371         6.08181        -2.17291
O         17.20739         9.52287        -1.52762
O          8.39539         6.99828         1.79849
O         22.42051        16.63695        -1.93797
O         10.39282         8.15449        -0.91588
O         26.52772         8.45025         1.63741
H         27.14733         8.96919         2.19200
O         19.65876        17.11899         1.91901
H         20.51542        17.41526         2.28931
O          8.67378         2.33303        -2.43632
H          9.56473         2.68464        -2.65644
O         26.72242         4.42112         2.23960
H         27.37610         5.06424         2.58965
O          3.67002         6.81402        -1.96718
H          3.86264         6.00528        -2.48649
O         11.02466         3.11385         1.89213
H         11.33324         3.93440         2.34509
O         26.95148        14.30358         1.56949
H         26.96063        15.25391         1.81412
O          3.37324        14.81568        -1.77472
H          3.27523        13.85574        -1.95381
O         21.81836        12.75856        -1.93852
H         22.55827        13.19101        -2.41565
O         30.77210        10.48034        -1.98224
H         30.57768         9.54828        -2.21870
O          2.67844        14.45668         1.81787
H          1.92562        14.07966         2.31825
O         26.31827         7.77898        -1.95881
H         25.62719         7.26296        -2.43876
O         24.87961        17.19238        -2.53714
H         23.97928        17.31424        -2.91916
O         15.36860         6.15711        -1.90352
H         16.07155         6.49106        -2.50192
O          7.36119         4.64648        -2.12320
H          7.65273         3.80437        -2.56472
O         12.01653         4.45334        -1.38496
H         12.79983         4.93645        -1.72754
O          9.84527        13.82834        -1.40950
H          9.76092        14.65525        -1.92901
O          3.41816         7.37622         1.64010
H          3.38991         8.19751         2.17363
O         17.29902         0.33392         1.03335
H         17.24262         0.88590         1.83998
O         18.51057        10.26492         1.83182
H         19.24879        10.79797         2.21110
O          9.71446        13.22659         2.19973
H          9.73536        12.39597         2.71948
O         18.48581        16.59039        -1.49284
H         17.81074        15.99323        -1.87647
O         23.79492         6.29742        -2.39690
H         22.96608         6.53645        -2.86624
O          6.95186        16.96536         1.88511
H          7.69616        17.33621         2.40310
O         30.71147         8.10916         2.26330
H         30.80396         9.07578         2.40065
O         29.79166         5.50328        -1.28237
H         30.57195         4.92542        -1.42315
O         12.46426         5.33252         2.18348
H         12.34352         6.20180         2.62493
O         23.51889         1.64055        -2.01678
H         22.73939         2.06263        -2.43965
O          6.43330        16.52149        -1.70890
H          5.66254        16.16024        -2.19757
O         15.30022         5.71168         1.72729
H         14.58486         5.36187         2.30587
H          0.31773         1.43226        -0.13025
H          0.21754         3.89430        -0.25326
H          2.50859         0.24499        -0.13297
H          0.17811         5.85254        -0.30691
H          0.17807         8.29560        -0.52540
H          0.14770        10.23036        -0.18403
H          0.16783        12.66376         0.01559
H          0.13830        14.59320         0.16013
H          0.21257        17.02307        -0.09925
H          1.48325        19.14379         0.19979
H          4.94763         0.31049        -0.22370
H          3.64902        20.37057         0.24182
H          7.38650         0.33550        -0.57271
H          6.11983        20.36390         0.01220
H          9.90885         0.34610        -0.98647
H          8.61056        20.32310         0.02197
H         12.30648         0.22284        -0.38237
H         11.04187        20.30616         0.18426
H         14.76586         0.21284        -0.04195
H         13.51746        20.31456         0.22396
H         17.21731         0.52781        -1.00850
H         15.95654        20.33806         0.11879
H         19.70152         0.30551         0.21945
H         18.45242        20.35728        -0.22158
H         22.20614         0.33347         0.33942
H         20.94587        20.38343        -0.26956
H         24.70399         0.24535         0.10705
H         23.45577        20.30860        -0.24749
H         27.00512         0.31354         0.90685
H         25.86921        20.26560        -0.18371
H         29.44076         0.28737         1.25437
H         28.32853        20.28287        -0.34107
H         31.60483         1.49252         1.28648
H         32.84501         3.64577         1.26127
H         32.84860         6.11889         1.31876
H         33.01245         8.03842         0.53201
H         33.03530        10.24907        -0.40228
H         32.99852        12.24827        -0.24144
H         33.02828        14.68567        -0.18122
H         33.02229        16.63072        -0.14141
H         30.78734        20.31310        -0.29773
H         32.95784        19.09211        -0.19279
