         598
 CSIRO Nanostructure Databank - Neutral Graphene Oxide Data Set
C         22.99821        69.94314         0.50376
C         22.97135        71.34988         0.48755
C         21.78412        72.13293         0.26483
C         22.85891        74.16262        -0.77640
C         21.76071        73.39269        -0.33684
C         25.53414        65.69153         0.76678
C         25.49001        67.12319         0.66042
C         24.27098        67.82832         0.64761
C         25.47358        69.96704         0.41529
C         24.23733        69.24180         0.54286
C         25.46535        71.39414         0.36297
C         24.22666        72.01274         0.59968
C         25.41581        74.18131        -0.86175
C         24.17085        73.94954        -0.28618
C         28.13659        61.49794         1.36439
C         28.08133        62.91237         1.22571
C         26.82850        63.58632         1.08355
C         27.98827        65.76960         1.01751
C         26.73631        64.97910         0.92747
C         27.96450        67.13099         0.41791
C         26.70483        67.87332         0.51557
C         27.96206        70.02349         0.34769
C         26.71355        69.27018         0.38667
C         27.91755        71.47357         0.17664
C         26.66178        72.15684         0.08818
C         27.84335        74.13763        -0.76100
C         26.62715        73.50668        -0.43897
C         30.56252        57.22201         1.39364
C         30.56951        58.57970         1.35234
C         29.31547        59.33315         1.75370
C         30.57637        61.53209         1.38780
C         29.34451        60.81709         1.45130
C         30.54090        62.95015         1.32631
C         29.31692        63.62574         1.24431
C         30.56916        65.82780         0.88064
C         29.31174        65.09992         1.20747
C         30.54036        67.20340         0.59990
C         29.25539        67.88712         0.30579
C         30.45459        70.05974         0.51578
C         29.18034        69.35141         0.38017
C         30.41553        71.57418         0.25818
C         29.11771        72.18555        -0.03216
C         30.31691        74.22147        -0.74171
C         29.09909        73.53342        -0.51307
C         33.11016        52.87824         1.82451
C         33.05973        54.28347         1.58107
C         31.84677        55.00770         1.65042
C         33.06121        57.11499         0.90331
C         31.74927        56.37581         1.14312
C         33.07785        58.61316         0.87325
C         31.78771        59.36401         1.02583
C         33.04023        61.50441         1.18337
C         31.84191        60.83007         1.29995
C         33.11013        62.96754         1.31144
C         31.79872        63.73025         1.39605
C         33.03357        65.81088         0.74701
C         31.80348        65.14981         0.99136
C         33.00543        67.22620         0.45340
C         31.75230        67.92149         0.43673
C         32.89425        70.06257        -0.01030
C         31.72555        69.34459         0.27710
C         32.86005        71.49879        -0.23558
C         31.64762        72.21286        -0.20879
C         32.78859        74.27261        -0.87572
C         31.58330        73.58765        -0.61645
C         35.47627        48.42255         1.80185
C         35.06910        49.75052         1.45673
C         34.27393        50.70952         2.05241
C         35.48519        52.83863         1.28707
C         34.28618        52.13219         1.66297
C         35.51069        54.25183         1.26987
C         34.30491        54.96311         1.34929
C         35.60121        57.21913         1.28031
C         34.30644        56.43857         1.34420
C         35.63400        58.62555         0.90629
C         34.36728        59.32323         1.18017
C         35.57952        61.50498         0.71743
C         34.35515        60.81232         1.18416
C         35.51621        62.90866         0.53590
C         34.31664        63.66629         0.82266
C         35.52558        65.77953         0.41762
C         34.26441        65.05914         0.68386
C         35.47062        67.26395         0.09965
C         34.17319        67.95260         0.11891
C         35.33238        70.04269        -0.51203
C         34.13367        69.34583        -0.16749
C         35.30200        71.48075        -0.66301
C         34.06752        72.18892        -0.55893
C         35.24659        74.31128        -1.02283
C         34.03542        73.60528        -0.81558
C         37.93821        44.28971         1.08075
C         37.95762        45.68469         1.04560
C         36.81909        46.43109         1.46893
C         37.96589        48.56650         1.03392
C         36.69121        47.82727         1.35897
C         38.02320        50.02632         0.79954
C         36.86313        50.76155         0.74679
C         38.12145        52.87086         0.93128
C         36.78677        52.14281         1.15651
C         38.06339        54.32641         0.62578
C         36.78102        55.00691         0.96457
C         38.15447        57.22374         1.00742
C         36.88329        56.47162         1.28084
C         38.07153        58.61509         0.43484
C         36.81874        59.31401         0.60129
C         37.89341        61.40643        -0.16798
C         36.75505        60.75631         0.39030
C         37.81734        62.82328        -0.39481
C         36.66282        63.57810        -0.00888
C         37.64727        65.63921        -0.88514
C         36.65199        64.99786        -0.13480
C         37.83483        67.13630        -0.84588
C         36.59453        67.92643        -0.58309
C         37.84985        70.06342        -0.78963
C         36.54681        69.30040        -0.73841
C         37.70068        71.47788        -1.29173
C         36.47277        72.20789        -0.98546
C         37.72539        74.35414        -1.12226
C         36.48099        73.63569        -1.08633
C         40.18694        39.89927         0.90820
C         40.06550        41.25800         0.35281
C         39.00467        42.12992         0.81889
C         40.20059        44.16387         0.02568
C         39.03319        43.50376         0.61599
C         40.19360        45.61838        -0.00207
C         39.14527        46.33913         0.52980
C         40.39509        48.53693         0.11566
C         39.22957        47.80678         0.68389
C         40.43788        49.95776         0.14882
C         39.27354        50.71749         0.58704
C         40.33684        52.86975        -0.23811
C         39.26370        52.09891         0.47178
C         40.62481        54.24591         0.38583
C         39.36885        55.04418         0.68595
C         40.21359        57.04397        -1.16306
C         39.39388        56.38200         0.95326
C         40.25830        58.51462        -0.83120
C         39.12483        59.24352        -0.30596
C         40.15268        61.31650        -1.26182
C         39.05812        60.66438        -0.58522
C         40.01248        62.74605        -1.68393
C         38.80663        63.46167        -1.18693
C         40.32138        65.87014        -2.23306
C         38.53209        64.77970        -1.57075
C         40.25701        67.22412        -1.95233
C         39.05048        67.87416        -1.38874
C         40.20797        70.07856        -1.49393
C         39.03428        69.36017        -1.41233
C         40.23485        71.50526        -1.23792
C         38.99018        72.26126        -1.42114
C         40.19343        74.32843        -0.79850
C         38.96513        73.70584        -1.13474
C         42.70691        35.76490         1.85176
C         42.65463        37.04936         1.27592
C         41.51530        37.87341         1.35275
C         42.62010        40.04202         0.67291
C         41.41117        39.26643         0.97797
C         42.62794        41.28669        -0.03282
C         41.32266        41.96104        -0.24012
C         42.55209        44.03211        -1.00701
C         41.33214        43.43463        -0.31027
C         42.58463        45.56162        -0.97127
C         41.36901        46.34021        -0.54715
C         42.73407        48.43191        -0.66678
C         41.51176        47.79720        -0.32900
C         42.70922        49.91205        -0.95904
C         41.56810        50.66070        -0.32416
C         42.78863        52.76301        -0.70729
C         41.60698        52.07079        -0.38430
C         42.78581        54.20067        -0.83616
C         41.60221        54.94834        -0.56263
C         42.67117        56.95040        -1.45196
C         41.50710        56.27975        -0.99680
C         42.55363        58.38134        -1.80355
C         41.36993        59.18282        -1.35684
C         42.58777        61.27530        -2.00883
C         41.33663        60.59973        -1.55067
C         42.60953        62.77439        -2.18402
C         41.31728        63.55620        -2.12750
C         42.65372        65.71990        -1.67595
C         41.45260        65.04034        -2.02615
C         42.72855        67.12642        -1.67459
C         41.54218        67.93145        -1.96818
C         42.70300        70.07675        -1.14704
C         41.52782        69.44629        -1.74510
C         42.62456        71.39928        -0.67982
C         41.39461        72.15392        -0.85431
C         42.59218        74.21292        -0.22345
C         41.39008        73.59156        -0.62768
C         45.20422        33.16178         2.90798
C         43.98309        33.77302         2.58028
C         45.20120        35.74645         1.80476
C         43.94615        35.06691         2.02339
C         45.20483        37.05329         1.24847
C         43.92156        37.39921         0.52742
C         45.07973        39.93439         0.61166
C         43.82540        39.63475         1.27567
C         45.09316        41.23225        -0.18525
C         43.83566        41.99986        -0.25379
C         45.07081        44.07672        -0.86470
C         43.87182        43.37942        -0.62855
C         45.06698        45.50187        -1.05767
C         43.89091        46.26059        -0.95445
C         45.19541        48.39184        -1.01089
C         43.92231        47.69266        -0.88858
C         45.27810        49.84891        -0.59762
C         44.01976        50.63657        -0.82023
C         45.25567        52.77402        -0.99487
C         44.03170        52.02895        -0.84078
C         45.22157        54.14240        -1.27131
C         43.96581        54.86891        -1.25499
C         45.16523        56.98669        -1.69496
C         43.92015        56.26846        -1.50912
C         45.15493        58.38646        -1.75185
C         43.90359        59.13851        -1.94031
C         45.09540        61.29278        -1.57377
C         43.88262        60.58373        -1.75469
C         45.09327        62.71194        -1.54009
C         43.91540        63.49314        -1.94055
C         45.10862        65.63000        -1.01467
C         43.94102        64.98351        -1.67157
C         45.11293        67.04389        -0.83862
C         43.99822        67.81313        -1.42230
C         45.05749        69.92395        -0.28138
C         43.97883        69.36504        -1.11011
C         44.95441        71.27796         0.08966
C         43.79308        72.04804        -0.19228
C         44.98110        74.14359         0.37261
C         43.78413        73.48388         0.01438
C         46.40899        33.83396         2.75787
C         47.62911        35.90781         2.12549
C         46.43247        35.16002         2.23500
C         47.61212        37.25763         1.72466
C         46.35948        37.84367         1.33293
C         47.60085        40.07810         1.00278
C         46.32527        39.31475         1.14871
C         47.62228        41.36861         0.27476
C         46.41413        41.90557        -0.38417
C         47.63484        44.12209        -0.55415
C         46.39008        43.36737        -0.80329
C         47.64990        45.53302        -1.00038
C         46.32343        46.22547        -1.34561
C         47.64236        48.39299        -1.67804
C         46.33903        47.70206        -1.31025
C         47.66082        49.88369        -1.34370
C         46.52348        50.57256        -1.05691
C         47.73658        52.77283        -1.42955
C         46.57084        52.06787        -0.77334
C         47.68269        54.12744        -1.68371
C         46.44425        54.86571        -1.54597
C         47.66131        57.00993        -1.79154
C         46.41536        56.26392        -1.69739
C         47.61263        58.42523        -1.70238
C         46.37891        59.12709        -1.64244
C         47.56804        61.23677        -1.20693
C         46.34270        60.54951        -1.48968
C         47.58306        62.71609        -1.06544
C         46.32600        63.47954        -1.29380
C         47.42179        65.48997        -0.22707
C         46.27039        64.87656        -0.79120
C         47.32164        66.88211         0.22905
C         46.19509        67.70802        -0.22946
C         47.40364        69.74461         0.52067
C         46.21805        69.12135         0.02089
C         47.37451        71.16867         0.90887
C         46.08879        71.95513         0.74532
C         47.39317        74.05972         0.90179
C         46.16998        73.43252         0.66662
C         48.82870        38.01621         1.62203
C         50.06638        40.08686         1.04411
C         48.87424        39.34734         1.19322
C         50.06114        41.45681         0.67340
C         48.80424        42.08258         0.23869
C         50.01946        44.25884         0.11205
C         48.79113        43.47301        -0.16929
C         50.01136        45.72691        -0.12360
C         48.82624        46.38589        -0.72922
C         50.16250        48.38198        -1.40192
C         48.85075        47.70127        -1.08159
C         50.15599        49.88597        -1.40348
C         48.94056        50.59095        -1.44601
C         50.20153        52.66895        -1.72486
C         48.96520        52.00837        -1.55603
C         50.19379        54.10781        -2.09254
C         48.86607        54.84937        -2.30604
C         50.15046        57.02622        -1.79783
C         48.90052        56.32223        -1.90135
C         50.14551        58.46934        -1.57082
C         48.87413        59.22228        -1.87007
C         50.01807        61.31020        -0.92563
C         48.78019        60.58064        -1.23259
C         49.94430        62.58397        -0.15705
C         48.66959        63.34566        -0.25742
C         49.87023        65.49072         0.19440
C         48.65348        64.81383        -0.06488
C         49.90776        66.87931         0.45960
C         48.63737        67.59491         0.63525
C         49.86130        69.73623         0.90750
C         48.63254        69.06300         0.64228
C         49.85814        71.19509         1.01023
C         48.63846        71.91173         0.97487
C         49.85412        74.03014         1.16744
C         48.62773        73.33694         1.04026
C         51.26496        42.17548         0.63883
C         52.51571        44.23575         0.14077
C         51.32615        43.55672         0.27710
C         52.56428        45.60633        -0.48899
C         51.32987        46.43808        -0.18072
C         52.65153        48.48301        -0.97202
C         51.35655        47.84266        -0.64108
C         52.65376        49.81374        -1.29539
C         51.40259        50.55547        -1.44208
C         52.69582        52.68389        -1.42778
C         51.42744        51.97081        -1.59404
C         52.59229        54.16772        -1.10914
C         51.45452        54.86643        -1.86159
C         52.63109        57.08574        -1.77925
C         51.36968        56.34425        -1.77689
C         52.61474        58.56368        -1.45739
C         51.29392        59.15784        -1.26891
C         52.43170        61.10805         0.02308
C         51.31443        60.59640        -0.92388
C         52.41874        62.63388         0.06578
C         51.22418        63.30749         0.01434
C         52.45318        65.52624         0.07071
C         51.15393        64.77707        -0.04276
C         52.40856        66.93719         0.54260
C         51.12314        67.60451         0.66000
C         52.29535        69.67494         1.47506
C         51.06305        68.98640         1.01741
C         52.29900        71.17837         1.44432
C         51.06132        71.91481         1.14582
C         52.32384        74.03765         1.45584
C         51.08418        73.34080         1.23922
C         53.82458        46.40981        -0.29069
C         55.09190        48.50175        -0.54004
C         53.87026        47.74773        -0.63119
C         55.20140        49.83353        -0.92335
C         53.95503        50.53060        -1.59734
C         55.12753        52.71896        -0.87364
C         53.86892        52.00722        -1.20569
C         55.17514        54.10208        -1.39182
C         53.93654        54.91813        -1.27019
C         55.11771        57.28684        -1.68587
C         53.92435        56.40175        -1.50903
C         55.07756        58.59541        -1.12489
C         53.82563        59.24237        -0.93519
C         54.99215        61.17578        -0.02613
C         53.78048        60.52295        -0.38659
C         54.90676        62.53717         0.55075
C         53.66752        63.34849         0.27479
C         54.98668        65.48247         0.20823
C         53.68358        64.72288         0.27530
C         54.87138        66.91088         0.74487
C         53.59923        67.57355         0.84621
C         54.86296        69.70876         1.32716
C         53.60692        68.89151         1.59024
C         54.85627        71.17362         1.20859
C         53.57177        71.92218         1.21893
C         54.80712        74.02736         1.62446
C         53.56902        73.38506         1.47401
C         56.41978        50.52231        -0.90017
C         57.72244        52.72489        -1.10917
C         56.47483        51.97868        -0.83347
C         57.67709        54.04932        -1.54371
C         56.35890        54.55698        -1.88894
C         57.56989        57.23046        -1.45249
C         56.35581        56.75501        -1.99040
C         57.52080        58.50210        -0.85312
C         56.29874        59.23900        -0.76755
C         57.49742        61.25861         0.10271
C         56.24862        60.56066        -0.20540
C         57.51022        62.56627         0.63382
C         56.18920        63.23872         0.92202
C         57.07090        65.47490         1.46085
C         56.10305        64.73161         0.90105
C         57.29496        66.87272         1.05950
C         56.02476        67.61388         1.04825
C         57.35574        69.73637         1.21811
C         56.06193        69.04272         1.23896
C         57.31167        71.18947         1.38455
C         56.12358        71.89229         1.44819
C         57.25403        74.06311         1.75889
C         56.07154        73.33933         1.62580
C         58.79134        54.95985        -1.60078
C         60.00248        57.07729        -1.35498
C         58.78720        56.39637        -1.50725
C         60.07661        58.42648        -0.77079
C         58.75482        59.13111        -0.37165
C         59.96835        61.27315        -0.14356
C         58.74364        60.58588        -0.14622
C         59.98680        62.64892         0.23261
C         58.79134        63.22177         0.76720
C         60.03926        65.35139         1.15546
C         58.97304        64.48385         1.39814
C         59.93216        66.83651         1.43563
C         58.62375        67.55187         1.08331
C         59.81912        69.78409         0.86836
C         58.56207        69.04765         1.15054
C         59.79687        71.29778         0.97322
C         58.58292        71.91401         1.58108
C         59.81704        74.23893         1.56943
C         58.56110        73.40984         1.83138
C         61.23053        59.30241        -0.96063
C         62.37400        61.46595        -0.71402
C         61.19750        60.63439        -0.58960
C         62.39699        62.78389        -0.33743
C         61.20162        63.41182         0.19773
C         62.48674        65.49484         0.76995
C         61.20973        64.76478         0.61316
C         62.48369        66.94047         1.02415
C         61.19219        67.64108         1.28402
C         62.30876        69.80480         0.95269
C         61.13133        69.09921         0.96224
C         62.36216        71.29732         0.93116
C         61.07857        72.07738         1.01422
C         62.27445        73.96935         2.05706
C         61.09965        73.42887         1.63138
C         63.65555        63.58755        -0.60515
C         64.85813        65.80093        -0.07794
C         63.75752        64.88158         0.18838
C         64.91564        67.07590         0.48197
C         63.66796        67.65177         1.02832
C         64.64953        69.83095         1.59686
C         63.56165        69.10154         1.21611
C         64.85244        71.25623         1.14580
C         63.57992        71.98163         1.40820
C         64.77546        73.85294         2.36857
C         63.55135        73.26533         1.95269
C         66.14092        67.81914         0.26036
C         67.47150        69.95910         0.74718
C         66.53182        68.95244         0.99293
C         67.36730        71.25958         1.40441
C         66.11352        71.88337         1.66019
C         67.24447        73.84501         2.58064
C         66.03470        73.18932         2.21988
C         68.54290        71.98598         1.71266
C         68.47137        73.24553         2.31610
O         50.35265        47.94254        -2.75382
O         49.75790        45.20118         1.23243
O         38.96216        48.21984         2.07604
O         42.62118        61.89742        -3.34617
O         41.69813        68.89792        -3.08778
O         55.73861        52.46498         0.40854
O         54.03087        55.86540        -0.12568
O         37.67322        56.99180         2.40370
O         40.35492        41.30818        -1.09477
O         55.36173        62.60542         1.95023
O         47.37360        63.35746        -2.36147
O         30.51457        71.01397         1.61733
O         38.23995        71.79607        -2.60187
O         40.35376        63.03792        -3.06773
O         28.61430        67.27333        -0.89342
O         60.59281        67.33331         2.62763
O         35.89041        66.75533         1.44564
O         65.74001        69.18092         2.15261
O         41.64921        46.06935        -1.98647
O         46.46387        71.41870         2.05195
O         46.59022        42.29568        -1.78271
O         34.45054        60.04541         2.45905
O         48.99975        62.57808         0.95814
O         56.36709        55.61722        -2.79360
O         52.76981        58.07481        -2.84576
O         37.15675        54.73181        -0.44824
O         34.85957        57.01698         2.56640
O         52.13985        70.46120         2.72337
O         24.22092        73.34217         0.99839
O         61.80000        71.97563        -0.26307
O         44.42115        68.80317        -2.39012
O         59.53312        58.40163         0.61452
O         51.83374        65.32788        -1.25132
O         51.15012        54.36057        -3.20257
O         46.82879        40.09858         2.28471
O         63.43974        64.73863         1.60513
O         58.08906        67.02428        -0.19034
O         32.59785        63.47122         2.59511
O         43.91422        37.66245        -0.66317
O         58.76481        72.44781         2.93298
O         44.24711        64.45887        -3.01138
O         44.99320        39.93054        -0.83769
O         47.71452        67.04008         1.62697
O         28.60068        65.72938         2.35013
O         50.97045        61.43436        -2.07086
O         43.08886        58.72192        -3.09888
O         37.68347        52.49502         2.27419
O         58.00942        64.89974         2.31576
O         39.14695        65.29209        -2.70324
O         39.24154        56.57860        -1.73693
O         47.15803        45.62709        -2.37843
O         59.60025        70.66507        -0.31177
O         38.92682        67.48051         0.10817
O         54.17822        71.58537        -0.07787
O         35.70361        50.17207         0.26063
O         52.15497        60.62398         1.30510
O         32.38308        56.51061        -0.20735
O         32.38356        59.11047        -0.30820
O         54.20658        50.51402        -2.94884
O         51.33971        47.52578         0.79914
O         52.46703        45.34756        -1.93621
H         52.18337        46.17622        -2.38791
O         55.30730        65.57567        -1.20990
H         54.51701        65.91753        -1.67998
O         43.87552        39.11446         2.51668
H         42.97003        38.98605         2.87033
O         42.38820        43.64977        -2.39930
H         41.80789        44.33028        -2.81386
O         38.19941        70.20663         0.62954
H         38.39287        69.29619         0.96142
O         65.00279        71.15993        -0.32499
H         64.13062        71.34995        -0.73544
O         47.77301        48.29946        -3.11613
H         48.75109        48.14707        -3.30506
O         48.61413        54.86980        -3.73805
H         49.49352        54.93138        -4.17881
O         45.38496        49.79573         0.87579
H         45.70873        50.68674         1.16482
O         46.80989        52.17722         0.69105
H         47.73311        51.88512         0.85572
O         40.55188        56.99215         1.38044
H         40.34943        57.90608         1.66655
O         59.73036        74.82667         0.26022
H         59.98896        74.15521        -0.40560
O         28.16071        58.71149         1.18424
H         28.26775        58.69727         0.21105
O         48.97088        59.52449        -3.31211
H         49.72095        60.15478        -3.42038
O         42.40824        49.97843        -2.41819
H         43.05738        49.40561        -2.88206
O         52.19544        54.21934         0.28452
H         52.77144        54.88611         0.73222
O         41.35903        54.02032         1.61046
H         41.46254        54.88515         2.06085
O         63.72078        63.90071        -2.01093
H         62.83384        64.18543        -2.31235
O         53.72018        68.47873         2.98965
H         53.29366        69.18559         3.52914
O         39.85434        53.14381        -1.58376
H         39.81724        52.29969        -2.08038
H         22.69205        74.91057        -1.56506
H         25.49672        74.87270        -1.71404
H         27.81892        75.14933        -1.19192
H         30.28047        75.27212        -1.06556
H         32.76007        75.34008        -1.13849
H         35.21631        75.40397        -1.14313
H         37.69239        75.44620        -0.99029
H         40.20476        75.41025        -0.59666
H         42.60236        75.30269        -0.07113
H         44.99348        75.24320         0.41228
H         47.43745        75.15929         0.89109
H         49.84526        75.12790         1.23454
H         52.28915        75.12880         1.59284
H         54.82261        75.11930         1.76155
H         57.22268        75.16236         1.72935
H         59.86006        75.08185         2.30484
H         62.28269        74.98647         2.47806
H         64.76396        74.86820         2.79145
H         67.20149        74.84504         3.03468
H         22.05781        69.37349         0.47383
H         20.81862        71.61670         0.37980
H         20.76610        73.75417        -0.64452
H         24.58187        65.13991         0.76620
H         23.32329        67.27548         0.72806
H         27.19979        60.92325         1.41080
H         25.90912        62.98179         1.07253
H         29.63148        56.71454         1.69289
H         29.20282        59.23439         2.87123
H         32.17991        52.35985         2.09890
H         30.93988        54.51009         2.02473
H         34.79196        47.78612         2.38576
H         33.63232        50.43663         2.90365
H         37.05500        43.77097         1.48210
H         35.94593        45.85646         1.81570
H         39.26829        39.36622         1.19557
H         38.20350        41.69634         1.43647
H         41.79099        35.31697         2.26956
H         40.59614        37.41472         1.75535
H         45.19912        32.14346         3.32154
H         43.04017        33.23904         2.76607
H         47.35264        33.35650         3.05768
H         48.58446        35.43963         2.40602
H         49.77430        37.50374         1.85640
H         51.02978        39.60178         1.26247
H         52.20303        41.64951         0.87430
H         53.46357        43.70269         0.31701
H         54.75621        45.88691        -0.02270
H         55.93016        48.04408         0.01280
H         57.36384        49.96597        -1.02515
H         58.68547        52.22415        -0.92622
H         59.78425        54.49854        -1.46256
H         60.94929        56.54415        -1.53594
H         62.13590        58.89038        -1.43136
H         63.28628        61.00708        -1.12440
H         64.55429        62.95690        -0.38122
H         65.68986        65.44766        -0.70584
H         66.81381        67.44175        -0.52556
H         68.29529        69.79304         0.03673
H         69.52377        71.53807         1.50024
H         69.40031        73.77338         2.57364
