         648
 CSIRO Nanostructure Databank - Neutral Graphene Oxide Data Set
C          5.83568        31.78333         0.07268
C          5.84530        33.14837        -0.01893
C          8.38769        27.52365         0.22716
C          8.30967        28.89738         0.11373
C          7.06631        29.62931         0.11091
C          8.27995        31.72428         0.60523
C          7.03969        31.00365         0.22713
C          8.25327        33.26830         0.63359
C          7.05677        33.93289         0.08049
C          8.35715        36.01351        -0.32618
C          7.13143        35.23967        -0.35100
C          8.35960        37.38309        -0.62102
C         10.89753        23.30523         1.00840
C         10.86586        24.69105         0.82798
C          9.67272        25.39138         0.53775
C         10.85820        27.49037         0.12050
C          9.64319        26.79960         0.27744
C         10.89194        28.92502        -0.10820
C          9.54433        29.70147        -0.07355
C         10.84062        31.72743         0.85365
C          9.56189        31.08992         0.34920
C         10.87502        33.26392         0.76976
C          9.54391        34.03393         0.64334
C         10.79022        36.12123         0.06984
C          9.57582        35.39023         0.08721
C         10.78129        37.48250        -0.24275
C          9.54979        38.16026        -0.52819
C         10.72388        40.35354        -0.68634
C          9.53199        39.56983        -0.68189
C         10.71587        41.75681        -0.82453
C         13.29287        18.93205         1.20658
C         13.29420        20.35428         1.55414
C         12.08745        21.17842         1.36016
C         13.35919        23.31583         1.46728
C         12.09042        22.55807         1.30005
C         13.41115        24.70970         0.98540
C         12.12978        25.52372         1.00129
C         13.42291        27.44696        -0.06920
C         12.11013        26.64775        -0.04421
C         13.42027        28.98248        -0.18857
C         12.12503        29.68368         0.14315
C         13.29835        31.83599         0.23296
C         12.10330        31.06877         0.32206
C         13.30503        33.27493         0.21747
C         12.09104        33.97682         0.39908
C         13.31299        36.13735        -0.05606
C         12.08985        35.48218         0.55195
C         13.28984        37.50396        -0.34942
C         12.03954        38.28909        -0.02222
C         13.16137        40.35878        -0.90653
C         11.98983        39.67428        -0.61565
C         13.17211        41.78932        -0.96964
C         11.92872        42.49897        -0.83568
C         13.17138        44.60252        -0.50967
C         11.95646        43.91251        -0.72186
C         13.20777        46.01664        -0.33368
C         15.70350        14.62820         0.97032
C         15.68808        16.03802         0.83158
C         14.51011        16.78813         1.01498
C         15.73375        18.94482         0.90372
C         14.48504        18.21956         1.07802
C         15.82843        20.32234         1.05767
C         14.66548        21.06762         1.58845
C         15.91330        23.24469         1.10357
C         14.68334        22.56895         1.55322
C         15.90179        24.60064         0.80913
C         14.61990        25.30849         0.76941
C         15.92170        27.46068         0.71379
C         14.66644        26.73364         0.35194
C         15.91074        28.94626         0.65902
C         14.58480        29.64123         0.54321
C         15.84044        31.78513         0.04850
C         14.57337        31.12491         0.45028
C         15.79191        33.26473        -0.14646
C         14.52916        33.99702         0.06804
C         15.73162        36.09754        -0.52526
C         14.53486        35.41251        -0.14857
C         15.67301        37.43967        -0.93146
C         14.45584        38.15225        -0.81034
C         15.70166        40.34678        -1.29599
C         14.41169        39.59576        -1.14297
C         15.71808        41.86891        -1.30075
C         14.40358        42.51024        -0.89786
C         15.61772        44.42460         0.15123
C         14.40149        43.85611        -0.54462
C         15.62500        45.95206         0.26887
C         14.39222        46.74140        -0.02836
C         15.65371        48.89804         0.47121
C         14.45251        48.12983        -0.03555
C         15.72016        50.35128         0.05994
C         18.11003        10.31582         0.96168
C         18.11941        11.72152         0.72428
C         16.90946        12.47984         0.86420
C         18.06085        14.56631         0.18065
C         16.86687        13.86739         0.71235
C         18.11904        16.04408         0.29901
C         16.93044        16.72544         0.50989
C         18.20577        18.92024         0.19972
C         16.87664        18.18763         0.37376
C         18.25394        20.32583         0.62473
C         17.09213        21.01561         0.89023
C         18.42721        23.14617         0.71828
C         17.19851        22.47671         1.29807
C         18.38756        24.56151         0.20505
C         17.13036        25.31707         0.52971
C         18.39266        27.43955         0.34453
C         17.18326        26.71773         0.47649
C         18.45508        28.93502         0.58092
C         17.15016        29.66224         0.35053
C         18.29308        31.71534        -0.29403
C         17.12944        31.03711         0.12129
C         18.32802        33.18224        -0.27519
C         17.09129        33.99339        -0.02940
C         18.16574        35.88797        -1.30304
C         17.10373        35.51513        -0.23108
C         18.22565        37.41312        -1.47640
C         16.91835        38.15119        -1.36915
C         18.17778        40.26626        -1.02539
C         16.97928        39.61258        -1.15058
C         18.16838        41.67678        -0.58207
C         16.92874        42.45224        -0.61310
C         18.19601        44.49787        -0.22062
C         16.94149        43.78263        -0.25631
C         18.12443        45.96573        -0.28702
C         16.92362        46.70328         0.19195
C         18.15592        48.85365         0.12687
C         16.92585        48.17138         0.11023
C         18.18175        50.31226         0.17898
C         16.91588        51.03981         0.01570
C         18.18788        53.18788         0.01904
C         16.98189        52.47755        -0.05727
C         18.23975        54.58899         0.14291
C         20.61460         5.97435         1.24244
C         20.45932         7.39379         1.51299
C         19.26203         8.15143         1.18504
C         20.57492        10.24195         0.97089
C         19.29626         9.55057         1.07411
C         20.57659        11.58274         0.36806
C         19.33086        12.35890         0.37047
C         20.64322        14.50895        -0.15019
C         19.33475        13.76784        -0.04034
C         20.68262        15.94939         0.34648
C         19.39008        16.73599         0.15595
C         20.69115        18.84695        -0.11429
C         19.43700        18.10866         0.18727
C         20.82475        20.25688         0.35377
C         19.57546        20.98385         0.77921
C         20.91661        23.15282         0.72877
C         19.59618        22.45642         0.68067
C         20.92462        24.64726         0.69510
C         19.65092        25.35263         0.44186
C         20.89439        27.45424         0.06496
C         19.63971        26.73518         0.32657
C         20.81900        28.87875        -0.29165
C         19.61664        29.55762        -0.16543
C         20.78251        31.71437        -0.97868
C         19.48734        30.93991        -0.63557
C         20.75715        33.17397        -0.84353
C         19.55736        33.89660        -0.67349
C         20.71033        36.06207        -0.84243
C         19.49292        35.27395        -0.91454
C         20.72783        37.49102        -1.16615
C         19.49390        38.17223        -1.29080
C         20.67229        40.32888        -1.19077
C         19.46086        39.59316        -1.16155
C         20.72639        41.73814        -0.95241
C         19.49671        42.42077        -0.48771
C         20.67381        44.61682        -0.56243
C         19.42711        43.88557        -0.48462
C         20.68843        45.99610        -0.34074
C         19.42381        46.74468        -0.37628
C         20.61891        48.75509         0.46828
C         19.37724        48.13897         0.05161
C         20.60765        50.27966         0.62032
C         19.37420        50.99058         0.27440
C         20.69487        53.13514         0.44626
C         19.49057        52.43707        -0.14706
C         20.67693        54.53423         0.61802
C         19.45882        55.28902         0.39284
C         20.70771        57.38138         0.82239
C         19.50498        56.68637         0.49401
C         20.76283        58.79281         0.83572
C         23.04833         3.28561         0.51712
C         21.86372         3.92642         0.84680
C         23.11161         6.03727         1.25478
C         21.85455         5.32122         1.16262
C         23.06213         7.44538         1.49790
C         21.78650         8.19335         1.62984
C         23.03849        10.34454         1.20344
C         21.78361         9.61838         1.23252
C         23.12866        11.64980         0.73993
C         21.93042        12.27766         0.14756
C         23.20136        14.49994         0.21904
C         21.94073        13.76336        -0.05856
C         23.15399        15.93225        -0.02722
C         21.96747        16.62783        -0.10621
C         23.21357        18.85370        -0.40339
C         21.96049        18.08335        -0.38458
C         23.21185        20.27712        -0.34426
C         22.03556        20.99819        -0.02416
C         23.30765        23.17534        -0.18308
C         22.22810        22.38699         0.54411
C         23.33323        24.56401        -0.18185
C         22.25661        25.38929         0.52325
C         23.23442        27.39222        -0.79082
C         22.07081        26.76797        -0.06219
C         23.28377        28.88365        -0.60867
C         22.05160        29.58086        -0.58010
C         23.26072        31.70696        -0.80190
C         22.06564        31.00868        -0.78416
C         23.31996        33.10906        -1.19363
C         21.97156        33.88600        -1.17925
C         23.28713        36.05326        -1.25657
C         22.05833        35.33191        -0.90389
C         23.23539        37.47451        -1.36981
C         21.97459        38.14860        -1.31111
C         23.20641        40.35346        -1.70697
C         21.90852        39.59888        -1.56729
C         23.17232        41.83360        -1.46567
C         21.90660        42.48540        -1.04849
C         23.13833        44.60559        -0.61288
C         21.93099        43.89868        -0.73261
C         23.16643        46.00162        -0.27486
C         21.91477        46.70659        -0.08699
C         23.12676        48.79128         0.56064
C         21.89568        48.05582         0.25924
C         23.08389        50.26740         0.54582
C         21.90746        50.97308         0.54029
C         23.07282        53.07717         1.10530
C         21.88777        52.41759         0.64984
C         23.02709        54.45841         1.35762
C         21.85914        55.20880         1.05210
C         23.09937        57.31426         1.50605
C         21.88617        56.63343         1.14810
C         23.13843        58.73692         1.48459
C         21.96165        59.48154         1.14284
C         23.22711        61.55305         1.43973
C         22.03392        60.89918         1.13039
C         24.24536         4.00334         0.45581
C         25.57039         6.03045         0.56432
C         24.32870         5.37379         0.82523
C         25.96239         7.26278         1.14962
C         24.16737         8.20436         1.86534
C         25.58791        10.36614         1.64792
C         24.23018         9.66792         1.76754
C         25.56010        11.76271         1.14910
C         24.38603        12.39360         0.78608
C         25.67751        14.51560         0.36505
C         24.39238        13.81996         0.42837
C         25.71931        15.92575        -0.05320
C         24.43422        16.59939        -0.37432
C         25.75785        18.84216        -0.70272
C         24.43823        18.09859        -0.62399
C         25.72175        20.30332        -0.21663
C         24.44180        21.01220        -0.55453
C         25.68974        23.11313        -0.91111
C         24.46434        22.42622        -0.60797
C         25.72587        24.50136        -0.80896
C         24.53989        25.25729        -0.53607
C         25.73105        27.42729        -0.69917
C         24.55181        26.68941        -0.58653
C         25.73938        28.86381        -0.69088
C         24.51534        29.56556        -0.60268
C         25.77543        31.77295        -0.71067
C         24.51517        31.04771        -0.30781
C         25.78103        33.18927        -0.83423
C         24.53338        33.90988        -1.01893
C         25.77864        36.02316        -1.37872
C         24.49319        35.29739        -1.23694
C         25.77340        37.50607        -1.54290
C         24.47359        38.23812        -1.52725
C         25.77869        40.40160        -1.72928
C         24.48430        39.61193        -1.57532
C         25.72813        41.71763        -0.93149
C         24.46351        42.52615        -1.18048
C         25.60806        44.68404        -1.27904
C         24.47613        43.91073        -0.56098
C         25.58771        46.15772        -0.87181
C         24.38245        46.69921        -0.22183
C         25.75045        48.82686         0.20868
C         24.47543        48.06454         0.28085
C         25.67984        50.28593         0.46720
C         24.35672        51.01472         0.55304
C         25.51566        52.96598         1.54330
C         24.32938        52.36287         1.14959
C         25.48266        54.32422         2.11465
C         24.18663        55.12360         1.96577
C         25.45854        57.26515         2.23516
C         24.25665        56.59215         1.90771
C         25.49963        58.65675         2.17169
C         24.35035        59.41548         1.81083
C         24.37422        60.83472         1.77658
C         26.76760         8.28450         0.70128
C         28.05447        10.38292         0.99657
C         26.91543         9.55115         1.54661
C         28.06817        11.73417         0.94452
C         26.84525        12.53209         1.37022
C         28.13382        14.65856         0.96108
C         26.83837        13.89512         0.74857
C         28.21219        15.85749        -0.02344
C         26.90258        16.61197        -0.11185
C         28.17375        18.77233        -0.56292
C         26.91934        18.12744         0.01965
C         28.15724        20.24995        -0.79125
C         26.99883        20.95850        -0.72186
C         28.21803        23.05606        -1.34698
C         26.89234        22.31069        -1.40389
C         28.15419        24.53163        -1.66017
C         27.01827        25.21859        -0.91585
C         28.17025        27.49229        -1.37188
C         27.01866        26.70877        -0.81885
C         28.17671        28.93062        -1.04090
C         26.99683        29.59263        -0.73450
C         28.20871        31.79119        -0.70496
C         26.99494        31.06749        -0.69119
C         28.23319        33.20456        -0.75179
C         27.00579        33.89664        -0.83983
C         28.26579        36.09795        -0.95159
C         26.96347        35.39430        -0.68092
C         28.26163        37.51837        -1.06602
C         27.03526        38.24354        -1.25776
C         28.24455        40.36850        -1.19843
C         27.03192        39.63613        -1.32590
C         28.23875        41.84025        -1.33930
C         26.96619        42.57312        -1.15014
C         28.17320        44.72954        -1.06760
C         26.94435        43.93905        -1.06153
C         28.06416        46.08643        -1.08764
C         26.88010        46.91461        -0.77931
C         28.19686        48.83507         0.52932
C         26.97695        48.21856        -0.02547
C         28.00777        50.08500         1.32144
C         26.84315        50.94104         1.06449
C         27.99088        52.94557         1.94078
C         26.77836        52.25656         1.51181
C         27.93174        54.38437         2.17929
C         26.75501        55.05810         2.26950
C         26.68030        56.50334         2.72606
C         29.30429        12.46613         0.68567
C         30.71852        14.52480         0.81748
C         29.37838        13.81753         0.73878
C         30.72609        15.98071         0.36296
C         29.41704        16.75168         0.34573
C         30.73340        18.68073        -0.84620
C         29.43769        17.99164        -0.54999
C         30.70758        20.15856        -1.18514
C         29.36892        20.86352        -1.48019
C         30.67340        23.10004        -1.19088
C         29.41262        22.37824        -1.29837
C         30.64422        24.54261        -1.26327
C         29.46867        25.24951        -1.44656
C         30.74238        27.45502        -1.43275
C         29.48892        26.71557        -1.61778
C         30.71624        28.92817        -1.39480
C         29.43298        29.69068        -1.18338
C         30.72465        31.81656        -0.65336
C         29.46681        31.02103        -0.43287
C         30.73600        33.21150        -0.64302
C         29.48554        33.94916        -0.70246
C         30.71415        36.12691        -0.60858
C         29.46497        35.35972        -0.80491
C         30.74144        37.57744        -0.90096
C         29.49816        38.25827        -1.02516
C         30.70966        40.41263        -0.88357
C         29.47807        39.68683        -1.09350
C         30.71419        41.81489        -0.74160
C         29.55090        42.60090        -1.17514
C         30.42963        44.56630         0.19019
C         29.60510        44.13307        -1.06432
C         30.64133        46.06652         0.41313
C         29.80897        47.03579        -0.09309
C         30.54799        48.76361         1.45458
C         29.47251        48.25180         0.60721
C         30.51780        50.08665         1.89156
C         29.24354        50.79842         1.92994
C         29.17432        52.25629         2.06292
C         31.89663        16.63541         0.20706
C         33.10420        18.90017         0.02640
C         31.99000        18.02084        -0.34037
C         33.08987        20.27374        -0.18151
C         31.95227        20.94841        -0.87392
C         33.08203        23.12792        -0.58852
C         31.89280        22.43485        -0.87204
C         33.21255        24.54456        -0.93801
C         31.92550        25.28674        -1.31771
C         33.19793        27.41074        -1.05075
C         31.94158        26.76055        -1.20018
C         33.24822        28.87291        -1.24676
C         31.97424        29.59388        -0.93796
C         33.26618        31.77771        -0.70549
C         31.98140        31.05576        -0.62073
C         33.23360        33.22503        -0.65402
C         32.00838        33.90850        -0.61138
C         33.27966        36.10730        -0.64758
C         32.02011        35.37505        -0.47509
C         33.26554        37.53821        -1.16513
C         31.96418        38.27617        -0.88257
C         33.11555        40.39366        -0.36077
C         31.94620        39.68925        -0.76652
C         33.01411        41.69196         0.13015
C         31.81880        42.46387        -0.09806
C         32.79886        44.35405         1.13232
C         31.73167        43.79832         0.33720
C         32.69705        45.65999         1.69105
C         31.63240        46.52790         1.36875
C         31.63596        47.88724         1.75141
C         34.18475        21.07497         0.23395
C         35.38059        23.22355         0.31034
C         34.22902        22.46909        -0.00702
C         35.47751        24.62962         0.09118
C         34.37239        25.32371        -0.49709
C         35.60444        27.46326        -0.36376
C         34.40085        26.72887        -0.68699
C         35.70630        28.87613        -0.54793
C         34.52732        29.61932        -1.05658
C         35.70970        31.80849        -0.83170
C         34.44784        31.08392        -0.81788
C         35.70775        33.24620        -0.61550
C         34.47766        33.94532        -0.60537
C         35.73941        36.05949        -0.62685
C         34.47188        35.38699        -0.59973
C         35.81424        37.54680        -0.52039
C         34.56053        38.31403        -0.82676
C         35.15071        39.97510         0.99531
C         34.50140        39.78596        -0.38493
C         35.14769        41.44157         1.34535
C         34.09826        42.25396         0.93294
C         33.95271        43.58832         1.40058
C         36.64035        25.35593         0.42222
C         37.88190        27.47416         0.58525
C         36.72803        26.75715         0.19900
C         37.94839        28.89212         0.48508
C         36.84392        29.58226        -0.13666
C         38.06149        31.82579         0.18034
C         37.00351        31.02464        -0.42956
C         38.13674        33.21400        -0.01406
C         36.96350        33.90528        -0.52822
C         38.53889        36.32134         0.29947
C         36.89792        35.31592        -0.73194
C         38.01707        37.43471         0.89906
C         36.82732        38.15798         0.43205
C         36.50378        39.31286         1.08257
C         39.02905        29.63107         0.97798
C         40.25950        31.79101         1.34542
C         38.92857        31.11291         1.19843
C         40.37521        33.11034         1.10966
C         39.28311        33.93945         0.58907
C         39.41758        35.29567         0.82722
O         28.28490        50.01791         2.75564
O         19.93183        31.15806        -2.02814
O         15.69849        32.35945        -1.30965
O         21.30267        11.55757        -0.93484
O         21.49696        35.73207         0.37475
O         20.51465        49.41772         1.79317
O         14.97043        39.85927        -2.49002
O         38.07884        36.01194        -0.99309
O         22.58812        33.45041        -2.41959
O         27.41150        25.87392         0.33689
O         31.27061        35.85213         0.73894
O         26.01403        47.04316        -1.97795
O         32.82816        24.80563        -2.34148
O         21.05521         7.84304         2.80700
O         35.60946        38.16615        -1.85038
O         24.34750        17.12724        -1.74313
O         14.05381        23.15516         2.74423
O         25.97162        36.58794        -2.70255
O         17.47855        37.79023        -2.69097
O         29.19905        46.85011        -1.32983
O         25.10995        50.97409        -0.72073
O         22.43787        39.97527        -2.89931
O         14.41696        30.42943         1.75556
O         17.87245        33.62314         1.13727
O         15.94223        28.19857         1.97180
O         31.68282        20.43920        -2.22707
O         31.59407        17.96759        -1.77868
O         31.96615        29.99641         0.47855
O         21.37654        14.20677        -1.35335
O         28.60493        27.17734        -2.70499
O         16.34371        46.29457         1.51183
O         14.34179        26.89726        -1.08231
O         20.92040        23.92971         1.99284
O         30.05446        29.63955        -2.50053
O         34.02745        29.28715        -2.41209
O         24.58053        54.51952         3.25430
O         18.89244        41.80947         0.69891
O         28.09147        15.07150         2.31355
O         23.92475        42.54759        -2.51560
O         18.43267        14.08319        -1.15768
O         29.05012        42.25162        -2.50456
O         10.21692        29.39516        -1.34824
O         10.22750        33.90485         1.94133
O         20.45788        20.38999         1.81173
O         21.07769        18.58440        -1.49248
O         18.59030        46.48098        -1.57365
O         17.32348        18.67242        -0.93914
O          8.08376        32.49872         1.85295
O         28.59865        17.98157        -1.75266
O         36.68598        31.36244        -1.80931
O         23.91962        48.21829         1.64812
O         25.27251         7.55372         2.37577
O         14.07685        20.56031         2.80186
O         24.89861        10.28141         2.93163
O         12.07598        26.17006         2.29683
H         12.19888        25.48746         2.99021
O         26.68332        35.62754         0.74711
H         27.41690        35.23269         1.26544
O         17.51352        36.14196         1.00211
H         17.91822        35.43739         1.56546
O         22.78099        22.16513         1.88473
H         22.09496        21.66488         2.38551
O         20.77748        15.78945         1.80663
H         20.83858        16.67867         2.21650
O         38.23203        31.27692         2.50104
H         38.33452        32.21525         2.76874
O         19.75481        52.39540        -1.59451
H         18.93436        52.08851        -2.03605
O         17.40854        22.48315         2.74761
H         18.29220        22.09840         2.93127
O         25.72673        41.31621         0.46229
H         25.66781        42.14229         1.00178
O         29.59164        44.15940         1.32207
H         30.08235        44.35896         2.14774
O         29.41178        30.67954         0.99174
H         30.31534        30.36232         1.24252
O         22.80170        25.63591         1.84821
H         22.45283        24.91661         2.42951
O         11.96235        25.99838        -1.32574
H         12.01948        26.68057        -2.02692
O         29.25773        17.25739         1.69879
H         28.94808        16.46316         2.24986
O         24.86415        43.84232         0.84538
H         24.05827        43.88397         1.40214
O         22.94215        27.16271        -2.22349
H         22.23009        27.78547        -2.48618
O         34.28812        39.28610         1.95892
H         34.63302        39.46479         2.85870
O         12.16723        35.78740         1.99437
H         11.44950        35.25339         2.42019
O         27.79171        24.63033        -3.06357
H         28.39372        24.05691        -3.58276
O         17.76701        35.27636        -2.54259
H         17.44347        36.00158        -3.13167
O         24.47514        31.16150         1.16334
H         25.26608        30.70206         1.51887
O         12.08865        38.52754         1.42716
H         12.13781        37.63656         1.86496
O         25.91376        40.74823        -3.12016
H         25.77782        39.94470        -3.66337
O         26.61945        22.00470        -2.79972
H         27.36405        21.42894        -3.11193
O         35.25058        40.58801        -1.31962
H         35.77856        39.96921        -1.87932
O         31.73415        13.79295         0.12846
H         31.51065        13.78877        -0.82490
O         27.29543         9.15515         2.87818
H         26.58214         9.44024         3.49407
O         28.47017        15.27299        -1.31775
H         28.46289        16.00790        -1.97500
O         18.73769        29.10117         2.01335
H         17.93397        28.78740         2.49162
O         33.24933        37.36835        -2.61599
H         34.19029        37.39855        -2.91385
O         15.56839        48.91418         1.94496
H         15.71771        47.98308         2.23862
O         26.08368        18.93814        -2.10230
H         25.71289        18.14103        -2.54852
O         29.10442        20.65915        -2.90339
H         29.08491        19.68413        -3.04754
O         26.83277        18.33534         1.43481
H         27.65881        17.95852         1.83763
O         13.65461        29.28480        -1.59540
H         14.15119        28.52399        -1.98058
O         27.87944        57.20443         2.39683
H         27.96189        57.23990         1.42219
O         30.32400        44.59286        -2.21254
H         29.96092        44.11860        -2.99272
O         15.41478        43.93095         1.51565
H         15.91457        44.53270         2.11559
O         15.90453        42.26570        -2.69708
H         15.44782        41.58402        -3.24468
O         26.93965        12.74411         2.80644
H         27.40952        13.62635         2.92708
O         18.34725        24.36953        -1.27894
H         18.15363        25.24249        -1.68427
O         10.84539        31.39415         2.27577
H         10.19661        32.00282         2.70399
O         25.35169        44.63594        -2.68550
H         25.74285        45.44351        -3.08913
O         25.68159        20.38108         1.23224
H         25.38248        21.27882         1.49136
H          4.88855        31.24099        -0.06550
H          4.90888        33.68122        -0.24077
H          7.45779        26.94727         0.35090
H          6.12558        29.07502        -0.03028
H          6.22352        35.72739        -0.73696
H          7.41094        37.88293        -0.86675
H          9.96047        22.73814         0.88880
H          8.72080        24.83774         0.53620
H          8.56672        40.07218        -0.84597
H          9.75581        42.29410        -0.83617
H         12.33029        18.40679         1.11426
H         11.14586        20.64436         1.15676
H         11.00824        44.46978        -0.69142
H         12.26564        46.57785        -0.43032
H         14.78476        14.11027         1.28360
H         13.56795        16.24787         1.19146
H         13.54618        48.69205        -0.30943
H         14.77453        50.90990        -0.02144
H         17.14231         9.81455         1.10718
H         15.99996        11.94970         1.18352
H         16.03478        53.03964        -0.04363
H         17.30004        55.16277         0.12421
H         19.71498         5.40888         0.95239
H         18.32201         7.61464         0.99358
H         18.59298        57.27149         0.30298
H         19.86087        59.36997         0.58337
H         23.04131         2.21753         0.25968
H         20.91089         3.37914         0.83342
H         23.26225        62.65145         1.42173
H         21.13732        61.48120         0.87350
H         25.16167         3.49559         0.12252
H         26.27084         5.52966        -0.12087
H         26.43576        59.17796         2.42077
H         25.30515        61.36437         2.02403
H         27.36152         8.16714        -0.21613
H         28.97831         9.82779         0.76878
H         28.87667        54.91965         2.35982
H         26.62358        56.48467         3.85080
H         30.22732        11.87638         0.56058
H         31.01091        14.52206         1.90631
H         31.40580        50.53948         2.35700
H         30.10909        52.80294         2.25934
H         32.84275        16.08376         0.33117
H         33.95577        18.45875         0.56681
H         33.51965        46.02917         2.32123
H         32.46346        48.26649         2.36841
H         35.04935        20.58742         0.70836
H         36.24683        22.70154         0.74381
H         35.91493        41.84002         2.02818
H         34.74137        44.02132         2.03440
H         37.49695        24.83014         0.86818
H         38.72131        26.93147         1.04434
H         38.41608        37.74291         1.87768
H         37.21163        39.71186         1.82850
H         39.89106        29.10214         1.41190
H         41.10923        31.21600         1.74243
H         41.33049        33.61932         1.31195
H         40.25935        35.61318         1.46497
