         316
 CSIRO Nanostructure Databank - Neutral Graphene Oxide Data Set
C         30.52542        31.70442         0.77951
C         30.54916        32.93911         0.73931
C         30.39840        36.12641         0.61598
C         29.97595        37.25523         0.84877
C         30.13190        40.99052         0.72967
C         30.87721        41.95305         0.52780
C         32.77467        28.84830         0.06684
C         31.74797        29.41669         0.43070
C         32.75656        31.59558        -0.35134
C         31.17541        30.67616        -0.05311
C         32.75810        33.08073        -0.21897
C         31.69895        33.88886         0.61207
C         32.75791        36.09454         0.10808
C         31.43284        35.26439        -0.03973
C         32.79046        37.37904        -0.76000
C         30.09242        38.61652         1.28300
C         33.29051        40.49518        -0.06754
C         29.47006        39.72754         0.73167
C         33.11490        41.84818        -0.45191
C         31.98125        42.62188        -0.07818
C         33.07088        44.44911        -1.22462
C         32.09305        43.94188        -0.63795
C         35.54336        27.35668         0.38624
C         35.26829        28.62555         0.08977
C         34.07231        29.31493        -0.49542
C         35.21775        31.51210         0.12324
C         34.08079        30.86149        -0.26792
C         35.19145        33.00604         0.47162
C         34.13445        33.75465        -0.41992
C         35.08465        36.02273        -0.52678
C         34.00742        35.27355        -0.20862
C         35.20103        37.46461        -0.39343
C         34.05122        38.15670        -0.64678
C         35.41862        40.28380        -0.86599
C         34.07129        39.61770        -0.99947
C         35.48117        41.64195        -1.22928
C         34.16510        42.32951        -1.41416
C         35.51988        44.35511        -2.38485
C         34.19499        43.77792        -1.88955
C         35.66639        45.85198        -2.19410
C         37.78092        27.18796         0.82368
C         36.52388        26.59843         0.81780
C         37.82544        28.61259         0.48267
C         36.61271        29.38283        -0.01241
C         37.79781        31.48431         0.70282
C         36.44294        30.75678         0.67170
C         37.75028        32.92105         1.11714
C         36.57811        33.65772         0.55778
C         37.78216        35.85161         0.72820
C         36.87505        34.88954         0.05328
C         37.67087        37.35770         0.61483
C         36.45864        38.12130         0.06462
C         37.80540        40.34800         0.01734
C         36.50162        39.61926        -0.10824
C         37.85669        41.73780        -0.53130
C         36.67703        42.38077        -1.19024
C         37.97398        44.43382        -1.61092
C         36.77938        43.74086        -1.67485
C         38.15059        45.87902        -2.21315
C         36.75967        46.41103        -2.10704
C         40.33277        24.49598         1.58968
C         39.29743        25.16488         1.60874
C         40.25469        27.11506         0.66911
C         39.02774        26.63960         1.47706
C         40.29359        28.57689         0.15448
C         39.01271        29.33062         0.50336
C         40.31263        31.47100         1.01248
C         38.98458        30.78404         0.64646
C         40.25710        32.97218         0.77563
C         39.03363        33.69475         1.27166
C         40.23275        35.90761         0.55798
C         39.06404        35.24899         1.31174
C         40.26936        37.40936         0.78443
C         38.95821        38.19262         0.97072
C         40.26718        40.21453         0.28135
C         39.06241        39.57724         0.30424
C         40.33661        41.72698         0.05599
C         39.21089        42.30316        -0.88357
C         40.46959        44.50931        -0.95308
C         39.10822        43.85645        -0.76953
C         40.46536        46.02489        -0.96124
C         39.26819        46.70579        -1.57501
C         40.21610        48.71772        -0.69281
C         39.18762        48.10337        -1.07447
C         42.89081        24.41347         0.70687
C         41.75330        25.00412         1.52411
C         42.74003        27.14877         0.33105
C         41.53487        26.34622         0.73233
C         42.67594        28.55677         0.83945
C         41.54890        29.32207         0.60084
C         42.86474        31.54669         0.49446
C         41.51105        30.82027         0.25627
C         42.80338        33.06095         0.40050
C         41.50915        33.74853         0.51737
C         42.80064        35.96479         0.71850
C         41.52637        35.19318         0.97762
C         42.75310        37.36456         0.84604
C         41.48391        38.06360         0.82134
C         42.83991        40.23096         0.66784
C         41.48474        39.57548         0.96714
C         42.85824        41.60843         0.35361
C         41.71488        42.21262        -0.42583
C         42.75409        44.56921         0.26656
C         41.70292        43.76375        -0.53490
C         42.82142        46.03705        -0.22361
C         41.42755        46.72471         0.00247
C         42.69080        48.81273         0.17218
C         41.47368        48.31441        -0.18579
C         43.83566        25.08468         0.26033
C         45.33339        27.29882        -0.18938
C         44.02373        26.49312        -0.15463
C         45.23153        28.82550        -0.60539
C         44.11381        29.61696        -0.87156
C         45.21792        31.70946        -0.33053
C         44.05941        30.98423        -0.30328
C         45.16003        33.21585        -0.26894
C         43.96899        33.80002         0.44724
C         45.29553        35.85909         1.01119
C         43.99521        35.22674         0.66355
C         45.30420        37.33540         1.36044
C         43.94924        38.10327         1.42383
C         45.31741        40.26702         1.27977
C         44.03076        39.52909         0.93038
C         45.36826        41.68387         0.66240
C         44.02396        42.43875         0.83138
C         45.31327        44.65077         0.56698
C         44.10539        43.83587         0.14209
C         45.26649        46.04362         0.58700
C         44.03616        46.78118         0.44766
C         43.74358        48.11077         0.48239
C         47.48289        27.49534        -1.42155
C         46.45766        26.85998        -1.10217
C         47.47207        28.96948        -1.78313
C         46.56018        29.57649        -0.61620
C         47.53787        31.83256        -1.18303
C         46.45147        31.08382        -0.80038
C         47.52172        33.35458        -1.03806
C         46.55122        33.70974         0.12578
C         47.98348        35.79824         0.79075
C         46.58660        35.13888         0.70686
C         47.94797        37.32834         1.10028
C         46.63199        38.04725         1.38064
C         47.87523        40.25220         1.64204
C         46.66138        39.52185         0.97267
C         47.83758        41.79446         1.53044
C         46.49577        42.54006         1.28675
C         47.96007        44.56373         0.47506
C         46.60217        43.87679         0.56171
C         47.72545        46.00889         0.63242
C         46.61681        46.56391         0.61595
C         49.80355        29.33072        -2.94726
C         48.81405        29.72931        -1.82276
C         49.84772        32.12383        -2.33548
C         48.56378        31.25237        -2.14564
C         49.96200        33.52043        -1.75700
C         48.92619        33.92237        -0.70797
C         50.14646        36.21398        -0.58525
C         48.78029        35.48706        -0.50963
C         50.27982        37.61702        -0.04195
C         49.16018        38.17751         0.80627
C         50.38697        40.26911         1.20106
C         49.17911        39.66275         1.05645
C         50.45022        41.67687         1.78309
C         49.16138        42.50337         1.48516
C         50.41035        44.58012         1.44290
C         49.28634        43.83220         0.68883
C         50.83217        30.05134        -3.08241
C         52.23120        32.21337        -2.65233
C         51.10425        31.40001        -2.81618
C         52.30590        33.35043        -2.10650
C         51.30458        34.18899        -1.56356
C         52.52093        36.21434        -0.61427
C         51.38456        35.40866        -0.92242
C         52.67198        37.30531        -0.03875
C         51.64840        38.42066         0.00518
C         52.83311        40.36791         1.07259
C         51.68950        39.38455         1.18410
C         52.78144        41.60795         1.17810
C         51.73799        42.51568         1.43430
C         51.48647        43.86691         1.43312
O         43.02226        26.89172        -1.10890
O         41.43560        44.06500        -1.94597
O         38.36491        33.15407         2.46526
O         49.54920        33.34219        -3.13803
O         40.58745        33.40003        -0.57494
O         31.82265        37.76717        -1.40989
O         36.04436        39.05132         1.15850
O         46.02967        37.62947         2.61499
O         48.40152        42.49785         2.70346
O         36.21397        35.40436        -1.05010
O         45.99737        35.07285         2.05404
O         40.51408        46.53458        -2.32296
O         37.12311        36.62386         1.77829
O         37.65417        41.53301         0.91707
O         32.36277        32.43544        -1.47854
O         47.31134        43.98905        -0.71112
O         33.70971        42.71108        -2.73997
O         40.61735        26.18306        -0.38984
O         49.97876        37.40637        -1.45845
O         48.96994        37.55852         2.11938
O         45.61829        41.57693        -0.75635
H         44.79831        41.24105        -1.18142
O         45.24952        40.42814         2.72130
H         44.97013        39.55283         3.10137
O         31.11930        38.80758         2.17786
H         31.70532        38.00860         2.16583
O         33.57921        39.75020        -2.34422
H         32.70767        39.29381        -2.39519
O         51.73987        39.20243        -1.15677
H         51.50943        38.63896        -1.92877
O         43.71191        28.86186         1.63599
H         43.64040        29.79488         1.98175
O         43.09180        46.09388        -1.61617
H         43.58494        45.28283        -1.88303
O         36.83071        29.64145        -1.42071
H         37.65251        29.18723        -1.71027
O         46.07933        42.96806         2.59301
H         46.04307        42.18041         3.18120
O         44.26080        43.62120        -1.29919
H         45.22502        43.56559        -1.49787
O         46.96783        32.86371         1.23860
H         46.55314        33.25374         2.04586
O         49.76781        43.44344        -0.59108
H         49.65693        44.18923        -1.21653
O         43.64105        38.19607         2.86408
H         43.90270        37.34871         3.28458
O         39.94718        35.75309        -0.85159
H         40.76590        35.91963        -1.36322
O         39.12068        27.22999         2.78142
H         38.39029        26.87942         3.33254
O         47.92275        31.28433        -3.43759
H         47.59467        32.20010        -3.58356
O         51.74141        38.66445         2.38853
H         51.64237        39.28953         3.13761
O         48.64691        35.17632         1.89453
H         48.21475        35.49405         2.71652
O         41.30087        39.86360         2.38147
H         40.44172        39.45006         2.65256
O         30.57015        30.51447        -1.26783
H         30.42212        31.39278        -1.67847
O         32.95735        40.01440         1.11784
H         32.57185        40.70460         1.69784
O         44.84907        33.64024        -1.62480
H         44.02727        33.18327        -1.90298
O         34.56301        33.54765        -1.76598
H         33.80709        33.14529        -2.26090
O         41.23847        30.97151        -1.14270
H         40.86111        30.13028        -1.49986
O         45.80046        27.24140         1.14716
H         46.58293        27.84445         1.21438
O         49.50009        29.62415        -0.60673
H         49.36968        28.72224        -0.24289
O         39.42254        41.93655        -2.24731
H         40.32890        42.22342        -2.51529
O         50.53431        41.45507         3.20810
H         50.37256        42.31188         3.66099
O         49.46986        33.29784         0.45572
H         48.76126        33.22214         1.14394
O         47.95821        36.00457        -1.56115
H         48.37904        36.83124        -1.90368
O         47.87234        39.91409         3.02879
H         48.56049        40.46830         3.46485
O         40.21441        42.29677         1.36869
H         39.34288        42.01639         1.73735
O         41.97496        41.68743        -1.76504
H         42.66072        42.26892        -2.16661
O         40.90119        46.56057         1.30412
H         41.60463        46.70223         1.97089
O         47.08552        33.87440        -2.29903
H         47.87569        34.09918        -2.84259
O         39.14725        35.64208         2.68805
H         38.57779        35.02238         3.19843
O         31.12455        35.06452        -1.40781
H         30.96283        35.94718        -1.81301
O         43.72931        42.60607         2.23570
H         43.85245        41.72861         2.67513
O         36.10497        30.57213         2.07762
H         36.88831        30.20045         2.53806
O         42.33773        44.63589         1.62553
H         42.39756        43.74329         2.04556
O         43.08498        29.29633        -1.66681
H         43.18044        28.37222        -2.00279
O         40.22429        28.48919        -1.30417
H         40.60737        27.60425        -1.54200
O         35.66018        44.04740        -3.75205
H         34.79234        44.11941        -4.19889
O         38.86971        38.48161         2.39174
H         38.57393        37.64201         2.82407
O         46.92413        39.41050        -0.43948
H         46.76453        40.28802        -0.87066
O         28.31665        39.60969        -0.00076
H         28.03241        38.67339        -0.00540
O         46.76782        29.11941        -2.99173
H         47.39853        29.04285        -3.73866
O         40.51645        31.27692         2.43684
H         39.82196        31.80277         2.90280
O         38.75419        44.23157         0.58485
H         37.96692        43.71615         0.86354
O         32.24283        34.11247         1.91460
H         32.99753        33.49143         2.08750
O         34.09308        29.07647        -1.90311
H         35.00935        29.25549        -2.21905
O         32.84245        36.60729         1.46387
H         32.73366        35.81829         2.05847
O         47.29356        29.39912         0.63122
H         47.11227        30.17223         1.20728
O         34.70745        33.03674         1.84987
H         35.19998        32.33719         2.34625
O         41.54978        35.07580         2.42940
H         41.48379        35.97931         2.80795
O         43.20121        31.37137         1.92363
H         42.35466        31.48259         2.43071
O         38.45648        45.71065        -3.58751
H         39.38933        45.99168        -3.73358
O         42.20723        25.28650         2.81609
H         42.41868        24.45255         3.28252
