         349
 CSIRO Nanostructure Databank - Neutral Graphene Oxide Data Set
C          1.18061         1.97555         0.34101
C          1.12508         3.37349         0.34444
C          2.40456         1.32804         0.40677
C          2.30241         4.13019         0.44694
C          1.02376         6.34768         0.05286
C          1.04503         7.68002        -0.23476
C          2.23531         5.61487         0.43386
C          2.26530         8.43005        -0.41361
C          1.02604        10.65529        -0.34775
C          1.07515        11.99501        -0.18830
C          2.23758         9.89222        -0.84257
C          2.27328        12.76577        -0.47919
C          1.00205        15.01765        -0.25270
C          1.05908        16.37992        -0.20160
C          2.17017        14.22545        -0.66228
C          2.30018        17.10988        -0.26060
C          2.33579        18.53271        -0.11389
C          3.62678         2.04035         0.52997
C          3.56610         3.48409         0.57661
C          4.82591         1.25242         0.41071
C          4.77490         4.28474         0.42860
C          3.56294         6.39602         0.12154
C          3.46787         7.76384        -0.39620
C          4.77351         5.60714        -0.04421
C          4.70974         8.44675        -0.82555
C          3.50994        10.62139        -0.33563
C          3.49276        12.11012        -0.66545
C          4.76299         9.89279        -0.72936
C          4.73221        12.81885        -0.82158
C          3.52570        14.99134        -0.69109
C          3.52146        16.40528        -0.31187
C          4.77456        14.22332        -0.62798
C          4.74850        17.04892        -0.00555
C          3.52842        19.20114        -0.00316
C          4.77631        18.49214         0.10412
C          6.10273         1.67988         0.79608
C          6.05346         3.74979         0.76258
C          7.38751         1.24498         0.42721
C          7.30439         4.28508         0.31886
C          6.00198         6.14284        -0.75639
C          6.01672         7.67734        -0.94101
C          7.29637         5.55287        -0.25452
C          7.27119         8.45716        -0.76787
C          5.99627        10.55888        -1.11785
C          5.97527        12.08443        -1.14851
C          7.28479         9.83018        -0.91105
C          7.28837        12.81002        -1.06009
C          5.97609        14.93341        -0.37497
C          5.95350        16.28820         0.02441
C          7.27662        14.27865        -0.64396
C          7.16908        16.92521         0.55886
C          5.98918        19.17039         0.19870
C          7.20621        18.46316         0.58306
C          8.55311         2.08171         0.51857
C          8.52011         3.51777         0.49131
C          9.82107         1.44134         0.42947
C          9.75714         4.24600         0.36172
C          8.55389         6.20857        -0.72788
C          8.51646         7.71089        -0.32271
C          9.78586         5.55484        -0.13938
C          9.77019         8.42983        -0.76837
C          8.54353        10.60322        -0.83913
C          8.54761        12.06385        -0.88346
C          9.74164         9.91042        -0.72988
C          9.72789        12.81034        -0.76789
C          8.51831        14.87574        -0.16792
C          8.46963        16.12974         0.66679
C          9.73161        14.22270        -0.38843
C          9.71868        16.96408         0.51424
C          8.51647        19.11868         0.52550
C          9.71207        18.40550         0.54459
C         11.03734         2.14434         0.53036
C         10.99685         3.55552         0.61222
C         12.32309         1.48300         0.50929
C         12.20426         4.31919         0.93831
C         11.12028         6.16334        -0.51211
C         11.07995         7.68853        -0.72562
C         12.23633         5.73555         0.42793
C         12.31387         8.47586        -0.45431
C         11.03597        10.58443        -0.91588
C         11.01240        12.10718        -0.94372
C         12.28333         9.84882        -0.57328
C         12.29013        12.86469        -0.74243
C         10.95989        14.93979        -0.07617
C         10.93587        16.27371         0.37578
C         12.26553        14.32161        -0.34308
C         12.16134        16.99213         0.91803
C         10.97116        19.10880         0.42868
C         12.19924        18.46539         0.52205
C         13.50680         2.15810         0.74652
C         13.46196         3.54409         1.38771
C         14.75897         1.46457         0.68279
C         14.81270         4.38424         1.24616
C         13.54546         6.41077         0.26672
C         13.53686         7.78582        -0.08849
C         14.73717         5.72071         0.51787
C         14.76398         8.50784        -0.05031
C         13.49137        10.62478        -0.22916
C         13.49571        12.12253        -0.28999
C         14.78682         9.92241        -0.19257
C         14.77258        12.85367        -0.31395
C         13.50863        14.91140         0.15268
C         13.48465        16.27588         0.67924
C         14.76249        14.25398        -0.08157
C         14.74828        17.08812         0.58871
C         13.42434        19.18320         0.44650
C         14.69736        18.57498         0.52065
C         15.98513         2.12081         0.71778
C         16.00588         3.57005         0.75034
C         17.23821         1.39667         0.63973
C         17.17610         4.23382         0.44583
C         15.97851         6.39465         0.31000
C         15.98767         7.80345         0.09184
C         17.20836         5.67026         0.34735
C         17.21755         8.52526         0.08463
C         15.99399        10.63172        -0.22829
C         15.97500        12.05605        -0.74459
C         17.22703         9.95453        -0.06318
C         17.28748        12.82468        -0.59409
C         15.98989        14.97829         0.02908
C         16.01978        16.48702         0.02500
C         17.23999        14.32062        -0.33831
C         17.18051        17.15164         0.84598
C         15.91522        19.27306         0.43650
C         17.20675        18.63355         0.46564
C         18.45059         2.02898         0.45101
C         18.43835         3.49167         0.07496
C         19.71966         1.34658         0.41143
C         19.66623         4.22735         0.56818
C         18.43720         6.37734         0.22340
C         18.41941         7.78391         0.16278
C         19.70780         5.67766         0.31882
C         19.68982         8.50107         0.32855
C         18.45616        10.71295         0.02593
C         18.50209        12.08162        -0.19478
C         19.71008         9.99004         0.35647
C         19.70807        12.82821         0.24652
C         18.50889        15.06679        -0.03771
C         18.54369        16.38478         0.74064
C         19.78870        14.31092         0.10862
C         19.72556        17.16277         0.17205
C         18.38154        19.33378         0.29054
C         19.68539        18.66379         0.06355
C         20.94181         2.01369         0.38622
C         20.96806         3.48106         0.60148
C         22.21026         1.36376         0.26478
C         22.21734         4.23248         0.37958
C         20.92609         6.32112         0.20729
C         20.92388         7.76921        -0.06624
C         22.19510         5.63203         0.23397
C         22.20474         8.51851        -0.21592
C         21.02174        10.65988         0.17369
C         21.02302        12.09402         0.45945
C         22.20024         9.98409        -0.00247
C         22.30134        12.81800         0.38849
C         20.99793        15.03131         0.64935
C         21.02805        16.48989         0.37442
C         22.30587        14.27427         0.63460
C         22.21508        17.18740         0.29672
C         20.99494        19.33665         0.13657
C         22.17615        18.64372         0.16672
C         23.41743         2.06063         0.27699
C         23.44389         3.52079         0.32877
C         24.67388         1.38149         0.09613
C         24.65837         4.23025         0.29220
C         23.43086         6.35825         0.08483
C         23.46791         7.77549        -0.05954
C         24.66662         5.64677         0.16937
C         24.67552         8.49877        -0.07104
C         23.47401        10.67494         0.02851
C         23.47387        12.12637         0.18717
C         24.65583         9.95077        -0.04959
C         24.73739        12.85829         0.09430
C         23.54183        15.02034         0.33548
C         23.49911        16.47998         0.32782
C         24.70325        14.31707         0.10158
C         24.69277        17.18977         0.35548
C         23.49208        19.39005         0.03797
C         24.65608        18.65548         0.73497
C         25.88273         2.04170         0.13254
C         25.94152         3.48653         0.57211
C         27.12117         1.36119        -0.10737
C         27.17489         4.23492         0.12123
C         25.90687         6.37002         0.06146
C         25.92123         7.77909        -0.07486
C         27.14565         5.62368         0.04864
C         27.16561         8.48922        -0.32195
C         25.96905        10.65796         0.17727
C         25.91078        12.15779        -0.04723
C         27.13427         9.99165        -0.57057
C         27.21333        12.86287        -0.35613
C         25.95547        15.07843        -0.25899
C         25.95273        16.49822         0.26118
C         27.22379        14.31903         0.04213
C         27.14247        17.16495         0.43013
C         25.97772        19.33752         0.52495
C         27.16740        18.62474         0.45657
C         28.31653         2.03387        -0.24255
C         28.37448         3.49427        -0.18527
C         29.56321         1.31754        -0.45970
C         29.54405         4.14497        -0.54977
C         28.40309         6.37546        -0.06195
C         28.35869         7.80995        -0.39728
C         29.67510         5.58652        -0.35567
C         29.64016         8.49424        -0.69405
C         28.41812        10.65825        -0.13715
C         28.39014        12.07837         0.21405
C         29.67958        10.01677        -0.45265
C         29.68325        12.80218         0.49212
C         28.39516        14.96436         0.29403
C         28.44286        16.43161         0.64870
C         29.67798        14.26724         0.25048
C         29.63281        17.12858         0.03057
C         28.41266        19.27413         0.22689
C         29.60035        18.54957        -0.07407
C         30.70160         1.94929        -0.81717
C         30.71241         3.41376        -1.17756
C         32.01443         4.11194        -0.84088
C         30.85119         6.28404        -1.02218
C         30.92013         7.75339        -0.61989
C         32.08906         5.44776        -0.77192
C         32.07504         8.45295        -0.42677
C         30.96038        10.62661        -0.05878
C         31.01035        12.03778         0.56266
C         32.08803         9.85603        -0.09222
C         32.13731        12.85260        -0.02968
C         30.83239        14.94660        -0.08221
C         30.80390        16.40598        -0.27914
C         32.05584        14.17735        -0.26894
C         31.93346        17.11866        -0.73958
C         30.76677        19.23102        -0.51627
C         31.90678        18.51363        -0.85213
O         20.22915         3.83988         1.84476
O         17.36742        13.75815        -1.72590
O         10.42941         7.98603        -1.99995
O         29.39080         6.05531         0.99337
O          6.94657        17.64110         1.81091
O         20.14188        12.43187         1.58709
O          5.27254         8.00590        -2.16157
O          3.00590         6.25002         1.47876
O          6.09617         2.77677         1.72744
O         12.48124        13.85262        -1.76648
O         19.72218         9.21022         1.61791
O         14.38334        16.47290         1.86702
O         11.09914        11.33125        -2.18193
O          2.76232        14.70079        -1.90587
O         28.77687        12.43706         1.59730
O         19.44064        14.93652        -1.15838
O         13.27822         3.23479         2.74371
O         11.84546         5.48198         1.78851
O         21.60789        14.63044         1.89430
O         29.61190         9.41879        -1.83861
O         21.41491         8.11412        -1.41104
O          5.88198        11.32203        -2.39858
O         19.55745        17.76260        -1.13455
O         13.24599        11.44540         1.01386
O          7.37845        13.86439        -2.06352
O         27.36213        12.85481        -1.81650
H         27.15558        11.92812        -2.12661
O         18.95345        16.00433         2.06956
H         18.35628        16.47166         2.70692
O         31.32562        11.85417         1.96722
H         30.46295        11.77093         2.43635
O         26.95646        10.19433        -2.01190
H         27.77397         9.82328        -2.43042
O         30.55653         6.28346        -2.44325
H         31.37641         6.50327        -2.93144
O         24.36246        18.72840         2.16643
H         25.06201        18.23299         2.64273
O         28.66363        16.49856         2.10350
H         29.46470        15.96809         2.30276
O         26.29695        10.46483         1.58936
H         25.61877        10.92405         2.12814
O         23.79258        19.55523        -1.35461
H         23.74500        18.67838        -1.78902
O          8.50952        15.62945         2.05216
H          8.24704        16.39205         2.62003
O         16.14419        16.92862        -1.34709
H         16.87805        16.43666        -1.77491
O         25.93773        15.22623        -1.72279
H         26.32773        14.39583        -2.09735
O         16.82852        17.17735         2.24778
H         16.11339        16.52586         2.43179
O         26.04892         3.42359         2.04151
H         26.17296         4.34014         2.36838
O         15.75845        11.86085        -2.18467
H         16.09629        12.67984        -2.62255
O         11.92675        16.99490         2.35622
H         12.81242        17.04065         2.78639
O          8.62772         6.10677        -2.17928
H          7.73239         5.83922        -2.50542
O          5.88770         5.58679        -2.12371
H          5.40200         6.27667        -2.64842
O         30.57653         3.47728        -2.63366
H         29.69995         3.10467        -2.86474
O          8.51602         7.69974         1.13113
H          8.54457         8.62372         1.45659
O         18.55122         3.54154        -1.38652
H         17.77708         3.07309        -1.76372
O          3.42566        10.52996         1.12937
H          4.16522        11.04553         1.51299
O         11.45765         5.58446        -1.80263
H         10.79063         5.93819        -2.43998
O         15.15933         4.78634         2.59117
H         14.51681         4.27598         3.17332
O          2.19778         9.90190        -2.28355
H          2.29805        10.82955        -2.58623
H          0.25201         1.39339         0.26724
H          0.14909         3.87078         0.27281
H          2.44048         0.23014         0.36382
H          0.06913         5.80680        -0.01097
H          0.09194         8.17451        -0.46860
H          0.06257        10.13766        -0.23869
H          0.16053        12.53676         0.09170
H          0.05570        14.50885        -0.02208
H          0.14431        16.94927         0.02169
H          1.38762        19.08973        -0.11691
H          4.72541         0.25891        -0.05088
H          3.54242        20.29799         0.07182
H          7.50851         0.23886         0.00004
H          6.02301        20.26189         0.06651
H          9.84859         0.34269         0.36686
H          8.54235        20.21180         0.40548
H         12.34850         0.40987         0.26238
H         10.94019        20.19758         0.26555
H         14.74166         0.37449         0.52029
H         13.37167        20.27547         0.31138
H         17.20906         0.30609         0.79144
H         15.88353        20.36550         0.29642
H         19.71508         0.24474         0.40901
H         18.33528        20.42545         0.14390
H         22.23176         0.26820         0.15537
H         21.01568        20.43795         0.14381
H         24.65536         0.30180        -0.12140
H         23.39660        20.41445         0.47635
H         27.10353         0.26587        -0.22139
H         26.00022        20.43765         0.49225
H         29.55908         0.22721        -0.30688
H         28.43472        20.37296         0.16867
H         31.62672         1.37478        -0.97669
H         32.91283         3.49462        -0.68501
H         33.04970         5.93720        -0.55065
H         33.04435         7.93347        -0.43156
H         33.05171        10.28799         0.21308
H         33.09885        12.34135        -0.18389
H         32.95003        14.69745        -0.64015
H         32.85521        16.58640        -1.00856
H         30.75145        20.32663        -0.60351
H         32.80246        19.04303        -1.20569
