         410
 CSIRO Nanostructure Databank - Neutral Graphene Oxide Data Set
C         27.87102        27.40137        -0.69462
C         27.81322        28.81386        -0.34128
C         27.01526        29.32900         0.70491
C         28.12298        31.51398         0.52649
C         27.12876        30.66538         1.07486
C         28.18851        32.94234         0.81432
C         27.13573        33.60731         1.45850
C         28.18710        35.78265         1.12322
C         27.12139        34.99863         1.58287
C         28.17365        37.24476         1.25691
C         27.01491        37.96036         1.66920
C         28.10316        40.13697         1.36946
C         26.98072        39.37205         1.63607
C         28.14800        41.63111         1.63586
C         26.85236        42.34910         1.36282
C         28.03357        44.42435         0.83716
C         26.81816        43.65776         1.04042
C         28.00599        45.80413         0.63316
C         30.32212        27.34989        -1.22604
C         28.99994        26.74470        -1.09923
C         30.42539        28.69913        -1.59685
C         28.67667        29.72584        -0.97765
C         30.18637        31.74200        -0.92413
C         28.99412        30.99356        -0.46302
C         30.38382        33.08836        -0.36740
C         29.30178        33.70513         0.34339
C         30.47084        35.85279         0.14429
C         29.32346        35.11719         0.55804
C         30.41126        37.32028         0.19867
C         29.30349        37.98260         0.88946
C         30.58060        40.19819         0.75450
C         29.42521        39.41659         1.33286
C         30.55142        41.62897         0.77706
C         29.34021        42.33066         1.00710
C         30.47840        44.47310         0.49881
C         29.28632        43.72968         0.78587
C         30.43258        45.89796         0.32700
C         29.18444        46.53024         0.40054
C         32.73265        24.62428        -0.29387
C         31.55828        25.27998        -0.56203
C         32.76998        27.39473        -0.90339
C         31.53764        26.67141        -0.88755
C         32.77384        28.80058        -1.15688
C         31.57853        29.49343        -1.41275
C         32.77927        31.71684        -1.24523
C         31.51929        30.98347        -1.43388
C         32.80162        33.08030        -0.97356
C         31.59130        33.78722        -0.58113
C         32.87342        35.93422        -0.46861
C         31.62994        35.19882        -0.31750
C         32.92123        37.29840        -0.19378
C         31.70357        38.09127        -0.00439
C         32.94872        40.25186         0.15908
C         31.75417        39.52938         0.38041
C         32.98198        41.66621         0.22648
C         31.75017        42.37141         0.48594
C         32.96038        44.55368         0.40998
C         31.71116        43.77887         0.44036
C         32.91688        45.98690         0.08155
C         31.66855        46.64514         0.06828
C         32.84513        48.74569        -0.33985
C         31.66591        48.04288        -0.17267
C         35.27142        23.21277         0.19984
C         35.20280        24.64879         0.09320
C         33.98384        25.31509        -0.27399
C         35.24334        27.39572        -0.54199
C         33.99666        26.70768        -0.56533
C         35.32331        28.76486        -1.09619
C         34.05353        29.49615        -1.41192
C         35.32152        31.68271        -1.19746
C         34.05196        31.00593        -1.67178
C         35.31840        33.08937        -1.10352
C         34.07017        33.80981        -0.96489
C         35.34904        35.91170        -0.84229
C         34.09710        35.19497        -0.74932
C         35.38383        37.32287        -0.69453
C         34.20517        38.00971        -0.14343
C         35.35072        40.27109        -0.57107
C         34.21305        39.52552        -0.02454
C         35.35205        41.67418        -0.53828
C         34.19556        42.35893        -0.04911
C         35.42721        44.56520        -0.31490
C         34.26772        43.80304         0.17457
C         35.38833        45.98386        -0.32802
C         34.13397        46.68536        -0.16630
C         35.34513        48.83115        -0.50261
C         34.10653        48.09736        -0.33381
C         35.35548        50.25652        -0.27623
C         37.48908        23.31224         1.23030
C         36.39831        22.58247         0.64981
C         37.54834        24.78482         1.00365
C         36.38363        25.39668         0.29601
C         37.72452        27.40776        -0.38764
C         36.41307        26.75859        -0.10774
C         37.76794        28.85580        -0.69546
C         36.57699        29.53674        -0.94158
C         37.78935        31.66338        -1.05682
C         36.54281        30.96162        -1.07816
C         37.79433        33.08776        -1.15248
C         36.56865        33.79466        -1.09831
C         37.79943        35.95677        -1.17452
C         36.57147        35.22715        -1.06707
C         37.77820        37.38351        -1.20221
C         36.54835        38.05212        -0.96921
C         37.77545        40.29909        -1.35193
C         36.47375        39.51937        -1.11248
C         37.76776        41.74374        -1.08493
C         36.57462        42.42145        -0.81392
C         37.78740        44.59395        -0.96298
C         36.58630        43.86311        -0.69934
C         37.79406        46.01979        -0.88935
C         36.57709        46.71573        -0.63008
C         37.80860        48.88977        -0.97993
C         36.55523        48.14645        -0.70541
C         37.78314        50.40903        -0.67809
C         36.50442        50.97548        -0.22891
C         40.03376        20.78925         2.38959
C         38.76930        21.24768         2.07763
C         40.28193        23.76130         2.02843
C         38.43176        22.64023         2.01331
C         40.20872        24.91615         1.25101
C         38.90380        25.55414         0.97280
C         40.26614        27.50970         0.01671
C         38.99069        26.74984         0.06584
C         40.28083        28.83760        -0.48024
C         39.02569        29.53787        -0.75198
C         40.25586        31.63323        -1.29961
C         39.00756        30.92210        -1.00802
C         40.24246        33.09556        -1.29652
C         39.04733        33.80917        -1.23877
C         40.25264        35.99802        -1.27777
C         39.04235        35.25655        -1.26691
C         40.23248        37.40514        -1.21142
C         39.01065        38.13215        -1.27529
C         40.25676        40.29757        -1.23943
C         39.03257        39.55600        -1.27095
C         40.25253        41.76016        -1.25498
C         39.01282        42.44637        -1.17649
C         40.20102        44.56692        -1.46789
C         38.99776        43.86705        -1.18343
C         40.06038        45.96927        -1.68818
C         39.01061        46.74226        -1.18456
C         40.32122        48.92644        -0.81905
C         39.12093        48.19238        -1.01033
C         40.26399        50.32593        -0.41415
C         39.06092        51.03108        -0.27826
C         40.15476        52.97759         0.76081
C         39.03606        52.35975         0.26269
C         42.49508        20.77390         2.42636
C         41.28645        21.51027         2.36008
C         42.64148        23.45400         1.58321
C         41.40236        22.89383         2.01188
C         42.66549        24.80224         1.08941
C         41.44667        25.48862         0.82193
C         42.73090        27.50714         0.20529
C         41.47602        26.83893         0.32490
C         42.75259        28.88026        -0.19586
C         41.53048        29.50376        -0.58534
C         42.81978        31.63241        -0.88865
C         41.59257        30.86540        -1.12575
C         42.74714        33.09352        -0.91399
C         41.53111        33.78461        -1.45155
C         42.81776        35.98353        -1.12672
C         41.54678        35.29290        -1.40785
C         42.81128        37.42529        -0.93321
C         41.46972        38.16640        -0.99282
C         42.74237        40.33195        -1.30141
C         41.46576        39.60457        -1.22025
C         42.72918        41.76109        -0.80681
C         41.47001        42.50314        -1.22360
C         42.76398        44.66423        -1.36678
C         41.46549        43.89753        -1.39960
C         42.80307        46.07418        -0.86974
C         41.90954        46.98129        -1.33315
C         42.75897        48.82925        -0.12657
C         41.66214        48.29625        -0.76095
C         42.80298        50.25107         0.21376
C         41.50104        51.04806        -0.02219
C         42.54656        52.83581         1.34530
C         41.41580        52.31726         0.71667
C         43.72521        21.35301         2.14288
C         45.10562        23.33389         1.40616
C         43.83479        22.69304         1.69547
C         45.14395        24.72606         1.07880
C         43.92097        25.44700         0.87259
C         45.20251        27.50164         0.37249
C         43.95057        26.81619         0.47843
C         45.21897        28.89809         0.06077
C         43.99608        29.58926        -0.22027
C         45.22903        31.77541        -0.37718
C         44.00105        31.01085        -0.48235
C         45.29049        33.14354        -0.63546
C         44.02627        33.87844        -0.76214
C         45.28383        36.00897        -1.14470
C         44.03907        35.31561        -1.09780
C         45.25781        37.43467        -1.26671
C         44.06528        38.13030        -1.17048
C         45.28528        40.30571        -0.77547
C         44.04761        39.59821        -1.28894
C         45.23339        41.78909        -1.03429
C         44.03871        42.44874        -1.09361
C         45.21876        44.57815        -0.55467
C         44.04424        43.92266        -1.18819
C         45.15484        45.81232         0.06315
C         43.82896        46.54693         0.14317
C         44.98281        48.52627         1.05968
C         44.06796        48.05448        -0.05663
C         44.79897        49.79437         1.66943
C         43.79334        50.73650         1.16941
C         43.70174        52.05795         1.58805
C         47.53770        23.27593         1.33905
C         46.32021        22.62550         1.49207
C         47.59828        24.66281         1.11964
C         46.39906        25.40273         0.96126
C         47.65005        27.53436         0.56586
C         46.42633        26.82285         0.65232
C         47.68475        28.91250         0.21412
C         46.45969        29.59156         0.03664
C         47.77538        31.80154        -0.10960
C         46.45768        31.06313        -0.00101
C         47.76339        33.21145        -0.55105
C         46.52874        33.88305        -0.73029
C         47.76626        35.97591        -1.15945
C         46.52866        35.28832        -1.04195
C         47.82124        37.41014        -1.52467
C         46.50388        38.18874        -1.52784
C         47.76085        40.30573        -1.29428
C         46.56150        39.62915        -1.24090
C         47.75005        41.79580        -1.25870
C         46.48718        42.52160        -0.99149
C         47.68031        44.62621        -0.28289
C         46.46387        43.85974        -0.62923
C         47.53717        45.73183         0.71540
C         46.28087        46.36480         0.79601
C         46.69936        48.01501         2.66738
C         45.99922        47.63877         1.50550
C         46.50930        49.24466         3.30641
C         45.58642        50.14377         2.78811
C         50.16531        24.66341         0.89725
C         48.90656        25.36056         1.16727
C         50.18182        27.50956         0.52213
C         48.91625        26.87724         0.92217
C         50.15948        28.86095         0.06386
C         48.96118        29.59270        -0.00383
C         50.18635        31.68111        -0.60800
C         49.00935        31.00839        -0.29137
C         50.23949        33.14024        -0.63429
C         48.98992        33.89134        -0.66151
C         50.21833        36.03598        -0.91753
C         48.98877        35.30043        -0.92051
C         50.26207        37.42640        -1.13741
C         49.06887        38.18117        -1.35030
C         50.25436        40.35602        -1.16961
C         49.04111        39.60728        -1.36754
C         50.27896        41.73556        -0.84139
C         49.04840        42.53837        -1.03693
C         50.18755        44.42247         0.23789
C         49.00798        43.94326        -0.50437
C         50.05797        45.56044         1.08198
C         48.75463        46.09735         1.43354
C         49.87913        47.35720         3.24781
C         48.72375        46.87796         2.60814
C         51.33206        25.35095         0.74280
C         52.65305        27.47442         0.46760
C         51.38112        26.78355         0.60472
C         52.69113        28.81130        -0.01759
C         51.41911        29.44761        -0.43147
C         52.74367        31.63886        -0.96883
C         51.41982        30.91855        -0.85813
C         52.74112        33.16373        -1.11147
C         51.44227        33.81495        -0.68807
C         52.75807        36.01060        -0.50301
C         51.44290        35.29070        -0.56501
C         52.80864        37.44426        -0.84819
C         51.56295        38.11092        -1.25064
C         52.77168        40.34890        -0.87124
C         51.54421        39.66220        -1.27075
C         52.72735        41.68485        -0.52961
C         51.47498        42.40703        -0.48386
C         52.60760        44.41202         0.51770
C         51.42229        43.75873         0.05479
C         52.53373        45.55811         1.32525
C         51.24128        46.06509         1.71960
C         51.12880        47.01070         2.76424
C         55.05804        27.53996         0.82994
C         53.85964        26.85265         0.86875
C         55.10145        28.88564         0.39468
C         53.90857        29.51793        -0.04692
C         55.22038        31.69612        -0.23963
C         53.99661        30.91523        -0.54609
C         55.21532        33.11244        -0.36319
C         54.00044        33.84734        -0.57980
C         55.24657        35.98328        -0.45359
C         54.02324        35.24141        -0.54108
C         55.23922        37.40116        -0.56166
C         54.01544        38.11740        -0.80509
C         55.17823        40.21065        -0.13183
C         54.09657        39.62542        -1.06112
C         55.25729        41.72287        -0.18302
C         54.00062        42.43441        -0.38982
C         55.13237        44.45594         0.73833
C         53.92436        43.89575         0.12748
C         54.98969        45.66950         1.48856
C         53.75515        46.19369         1.75926
C         56.33089        29.62134         0.43487
C         56.37267        30.97155         0.16562
C         56.42333        33.86576        -0.19100
C         56.44981        35.23249        -0.27557
C         56.47873        38.15656        -0.53133
C         56.48326        39.49791        -0.37375
C         56.38694        42.42825         0.18017
C         56.33922        43.78496         0.60136
O         37.99197        25.66436         2.10064
O         42.59467        51.06512        -0.99386
O         47.12779        31.62489         1.19741
O         48.52219        44.95068        -1.45060
O         47.13385        37.76380        -2.77491
O         36.89124        39.93426        -2.46346
O         48.50400        42.38715        -2.37773
O         33.85323        44.22150         1.52792
O         29.29664        29.30629        -2.16409
O         53.59948        31.03679        -1.98498
O         34.80135        28.80677        -2.48695
O         47.52783        47.08493         3.30880
O         51.30009        29.85268        -1.84150
O         41.07384        46.60940        -2.39288
O         51.99921        35.74445         0.75620
O         38.49408        26.52961        -1.30653
O         41.68115        34.52920        -2.69318
O         43.64746        44.43594        -2.52310
O         39.21303        23.44369         2.86765
O         43.13172        33.64741         0.40154
O         51.71031        38.86755        -2.50192
O         54.06414        43.57626        -1.28879
O         30.73879        37.93345        -1.11460
O         42.11753        37.84473         0.31761
O         30.55849        31.60839        -2.31723
O         37.71458        49.89544        -2.04102
O         43.49632        40.10583        -2.54608
O         48.96230        26.31544         2.27840
O         34.52115        38.65576         1.15307
O         40.99057        31.05585        -2.44645
O         34.07597        31.18091        -3.12107
H         34.56807        30.40832        -3.48814
O         44.73397        48.21316        -1.32849
H         44.72761        49.16360        -1.56755
O         45.21010        40.14144         0.68642
H         46.01774        40.53234         1.08200
O         54.72789        39.88660         1.22160
H         55.45168        40.11003         1.84329
O         42.65541        41.68762         0.65744
H         43.38337        41.09128         0.95840
O         29.81438        39.32411         2.79313
H         29.12171        38.77659         3.22605
O         28.38288        41.73312         3.08856
H         29.13379        41.12210         3.28912
O         54.50098        39.82743        -2.43122
H         53.74725        39.54863        -2.99893
O         43.29601        46.37444         1.48435
H         43.19344        45.41536         1.65651
O         52.79054        33.43372        -2.55118
H         53.28207        32.68026        -2.95686
H         26.97280        26.79781        -0.48809
H         26.30204        28.67373         1.22458
H         26.46233        31.05219         1.85752
H         26.27436        33.03811         1.83282
H         26.24906        35.47171         2.05313
H         26.09127        37.42325         1.91945
H         26.01601        39.86097         1.83492
H         25.90845        41.80753         1.51901
H         25.85454        44.17472         0.91474
H         27.04389        46.33561         0.66310
H         28.93193        25.65066        -1.20388
H         29.10588        47.61755         0.26698
H         32.69822        23.55325        -0.05362
H         30.61420        24.71913        -0.54167
H         32.78652        49.82821        -0.51504
H         30.71662        48.59364        -0.21187
H         34.41716        22.60516        -0.12563
H         34.41982        50.74788         0.02280
H         36.41358        21.48498         0.71637
H         36.46197        52.01319         0.12712
H         40.14412        19.69595         2.48110
H         37.99360        20.49947         1.85238
H         40.08558        53.97996         1.20673
H         38.08435        52.90416         0.29715
H         42.45455        19.70933         2.70070
H         42.48435        53.83552         1.79963
H         44.62702        20.73341         2.24127
H         44.48713        52.49360         2.22113
H         48.46581        22.69898         1.45008
H         46.32027        21.54952         1.71045
H         47.07466        49.47796         4.21759
H         45.43594        51.10837         3.29004
H         50.16636        23.56846         0.80115
H         49.77429        47.98485         4.14201
H         52.25910        24.78099         0.58901
H         52.02420        47.39602         3.26798
H         55.98595        27.05392         1.16310
H         53.84388        25.82336         1.25102
H         55.89516        46.16841         1.86366
H         53.69605        47.12854         2.33213
H         57.24335        29.09976         0.75646
H         57.32738        31.49652         0.30112
H         57.37267        33.33745        -0.03528
H         57.41437        35.74872        -0.18378
H         57.43391        37.62531        -0.64653
H         57.43455        40.04815        -0.36854
H         57.34878        41.90555         0.28616
H         57.25867        44.24520         0.99119
