         404
 CSIRO Nanostructure Databank - Neutral Graphene Oxide Data Set
C          1.47008         3.59608         0.70705
C          0.34232         4.31437         1.10667
C          0.85091         6.11655        -0.46078
C          0.05763         5.57638         0.57567
C          0.67543         7.48952        -0.94745
C         -0.08009         8.48414        -0.37523
C          1.19755        10.55452        -1.05408
C          0.04177         9.88509        -0.68417
C          1.22811        12.02720        -1.06658
C          0.06983        12.78596        -1.34355
C          1.27320        14.87753        -0.93698
C          0.09528        14.16997        -1.27382
C          1.28109        16.32429        -0.79943
C          0.09173        17.08100        -0.90673
C          1.26417        19.15381        -0.37821
C          0.08204        18.45041        -0.71038
C          1.25534        20.61526        -0.22864
C          0.05075        21.35078        -0.29670
C          1.23961        23.48443        -0.12551
C          0.04811        22.73307        -0.17657
C          1.12363        24.93404         0.14286
C          0.07643        25.52136         0.90263
C          1.18045        27.72154         0.83095
C          0.07059        26.88886         1.14556
C          1.19592        29.15013         1.04782
C          0.01348        29.87843         1.31471
C          1.24044        31.98562         1.29707
C          0.02806        31.25955         1.39595
C          1.24985        33.46536         1.37153
C          0.07716        34.20718         1.68957
C          1.23694        36.32666         1.35231
C          0.06473        35.59102         1.65402
C          1.25302        37.75751         1.29528
C          3.61148         3.48171        -0.55462
C          2.33411         4.11735        -0.28466
C          3.79368         6.34441        -1.51707
C          1.92606         5.31560        -0.91852
C          3.75568         7.76218        -1.39415
C          2.56034         8.51251        -1.56838
C          3.67789        10.52779        -0.80496
C          2.47793         9.86174        -1.19331
C          3.61489        11.93662        -0.40055
C          2.41942        12.72151        -0.75651
C          3.71708        14.84997        -0.46000
C          2.46708        14.14153        -0.69771
C          3.73782        16.27542        -0.39067
C          2.49211        17.00889        -0.50106
C          3.69847        19.08387         0.15224
C          2.46287        18.41281        -0.28368
C          3.70481        20.60934         0.24654
C          2.46180        21.34225        -0.09068
C          3.79183        23.40525        -0.15331
C          2.48355        22.76364        -0.17324
C          3.94245        24.76059        -0.49511
C          2.10822        25.82590        -0.29339
C          3.61136        27.79818         0.18669
C          2.31745        27.13186         0.21181
C          3.64938        29.12229         0.61895
C          2.43021        29.85208         0.92285
C          3.73145        32.03714         1.22895
C          2.43594        31.26515         1.10227
C          3.62489        33.41865         0.58890
C          2.42114        34.17924         1.08207
C          3.64784        36.34631         0.88811
C          2.44668        35.60877         1.10432
C          3.65455        37.76212         0.83728
C          2.40622        38.45015         1.02313
C          6.04820         3.41193        -0.76016
C          4.80808         4.12938        -0.87401
C          6.10270         6.26268        -0.80901
C          4.88321         5.57803        -1.08607
C          6.12810         7.68361        -0.78778
C          4.93377         8.43624        -0.97565
C          6.15553        10.54337        -0.51492
C          4.91117         9.84399        -0.74492
C          6.18933        11.93887        -0.37823
C          4.93345        12.67856        -0.20006
C          6.18563        14.81043        -0.29094
C          4.93825        14.14032        -0.34564
C          6.20858        16.23793        -0.20214
C          4.97717        16.96099        -0.20346
C          6.17558        19.10466         0.16016
C          4.98916        18.39193         0.00022
C          6.20845        20.54614         0.24409
C          5.01157        21.28381         0.20806
C          6.23656        23.42994         0.19615
C          5.01420        22.70980         0.11869
C          6.23783        24.87261         0.16033
C          5.02507        25.56365        -0.12203
C          6.21184        27.76874         0.15833
C          4.90529        27.05909        -0.15553
C          6.19217        29.15874         0.56053
C          4.93815        29.83022         0.97942
C          6.14108        31.99855         0.41404
C          4.94949        31.31192         0.72732
C          6.15600        33.45975         0.34973
C          4.93532        34.14467         0.81897
C          6.16093        36.35837         0.49686
C          4.93756        35.64467         0.87189
C          6.12408        37.79568         0.47972
C          4.87841        38.46104         0.66176
C          8.50821         3.34246        -0.43732
C          7.29252         4.04873        -0.68886
C          8.52742         6.16698        -0.49723
C          7.32955         5.51104        -0.67293
C          8.53764         7.60808        -0.24346
C          7.33650         8.38949        -0.51566
C          8.64659        10.49002        -0.52979
C          7.38172         9.79240        -0.48759
C          8.66843        11.93944        -0.50220
C          7.42413        12.66106        -0.33647
C          8.67158        14.78997         0.00005
C          7.41110        14.06636        -0.21716
C          8.69398        16.25889        -0.09701
C          7.46021        16.92463        -0.07037
C          8.76694        19.10567         0.16710
C          7.44487        18.35915         0.23908
C          8.70649        20.57060         0.04067
C          7.47398        21.25196         0.19625
C          8.70489        23.36803         0.30472
C          7.47301        22.68678         0.24956
C          8.69371        24.82854         0.52560
C          7.45526        25.59313         0.29307
C          8.69685        27.71930         0.35694
C          7.48014        27.01046         0.30703
C          8.75563        29.15122         0.63959
C          7.42947        29.90250         0.73593
C          8.56878        31.98899        -0.19656
C          7.39170        31.32674         0.38434
C          8.48830        33.49450        -0.44310
C          7.29659        34.19325         0.08257
C          8.56334        36.36126         0.01646
C          7.32981        35.64489         0.19754
C          8.56694        37.79505         0.15477
C          7.34096        38.49029         0.32213
C         10.95853         3.33140        -0.04940
C          9.75740         3.99048        -0.34978
C         11.06977         6.17921        -0.34827
C          9.81636         5.44152        -0.76222
C         11.11309         7.58126        -0.41067
C          9.86730         8.35244        -0.25312
C         11.11144        10.40158        -0.93744
C          9.84173         9.76924        -0.58171
C         11.11723        11.94512        -0.95463
C          9.88268        12.62209        -0.57777
C         11.20718        14.79324        -0.54085
C          9.98582        14.03035        -0.19095
C         11.14946        16.20854        -0.52622
C          9.95546        16.94262        -0.23401
C         11.14323        19.12192        -0.56039
C          9.98623        18.38449        -0.25323
C         11.14507        20.57800        -0.51448
C          9.91905        21.26800        -0.17686
C         11.14402        23.38208        -0.17592
C          9.91916        22.68296         0.01534
C         11.24069        24.79805         0.22023
C          9.98310        25.57123         0.48391
C         11.22788        27.72229         0.00133
C          9.92331        26.97497        -0.08719
C         11.25768        29.19078         0.02784
C          9.99814        29.95209         0.32927
C         11.04434        32.02470        -0.56821
C          9.91004        31.35388        -0.17035
C         11.06946        33.50226        -0.78871
C          9.75990        34.26200        -0.64792
C         11.01750        36.36275        -0.20976
C          9.78375        35.68417        -0.24709
C         11.02572        37.79407        -0.02643
C          9.80036        38.48278         0.09922
C         13.38297         3.31449         0.39537
C         12.21888         4.00351         0.04130
C         13.48766         6.16086        -0.05383
C         12.26395         5.45527        -0.14469
C         13.55026         7.56442        -0.22016
C         12.34257         8.29271        -0.41109
C         13.58430        10.43381        -0.57259
C         12.37215         9.70883        -0.62918
C         13.57994        11.87552        -0.72590
C         12.40660        12.63228        -0.76400
C         13.68416        14.75479        -0.87810
C         12.41626        14.07226        -0.75446
C         13.67746        16.21207        -1.14635
C         12.34088        16.95869        -0.96308
C         13.58741        19.10179        -0.94103
C         12.38460        18.42774        -0.81563
C         13.57825        20.56957        -1.32878
C         12.30108        21.30863        -0.86017
C         13.30888        23.61666        -1.26171
C         12.24751        22.74507        -0.78156
C         13.55392        24.90198        -0.85085
C         12.47176        25.57293        -0.11256
C         13.53552        27.68835        -0.82223
C         12.39015        27.03178        -0.29072
C         13.35717        29.04605        -1.18892
C         12.32947        29.85027        -0.72371
C         13.65829        32.12249        -0.78281
C         12.32063        31.31565        -0.86061
C         13.57041        33.55113        -0.36838
C         12.32867        34.23794        -0.48698
C         13.48943        36.36798        -0.14214
C         12.27027        35.64300        -0.28069
C         13.48860        37.80403        -0.07511
C         12.25947        38.49124        -0.00960
C         15.75538         3.35504         1.09642
C         14.64601         3.97625         0.57685
C         15.97200         6.20631         0.48774
C         14.72675         5.39618         0.14288
C         15.89718         7.66266         0.50279
C         14.77078         8.31247         0.00572
C         16.01277        10.44206         0.02981
C         14.78430         9.74747        -0.17909
C         16.15296        11.82326        -0.45809
C         14.86299        12.58035        -0.83300
C         16.18720        14.71966        -1.00081
C         14.87393        14.04961        -0.83490
C         16.20041        16.25004        -1.02546
C         14.91734        16.98111        -0.98029
C         16.02831        19.10719        -0.47740
C         14.86342        18.39229        -0.85769
C         15.93224        20.54308        -0.16030
C         14.86357        21.26294        -0.87403
C         16.17632        23.40503        -0.74386
C         15.13911        22.53834        -1.26961
C         16.07183        24.85065        -0.75300
C         14.84343        25.58962        -0.93303
C         16.01086        27.76181        -0.50031
C         14.82252        27.02292        -0.87769
C         16.15338        29.21994        -0.35151
C         15.18463        30.09460        -0.91147
C         15.95903        32.05347         0.23494
C         14.94534        31.43005        -0.52029
C         16.02030        33.55820         0.43900
C         14.74577        34.24721        -0.03814
C         15.94959        36.40505        -0.21804
C         14.72941        35.67351        -0.08979
C         15.94397        37.81040        -0.22928
C         14.73102        38.49527        -0.08875
C         18.29250         3.39306         1.46152
C         16.96621         4.10116         1.59980
C         18.26216         6.26029         1.38111
C         17.07560         5.53069         1.15720
C         18.28225         7.68667         1.28734
C         16.97982         8.43956         1.20114
C         18.34361        10.53811         0.83563
C         17.12744         9.82848         0.62645
C         18.41696        11.95911         0.54163
C         17.34152        12.60000        -0.08464
C         18.65886        14.81298        -0.04931
C         17.43703        13.98332        -0.57362
C         18.58967        16.28407        -0.01228
C         17.47463        16.98697        -0.68054
C         18.47689        19.19238         0.24423
C         17.35167        18.48519        -0.41855
C         18.46384        20.59955         0.34622
C         17.19458        21.32884         0.15630
C         18.44967        23.50623         0.23844
C         17.26431        22.78006        -0.12295
C         18.43102        24.93779         0.18644
C         17.17497        25.56282        -0.18817
C         18.73936        27.98560         0.64644
C         16.95431        26.92512         0.12711
C         18.63233        29.35892         0.37395
C         17.25590        29.89915         0.28722
C         18.91066        32.33511         0.21347
C         17.05390        31.25677         0.59333
C         18.61716        33.59420        -0.33375
C         17.24531        34.18166        -0.29008
C         18.40504        36.39014        -0.91895
C         17.16255        35.65653        -0.60461
C         18.40902        37.79724        -0.88918
C         17.23085        38.59319        -0.37415
C         19.45379         4.08731         1.54151
C         20.67949         6.26363         1.71832
C         19.48373         5.53784         1.59332
C         20.68283         7.65448         1.64663
C         19.48721         8.39185         1.43478
C         20.63726        10.60836         1.66555
C         19.49255         9.85544         1.33229
C         20.66972        11.98745         1.52091
C         19.59054        12.70161         0.94552
C         20.58511        14.91771         1.48382
C         19.62671        14.12362         0.81336
C         20.60947        16.29238         1.35457
C         19.61041        17.00150         0.61981
C         20.78359        19.19733         0.98491
C         19.63438        18.46885         0.60642
C         20.79790        20.58506         0.97176
C         19.63396        21.32529         0.66724
C         20.78050        23.53837         0.90998
C         19.62460        22.79324         0.63377
C         20.79289        24.92827         0.78667
C         19.64944        25.66581         0.44185
C         20.96839        27.81291        -0.10719
C         19.80463        27.13608         0.32217
C         20.98018        29.20715        -0.21161
C         19.83861        30.02338        -0.01025
C         20.80901        32.06432        -1.20333
C         19.89278        31.46864        -0.30529
C         20.72872        33.42224        -1.50980
C         19.62185        34.21467        -1.12149
C         20.67724        36.39318        -1.78069
C         19.55441        35.66659        -1.33738
C         20.66677        37.78595        -1.78188
C         19.54994        38.48704        -1.31868
O         17.82925        17.93836        -1.72488
O          1.42894         7.86039        -2.09226
O         14.38680        29.59964        -1.95622
O          5.63716        27.65421        -1.27198
O          8.21750        32.56672        -1.52312
O          4.12886        12.20704         0.94546
O         14.23460        23.10183        -2.19033
O          8.22486        18.65291         1.45667
O         15.73423         5.62481        -0.87722
O          2.66275         5.70523        -2.05276
O         12.99489        31.85081        -2.04077
O         16.20595        20.96737         1.21996
O          3.54665        19.76677         1.44442
O         16.86618        34.62141        -1.62761
O         12.83157        16.55434        -2.29004
O         18.10610        31.89614         1.28460
O         11.00942        29.80263         1.38188
O          8.21006        29.52858         1.96224
O          2.96935        25.36716        -1.29011
O          9.45968        14.30289         1.15073
O         15.75622        12.01229        -1.85303
O         12.26290        25.07359         1.25492
O         11.07509        11.15837        -2.18868
O         16.32989        15.44104        -2.25394
O         17.62144        27.41022         1.25412
O          9.39428        25.31455         1.76866
O         10.35920        34.01361        -1.96093
O          5.09397        34.79406         2.10202
O          9.20365         8.00197         1.01888
O         18.58241        14.25327        -1.41191
O          9.91226         5.41381        -2.24043
H         10.68810         4.85903        -2.47162
O         16.74052         4.17305         3.07445
H         17.49621         4.66908         3.45791
O         16.14858        33.84898         1.84872
H         16.87818        33.28404         2.19269
O         17.59944        39.13109         0.90997
H         16.79971        39.52287         1.31694
O          3.46945        33.21056        -0.83824
H          3.17981        34.05030        -1.25105
O          3.93405        32.24481         2.65409
H          4.16535        31.36253         3.03463
O         13.53855        20.56030        -2.78235
H         13.67375        21.49084        -3.07857
O         16.53013         8.62014         2.60630
H         15.66664         9.08496         2.57869
O          9.75864        26.71708        -1.53806
H          9.56757        27.56645        -1.99007
O          4.97634        29.70668         2.49393
H          5.91754        29.80588         2.76750
H          1.71647         2.64272         1.19554
H         -0.30953         3.90296         1.88946
H         -0.80333         6.14262         0.95749
H         -0.81505         8.21705         0.39949
H         -0.82446        10.50526        -0.40258
H         -0.86575        12.27701        -1.61410
H         -0.83170        14.71739        -1.48951
H         -0.85881        16.58364        -1.13932
H         -0.87236        18.98332        -0.80935
H         -0.91320        20.83419        -0.38923
H         -0.91554        23.26116        -0.15791
H         -0.75204        24.90205         1.27399
H         -0.79045        27.32501         1.67032
H         -0.94423        29.34746         1.40336
H         -0.92341        31.78747         1.54450
H         -0.85183        33.68166         1.94906
H         -0.86687        36.13391         1.87059
H          0.31368        38.30142         1.47329
H          3.69392         2.42681        -0.24327
H          2.39543        39.54890         0.98065
H          6.00371         2.31758        -0.64507
H          4.86432        39.56115         0.66602
H          8.45936         2.25500        -0.26968
H          7.34887        39.58936         0.36156
H         10.93532         2.24908         0.15326
H          9.80885        39.57831         0.19750
H         13.32186         2.23738         0.61300
H         12.25535        39.58803         0.07468
H         15.68000         2.29758         1.39509
H         14.72647        39.59633        -0.07389
H         18.30252         2.29343         1.42873
H         17.04305        39.45765        -1.08099
H         20.41742         3.55514         1.53111
H         21.62702         5.72433         1.86220
H         21.64208         8.18062         1.74461
H         21.52469        10.10619         2.07362
H         21.58265        12.52255         1.81384
H         21.33698        14.43806         2.12478
H         21.38324        16.85434         1.89277
H         21.71019        18.66818         1.24397
H         21.73475        21.10085         1.22049
H         21.70862        23.03462         1.21038
H         21.72954        25.46616         0.99059
H         21.87579        27.24976        -0.36791
H         21.91835        29.69134        -0.51793
H         21.61172        31.46126        -1.65032
H         21.51038        33.85963        -2.14580
H         21.58122        35.86445        -2.11230
H         21.55223        38.33676        -2.12836
H         19.55943        39.58575        -1.29801
