         320
 CSIRO Nanostructure Databank - Neutral Graphene Oxide Data Set
C         31.03447        31.31590        -1.71187
C         30.99203        32.54288        -1.82156
C         30.90964        35.95450        -2.10531
C         30.93725        37.19278        -2.08441
C         31.02009        40.55868        -2.00888
C         31.03357        41.78655        -2.04287
C         33.27276        28.84063        -0.19605
C         32.59780        29.32382        -1.16118
C         32.73719        31.49201         0.08247
C         31.59319        30.34387        -0.74443
C         32.80080        32.94296        -0.27498
C         32.05193        33.55588        -1.54545
C         33.03402        35.86454        -1.11532
C         31.67772        35.01300        -1.19076
C         32.82806        37.33508        -0.64546
C         32.04116        38.16892        -1.75848
C         32.84527        40.27985        -0.43081
C         31.74530        39.55935        -1.23272
C         33.03715        41.76526        -0.53885
C         31.81222        42.66314        -1.10013
C         33.53621        44.34384        -1.26244
C         32.45817        43.89693        -1.64448
C         35.29120        27.40675         1.66432
C         34.56065        28.62113         1.95298
C         33.93983        29.35490         0.93242
C         35.28908        31.53675         0.43005
C         33.91899        30.90871         0.89912
C         35.29572        33.04149         0.49797
C         33.97855        33.76407         0.23507
C         35.35098        35.92954        -0.51323
C         34.05756        35.18341        -0.21937
C         35.32806        37.36882        -0.10269
C         34.11490        38.07405        -0.29170
C         35.14949        40.10417         0.56784
C         34.05559        39.47494        -0.06394
C         35.12837        41.61106         0.86974
C         34.21948        42.32399        -0.15256
C         35.15585        44.53190         0.70224
C         34.69392        43.74249        -0.55897
C         35.54541        45.91326         0.34087
C         37.73609        27.13864         0.73598
C         36.38105        26.92012         1.37750
C         37.87326        28.71168         0.97195
C         36.75920        29.48910         0.30083
C         37.88776        31.57275         0.59188
C         36.56540        30.79388         0.71659
C         37.80860        32.98943         1.10479
C         36.50347        33.72415         1.15058
C         37.83416        35.87368         1.11770
C         36.64859        35.20208         1.39597
C         37.80679        37.31263         0.61916
C         36.40939        37.96475         0.58948
C         38.06574        40.38736         1.18954
C         36.17292        39.26817         1.05113
C         37.84531        41.72081         0.83590
C         36.52529        42.35123         1.07445
C         37.86109        44.59359         0.91174
C         36.54952        43.85716         1.09695
C         37.92662        45.88401         0.46760
C         36.63876        46.40148         0.03071
C         40.35177        24.43022         0.82435
C         39.32805        25.09990         1.01120
C         40.35876        27.27720         0.73748
C         38.94052        26.45778         1.40666
C         40.42548        28.69264         1.34445
C         39.21186        29.42737         0.86318
C         40.36078        31.65949         0.84956
C         39.11249        30.89544         1.24009
C         40.29463        33.00712         0.64562
C         39.06931        33.75428         0.91703
C         40.39459        35.84513         0.99683
C         39.05401        35.13305         0.89506
C         40.33077        37.37972         0.94685
C         39.04286        38.12706         1.04881
C         40.25296        40.27141         0.07012
C         39.08300        39.57011         0.71455
C         40.33348        41.65680         0.71672
C         39.07745        42.51743         0.45965
C         40.46074        44.58009         0.96806
C         39.14134        43.84659         1.27905
C         40.45603        46.07001         1.17341
C         39.11369        46.71146         0.73635
C         40.39314        48.69956         0.05006
C         39.36146        48.03779         0.18585
C         42.96234        24.52781         1.03329
C         41.67339        25.01638         0.39810
C         42.87262        27.32776         1.03047
C         41.63347        26.50814         0.77912
C         42.79059        28.70214         0.30381
C         41.56989        29.45794         0.73562
C         42.81660        31.59132         0.18142
C         41.68163        30.93614         0.95018
C         42.64812        32.94892        -0.47283
C         41.41793        33.73469        -0.01175
C         42.71551        35.95374        -0.05798
C         41.42438        35.23335         0.05869
C         42.76130        37.28834         0.18536
C         41.45958        38.03443         0.14110
C         42.75300        40.21192         0.03809
C         41.57407        39.52735         0.19802
C         42.74075        41.68504         0.07346
C         41.58101        42.40438         0.33227
C         42.86103        44.47247         0.12110
C         41.54905        43.85624         0.50692
C         42.89431        46.41748         1.64343
C         41.69217        46.92954         1.17625
C         42.99486        48.82640         0.33917
C         41.63356        48.51033         0.87069
C         43.98770        25.21042         1.12715
C         45.40013        27.42198         1.11965
C         44.22294        26.60489         0.61867
C         45.30780        28.87402         0.51986
C         44.09828        29.50355         0.41052
C         45.22194        31.64191        -0.38537
C         44.01087        30.93056         0.05383
C         45.12354        33.08705        -0.68365
C         43.94556        33.76138        -0.52319
C         45.16427        35.99003        -0.59138
C         43.84634        35.26259        -0.78061
C         45.25423        37.26968        -0.15478
C         44.06174        38.03545         0.37733
C         45.37347        40.16012         0.07616
C         44.05333        39.45190        -0.24971
C         45.34797        41.67313        -0.09846
C         44.05767        42.32747         0.37711
C         45.36174        44.57229         1.08934
C         44.07287        43.79728         0.72525
C         45.31195        46.12420         0.90840
C         44.21112        46.91673         1.18846
C         44.02885        48.28125         0.77642
C         47.78928        27.60663         0.62778
C         46.75628        26.93043         0.67736
C         47.89968        29.03000         0.30666
C         46.50446        29.48651        -0.19996
C         47.59807        31.62009        -1.12610
C         46.42673        30.98274        -0.41019
C         47.64971        33.14941        -0.86851
C         46.31230        33.77012        -1.33576
C         47.61357        36.06126        -1.39777
C         46.33513        35.30180        -1.20562
C         47.67849        37.57423        -0.98767
C         46.60363        37.93219         0.10114
C         47.90283        40.12155         0.49536
C         46.53966        39.46690         0.18119
C         47.81003        41.63756         0.68326
C         46.54272        42.39286         0.50759
C         47.86555        44.58445         0.85318
C         46.58040        43.92213         0.32782
C         47.70019        45.94524         0.75594
C         46.59957        46.58370         0.54577
C         50.44986        29.17778        -0.41317
C         49.12193        29.74359        -0.14803
C         49.96105        31.54719        -1.71811
C         48.97519        30.99993        -0.94551
C         49.77077        32.94196        -2.16760
C         48.82780        33.77307        -1.58530
C         50.14871        35.95918        -1.18221
C         48.89843        35.29141        -1.76502
C         50.21419        37.38243        -1.37713
C         49.10508        38.10535        -0.56840
C         50.39538        40.36645        -0.05269
C         49.05377        39.71961        -0.50574
C         50.35920        41.63037         0.78038
C         49.09138        42.46412         0.55197
C         50.33821        44.41228         1.34300
C         48.97492        43.77734         1.45426
C         51.22965        29.55680        -1.29203
C         52.29496        31.78515        -1.11295
C         51.39711        30.88246        -1.93754
C         52.14127        32.86460        -0.52723
C         51.37641        33.98975        -0.18464
C         52.47101        35.84750        -1.50159
C         51.33716        35.17790        -0.97123
C         52.53609        37.06422        -1.84640
C         51.45052        37.96571        -1.70638
C         52.79480        40.71049        -0.29250
C         51.57642        40.04328        -0.68374
C         52.81416        41.75449         0.42518
C         51.81533        42.81067         0.23675
C         51.44298        43.88848         1.14598
O         46.93921        41.93570         1.82706
O         46.27029        33.47312        -2.79630
O         35.45096        32.31923        -0.81561
O         37.06072        39.79317         1.98101
O         48.61874        29.87727         1.21843
O         39.46669        46.59224         2.14374
O         42.98595        45.29978        -0.76602
O         31.58216        39.78928         0.18259
O         39.87117        37.86459         2.24729
O         36.18247        35.41500        -1.25501
O         43.89154        42.78579         1.76749
O         51.59936        39.31672        -1.86970
O         44.11501        39.16848        -1.72391
O         36.49226        43.13596         2.36780
O         40.85937        37.75149        -1.26440
O         31.95126        32.45747         0.81829
O         46.65689        35.92251        -2.50449
O         37.04586        33.05128         2.35478
O         40.90094        34.57716        -1.12368
O         33.60285        34.85501         1.13127
O         38.12593        37.21505        -0.80886
H         37.56571        36.50787        -1.22181
O         40.55712        28.68229         2.81268
H         40.24676        27.80067         3.14142
O         31.03000        42.96178         0.01540
H         30.27891        43.53013        -0.24966
O         49.46757        37.63579         0.73162
H         48.86753        38.03270         1.41335
O         40.47944        41.38579         2.12918
H         40.17484        42.18091         2.63809
O         37.56728        28.80585         2.41626
H         37.85896        29.70608         2.74071
O         48.72185        40.31800        -1.76679
H         49.23984        39.88115        -2.47582
O         41.47139        49.17452         2.09602
H         40.59583        48.93964         2.46995
O         32.96738        33.50720        -2.63945
H         33.01466        32.59053        -2.98376
O         35.98281        28.82874        -0.58174
H         35.34562        29.43614        -1.01339
O         40.91444        35.52037         2.31508
H         40.43083        36.08822         2.95890
O         45.42433        41.90658        -1.52148
H         44.72002        41.38284        -1.97399
O         42.07645        31.05011         2.38276
H         41.86544        30.19032         2.82277
O         48.70682        43.45466         2.79686
H         49.41954        42.85762         3.11409
O         30.68841        29.90526         0.18476
H         30.01077        30.59376         0.33965
O         46.99343        37.39847         1.38621
H         46.23431        37.55185         1.99532
O         35.81200        43.56351        -1.42339
H         36.12898        44.44438        -1.71737
O         31.02730        34.92836         0.04303
H         30.99328        35.82815         0.45080
O         45.40250        27.49600         2.52889
H         46.20407        27.97513         2.82356
O         43.37153        40.19298        -2.43047
H         42.51123        39.72152        -2.61040
O         33.76061        31.37983         2.25116
H         32.96100        31.96940         2.25809
O         48.29672        39.66053         1.81068
H         47.72335        40.12833         2.45944
O         47.32867        38.31037        -2.16315
H         46.62589        37.80318        -2.63410
O         40.06010        27.48101        -0.65015
H         40.18115        26.62791        -1.12178
O         51.74878        30.84612        -3.27707
H         51.71529        31.75953        -3.63769
O         41.87702        37.90107        -2.27236
H         42.32926        37.00697        -2.29916
O         34.21728        44.47580         1.73896
H         34.14764        43.54552         2.07355
O         42.42335        32.63430        -1.89214
H         41.88745        33.38618        -2.24814
O         33.63360        35.97227        -2.41473
H         33.69447        35.07500        -2.82528
O         42.67367        28.42197        -1.12238
H         42.28324        29.20877        -1.55849
O         38.96560        31.00209         2.69345
H         39.76496        30.58385         3.09228
O         43.44350        35.47625        -2.17381
H         44.08529        34.97944        -2.75567
O         46.41143        44.24264        -1.05062
H         47.17465        43.87612        -1.54829
O         51.74865        43.18923        -1.07480
H         51.23191        44.01570        -1.16457
O         39.04821        42.93147        -0.91940
H         39.19355        42.12628        -1.47216
O         32.85312        38.40415        -2.88867
H         33.15385        37.53177        -3.23975
O         42.92639        45.35170         2.48178
H         42.02517        45.13037         2.79662
O         38.17243        31.63710        -0.82637
H         37.37810        32.02177        -1.26616
O         44.27125        38.18818         1.81015
H         43.47015        38.59919         2.20151
O         49.10147        35.52482        -3.20003
H         48.20769        35.44898        -3.61481
O         49.09496        42.92691        -0.82214
H         49.04054        42.12511        -1.40718
O         47.72487        33.39709         0.55084
H         48.64102        33.66847         0.78632
O         42.92660        27.62978         2.43684
H         43.10164        26.79436         2.92138
O         47.32571        31.35923        -2.52981
H         47.06715        30.40936        -2.60240
O         40.01654        40.41182        -1.36174
H         39.99880        39.49475        -1.73166
O         50.68540        33.41516        -3.04911
H         50.38084        34.31722        -3.34459
O         37.68522        26.74735        -0.61515
H         36.90239        27.16347        -1.03704
O         35.69989        35.88703         2.07137
H         34.86770        35.36304         2.18648
O         41.82451        24.89956        -1.01351
H         41.76014        23.95117        -1.25423
O         50.57405        41.44013         2.15087
H         51.29084        40.78378         2.27681
O         34.77641        29.13390         3.15844
H         34.39658        30.05124         3.19477
O         50.55711        33.88837         0.89415
H         50.72719        33.04612         1.36457
O         45.59289        44.44014         2.48556
H         45.20050        43.58898         2.79081
O         46.41707        28.90513        -1.55199
H         45.90356        28.06380        -1.49887
O         44.92938        33.59491        -3.30991
H         44.46691        32.77447        -2.99816
O         34.41281        41.75045         2.12581
H         35.04222        41.56178         2.85620
O         39.13208        43.58655         2.69839
H         38.19485        43.35840         2.94047
O         32.05331        37.26986         0.56150
H         31.80041        38.19385         0.82507
O         38.90485        26.59103         2.80421
H         38.23112        27.28544         3.03022
O         44.35883        26.52901        -0.78744
H         43.58474        26.03571        -1.14871
