         257
 CSIRO Nanostructure Databank - Neutral Graphene Oxide Data Set
C         30.55120        31.64875         0.43829
C         30.59389        32.88799         0.13571
C         30.34513        36.01254        -0.52157
C         30.38744        37.23229        -0.37479
C         30.72462        40.11686         0.92024
C         30.89572        41.23353         1.49728
C         32.92962        28.89013        -0.03566
C         31.81001        29.39739         0.10543
C         32.83093        31.53648        -0.69040
C         31.30838        30.67440        -0.43737
C         32.82821        33.02603        -0.63950
C         31.56475        33.75460        -0.33076
C         32.76981        35.92743        -0.41523
C         31.50731        35.13182        -0.90488
C         32.75767        37.42960        -0.85004
C         31.43459        38.21416        -0.68740
C         32.35101        40.57477        -0.63229
C         31.40363        39.61138        -0.19697
C         32.67473        41.77626         0.03620
C         31.93210        42.13596         1.21549
C         33.34824        44.10141         1.45039
C         32.39561        43.37062         1.77447
C         35.64726        27.34379        -0.22398
C         35.46816        28.77129        -0.35913
C         34.21925        29.47629        -0.29227
C         35.35961        31.63145        -0.67882
C         34.14997        30.84568        -0.55587
C         35.35290        33.02723        -0.67851
C         34.10521        33.78966        -0.63258
C         35.34925        35.90300        -1.01957
C         34.06975        35.15996        -0.68551
C         35.34292        37.35483        -0.55748
C         34.07508        38.13491        -0.65858
C         35.30886        40.32250        -0.59071
C         34.24709        39.57290        -0.99489
C         35.23762        41.81995        -0.59226
C         33.90263        42.56157        -0.36494
C         35.23002        44.74027        -0.12256
C         33.89606        44.09111         0.00990
C         35.50373        46.09056        -0.30477
C         38.02119        27.21450        -0.63224
C         36.69705        26.71530        -0.43379
C         37.94688        28.70581        -0.79745
C         36.65395        29.42805        -0.63656
C         37.87330        31.59856        -0.32480
C         36.66999        30.90704        -0.92970
C         37.82125        33.05395        -0.26420
C         36.61608        33.76387        -0.56036
C         37.82323        35.91351        -0.42434
C         36.61632        35.17704        -0.59292
C         37.84948        37.38892        -0.39554
C         36.61047        38.15937        -0.81191
C         37.85598        40.35536        -0.50081
C         36.57088        39.58907        -0.14668
C         37.86911        41.89700        -0.49540
C         36.50569        42.50426        -0.12450
C         37.77013        44.76907         0.21068
C         36.47849        43.98530         0.13667
C         37.68601        46.28266         0.64308
C         36.58569        46.77265        -0.30148
C         40.18308        24.48790         0.47898
C         39.33633        25.15833        -0.12872
C         40.53533        27.21369        -0.33190
C         39.20076        26.53485        -0.49290
C         40.49383        28.72365        -0.13999
C         39.21703        29.48382        -0.44310
C         40.15271        31.59393         0.63960
C         39.02589        30.89872        -0.01646
C         40.19654        33.09442         0.50227
C         39.01659        33.78724        -0.07134
C         40.32972        35.88385        -0.23252
C         39.02345        35.18826        -0.22217
C         40.29470        37.38827        -0.20559
C         38.99675        38.08681        -0.11963
C         40.35062        40.29692         0.18809
C         39.11613        39.58005        -0.27083
C         40.35310        41.81948         0.23409
C         38.98929        42.47700         0.36348
C         40.13973        44.63228         1.11635
C         39.02352        43.95475         0.38956
C         40.13036        46.12395         1.23097
C         39.06748        46.90643         0.52208
C         40.45062        48.82833        -0.46116
C         39.51804        48.11464         0.10301
C         42.56799        24.44789         1.56190
C         41.59403        24.88646         0.55641
C         43.00245        27.22544         0.53443
C         41.73078        26.40968         0.19363
C         42.77962        28.61597         1.14518
C         41.49249        29.35787         0.79372
C         42.65268        31.62288         1.38888
C         41.38942        30.83199         1.07486
C         42.66555        33.04564         0.91449
C         41.53757        33.72660         0.55257
C         42.67230        36.00920         0.78547
C         41.58865        35.15707         0.14447
C         42.81139        37.38439         0.13631
C         41.54261        38.17431         0.02705
C         42.74857        40.19807         1.02405
C         41.50624        39.60881         0.41366
C         42.77344        41.67973         1.31029
C         41.42152        42.38295         1.18745
C         42.69817        44.59155         1.13762
C         41.40373        43.86007         1.40198
C         42.68296        46.08640         1.01828
C         41.45482        46.80007         1.53037
C         42.94021        48.82751        -0.31241
C         41.68520        49.24990        -0.16652
C         43.63690        25.15490         1.60735
C         45.28124        27.12730         1.73732
C         44.01788        26.45440         1.41036
C         45.32577        28.65547         1.84782
C         43.98693        29.37561         1.68231
C         45.27094        31.52533         1.17044
C         43.99504        30.89809         1.60704
C         45.24612        32.96864         0.69933
C         43.97914        33.75844         1.07066
C         45.24494        35.98636         0.66950
C         43.98807        35.26026         0.98452
C         45.30460        37.32330         0.45919
C         44.07698        38.11684         0.31348
C         45.41821        40.10907         1.26932
C         44.06549        39.45065         0.99240
C         45.43444        41.61462         1.27467
C         44.10247        42.42506         1.40311
C         45.05744        44.75653         1.69315
C         44.02929        43.94328         1.32987
C         45.15485        46.30473         1.70806
C         43.95321        46.90033         1.01859
C         43.74050        48.11563         0.46945
C         47.62409        27.23719         1.09329
C         46.59152        26.60379         1.32323
C         47.94218        28.63238         1.41086
C         46.64513        29.40867         1.74687
C         47.89543        31.60060         1.09557
C         46.59634        30.95581         1.72443
C         47.84864        33.05286         0.74325
C         46.53045        33.76147         0.98144
C         47.62121        35.86237         0.01563
C         46.50513        35.23536         0.76192
C         47.71139        37.22559        -0.18545
C         46.53871        38.09839         0.15113
C         47.48775        39.97262        -0.23683
C         46.78930        39.34735         1.01418
C         47.48584        41.48439        -0.22612
C         46.65821        42.19172         0.62662
C         47.54610        44.43670        -0.01877
C         46.86770        43.59690         0.83837
C         47.23957        45.81279         0.27036
C         46.43896        46.48235         0.92052
C         50.11907        28.69346        -0.05426
C         49.15043        29.31297         0.86150
C         50.11791        31.48014        -0.34600
C         49.08575        30.80083         0.58274
C         50.01010        32.95369        -0.72076
C         48.76384        33.65275        -0.27645
C         50.11324        36.00504        -1.63472
C         48.45269        34.91789        -0.69105
C         50.10601        37.28447        -1.14313
C         48.86242        37.95112        -0.71752
C         49.96345        40.11455        -1.13525
C         48.79533        39.33107        -0.66360
C         49.86715        41.61005        -1.25676
C         48.51721        42.26141        -0.97695
C         49.74051        44.36231        -1.33466
C         48.41608        43.81685        -1.03340
C         51.06302        29.22915        -0.65326
C         52.24998        31.40400        -1.55701
C         51.02830        30.56109        -1.32157
C         52.20570        32.63440        -1.60955
C         51.11166        33.61687        -1.64553
C         52.46821        35.95994        -1.87188
C         51.26312        35.10334        -1.92739
C         52.43360        37.12384        -1.43646
C         51.36676        38.05314        -1.14602
C         52.31702        40.41756        -1.26195
C         51.31019        39.41706        -1.11190
C         52.32607        41.64249        -1.47875
C         51.18784        42.48736        -0.98305
C         50.83083        43.82469        -1.57135
O         43.19778        39.38662         2.16151
O         46.27628        44.12987         1.99936
O         41.01745        28.12837        -1.36229
O         48.43674        32.62120         2.00335
O         43.23316        31.51265         2.71501
O         34.66328        37.73813         0.67023
O         31.99538        37.89345        -1.98507
O         41.52558        47.81631         2.18972
O         44.04194        34.56261         2.28162
O         50.79873        32.47103         0.43613
O         45.59422        40.83993         2.50798
O         38.62152        39.89578        -1.65524
O         45.31414        27.76809         3.01841
O         38.66340        44.61624        -0.91412
O         39.77230        32.45609         1.76020
O         42.11106        25.31930        -0.71749
O         36.36032        42.99734         1.23188
O         49.78515        30.23429         1.75141
O         42.49138        45.25805        -0.17101
O         34.47115        42.40306        -1.68262
O         41.01353        37.98502        -1.33671
O         39.66185        45.31354         2.35199
O         48.91464        35.36712        -1.93022
O         47.88662        43.00601        -2.08598
O         43.59617        37.76807        -1.04147
O         43.02349        28.74884         2.56175
O         41.27241        35.37416        -1.25376
O         32.68192        32.25003        -1.94519
O         41.11446        42.94285         2.49402
O         49.82543        40.81689        -2.45527
O         40.90924        29.84470         2.03617
O         36.89445        31.04076        -2.43794
O         50.90379        34.14945        -2.96027
O         33.18788        40.17707        -1.68908
O         47.60482        28.95935         2.75477
O         38.80360        29.26202        -1.82390
O         43.39057        41.97467         2.58555
O         46.67416        34.65328         2.11530
O         46.43790        39.11709        -1.01027
O         35.77126        30.41393        -3.08561
H         35.24329        31.18031        -3.42005
O         38.07619        42.31967        -1.87261
H         38.43502        41.55131        -2.37722
O         32.65078        35.94240         1.02625
H         33.38709        36.48972         1.38850
O         50.31782        30.46767        -2.53213
H         50.85158        29.97747        -3.19120
O         42.15122        36.34049         2.09787
H         42.58802        35.74415         2.75327
O         31.57494        35.04207        -2.31839
H         30.79508        34.55527        -2.65442
O         36.62882        39.45698         1.28196
H         35.83475        38.95137         1.57534
O         37.21488        46.43033         1.95977
H         37.94789        46.21920         2.58492
O         51.28971        42.62266         0.41460
H         52.11110        43.10783         0.63686
O         40.87027        42.24040        -1.07759
H         40.10448        42.47025        -1.65574
O         46.54773        31.35188         3.09997
H         47.13532        32.14078         3.21224
O         36.65071        38.31032        -2.25030
H         37.50637        38.75497        -2.48114
O         45.27057        46.77879         3.03658
H         46.04902        46.35791         3.45664
O         32.95941        44.71875        -0.82821
H         33.13828        45.68224        -0.85011
O         35.37228        35.94439        -2.47433
H         35.96706        36.68399        -2.75527
O         43.69446        27.46742        -0.70977
H         43.53168        26.69302        -1.29672
O         30.71243        30.53028        -1.66895
H         30.98019        31.29201        -2.23540
O         47.52207        39.20284         2.19332
H         47.12336        39.79979         2.87162
O         45.25645        32.92327        -0.77717
H         44.49785        32.38448        -1.08710
