         278
 CSIRO Nanostructure Databank - Neutral Graphene Oxide Data Set
C        -11.13121         0.64386        -0.57801
C         -9.83452         1.42343        -0.61221
C         -8.95667         0.91958         0.54972
C         -7.60787         1.58534         0.47553
C         -6.37020         0.72302         0.45389
C         -5.09609         1.53646         0.50433
C         -3.84907         0.73038         0.50943
C         -2.55703         1.41110         0.22182
C         -1.22709         0.83325         0.62665
C         -0.23118         1.39909        -0.60101
C          1.08687         0.63078        -0.74794
C          2.35908         1.38541        -1.08191
C          3.72426         0.65136        -1.04054
C          4.77883         1.45413        -0.27695
C          6.01674         0.71744         0.17870
C          7.30065         1.48889         0.29879
C          8.56033         0.71652         0.43900
C          9.78893         1.48116         0.54656
C         11.01612         0.73137         0.79329
C         -9.93904         2.93617        -0.46762
C         -8.83383         3.67098        -0.05984
C         -7.59938         2.92503         0.24956
C         -6.34139         3.67698         0.42911
C         -5.08763         2.88835         0.30539
C         -3.86856         3.61832        -0.12082
C         -2.56099         2.88627        -0.09342
C         -1.27435         3.66832        -0.02572
C         -0.04731         2.90946        -0.39906
C          1.08847         3.66150        -1.01209
C          2.36648         2.88490        -1.20928
C          3.69268         3.65835        -1.27902
C          4.85057         2.90880        -0.60253
C          6.19736         3.59946        -0.81109
C          7.36916         2.92493        -0.10835
C          8.72166         3.57724        -0.38239
C          9.83975         2.83985         0.32281
C         -8.80781         5.10568        -0.06210
C         -7.63406         5.88757         0.09562
C         -6.35497         5.17214         0.40578
C         -5.02943         5.93156         0.32856
C         -3.89370         5.12302        -0.28674
C         -2.60603         5.85590        -0.48624
C         -1.35637         5.18558         0.06089
C         -0.09582         5.90823        -0.36692
C          1.07383         5.15110        -0.90520
C          2.37923         5.81953        -0.59480
C          3.65097         5.03905        -0.61179
C          4.95478         5.75973        -0.46144
C          6.13947         5.08226        -0.47042
C          7.41863         5.75440        -0.19696
C          8.59925         5.06415        -0.09830
C         -7.63038         7.28469         0.00941
C         -6.39309         8.05445        -0.23984
C         -5.10871         7.30441        -0.31937
C         -3.82242         8.09504        -0.24426
C         -2.54929         7.35071        -0.32778
C         -1.30680         7.93886         0.34681
C         -0.06393         7.25678        -0.23109
C          1.09894         8.10777        -0.71484
C          2.42279         7.31335        -0.75208
C          3.73706         8.00515        -0.59960
C          4.87213         7.19135         0.03796
C          6.20282         7.90371        -0.00586
C          7.37341         7.20388        -0.03785
C         -6.26065         9.53353        -0.09602
C         -5.10083        10.14982         0.21522
C         -3.81106         9.40467         0.52615
C         -2.48850        10.13397         0.28067
C         -1.30230         9.46233         0.23544
C          0.02925        10.05864         0.38308
C          1.18072         9.39431         0.09528
C          2.53520         9.91662         0.56212
C          3.69204         9.53069        -0.40641
C          5.02322        10.07549         0.05373
C          6.15523         9.34818         0.16747
C        -11.12179        -0.67953        -0.34165
C         -9.80890        -1.42143        -0.17652
C         -8.87453        -0.60573         0.72126
C         -7.67736        -1.30540         1.30566
C         -6.36118        -0.49212         1.45909
C         -5.06164        -1.29390         1.21968
C         -3.87314        -0.67186         0.99667
C         -2.56522        -1.46273         1.12526
C         -1.26170        -0.69228         0.76607
C         -0.05974        -1.45103         0.32709
C          1.11875        -0.80662        -0.35010
C          2.42972        -1.46847         0.02000
C          3.65325        -0.85389        -0.66033
C          4.90746        -1.58206        -0.30630
C          6.08542        -0.77204         0.13067
C          7.38461        -1.46616         0.29335
C          8.54984        -0.67977         0.52250
C          9.75998        -1.41423         1.04851
C         11.03724        -0.61666         0.90569
C         -9.88231        -2.88114         0.19211
C         -8.78399        -3.58490         0.63838
C         -7.72336        -2.86020         1.49176
C         -6.29602        -3.43025         1.62032
C         -5.12988        -2.76633         0.92439
C         -3.92506        -3.52001         0.40302
C         -2.58589        -2.86283         0.49731
C         -1.41015        -3.58615         0.36341
C         -0.10358        -2.93159         0.29947
C          1.08640        -3.60662         0.35324
C          2.37106        -3.00214        -0.17942
C          3.65193        -3.65930         0.29056
C          4.84629        -2.97390         0.24175
C          6.13526        -3.60194         0.46384
C          7.33732        -2.87466         0.43997
C          8.61448        -3.68548         0.55223
C          9.88566        -2.80548         0.39823
C         -8.85308        -5.02556         0.64908
C         -7.72641        -5.88477         0.53432
C         -6.49190        -5.31038        -0.08590
C         -5.18862        -5.79811         0.47310
C         -3.92977        -5.04121         0.05777
C         -2.67050        -5.74623         0.51006
C         -1.39773        -5.03848         0.19360
C         -0.21707        -5.73209         0.10867
C          1.04986        -5.06960         0.48145
C          2.31688        -5.83936         0.63982
C          3.62270        -5.04915         0.92219
C          4.90263        -5.83134         0.54865
C          6.18954        -5.08415         0.42964
C          7.36264        -5.73441        -0.23149
C          8.55047        -4.83045        -0.48794
C         -7.71336        -7.24912         0.77278
C         -6.46172        -8.09663         0.70806
C         -5.18212        -7.25445         0.85771
C         -3.91257        -8.12076         0.90015
C         -2.64548        -7.21267         0.79262
C         -1.45600        -7.97220         0.28799
C         -0.19070        -7.20148        -0.05318
C          1.05852        -7.93901        -0.06100
C          2.33280        -7.13515        -0.17360
C          3.57261        -7.98431         0.11704
C          4.80452        -7.14230        -0.17731
C          6.07252        -7.82273        -0.59516
C          7.34804        -7.05044        -0.55164
C         -6.30000        -8.93737        -0.55766
C         -5.10786        -9.47421        -0.90306
C         -3.86268        -9.18707        -0.19237
C         -2.71214        -9.89606        -0.35284
C         -1.45791        -9.49030         0.44765
C         -0.15569       -10.09384        -0.00156
C          1.06378        -9.37601        -0.13523
C          2.29923       -10.06886        -0.30156
C          3.53792        -9.30518        -0.68583
C          4.87658       -10.00462        -0.52984
C          6.03268        -9.31039        -0.56875
O         11.14453        -3.50226        -1.54110
H         10.75435        -4.40552        -1.24305
O         -3.83584         9.08261         1.93909
H         -3.01128         8.54806         2.12462
O         -4.60860         6.22165         1.68131
H         -5.02223         5.55273         2.27671
O         -1.39907         7.72726         1.73580
O          3.95518         3.90111        -2.67597
H          3.50091         3.17966        -3.17701
O          5.84572        -5.85120         1.67141
O          4.38580        -1.60409        -1.67697
O         -8.78165        -0.84315         2.15484
O         -3.92128        -8.78262         2.13232
O         -3.38881         5.45853        -1.62323
O          3.64694        -4.80575         2.34187
H          4.53707        -5.07880         2.66999
O         -1.17202        -7.64604        -1.09154
O          4.39517         2.45726         0.70678
O         -6.40917         0.13487        -0.88393
H         -5.50459        -0.16011        -1.13296
O         -1.58384        -9.89256         1.81381
H         -2.48252        -9.56564         2.15528
O         -1.56066         5.42023         1.48450
H         -0.73435         5.18931         1.96272
O          0.93297        -0.46510        -1.73635
O         -3.19917         0.64519        -0.83693
O          5.16820        -7.15495        -1.57761
O         -9.16169        -1.47747        -1.48208
H         -9.19578        -0.57174        -1.89012
O          3.28753         7.60787        -1.91745
O         -2.54914        -6.27456         1.87927
O         -2.51254        -1.73513         2.54841
H         -1.56810        -1.89427         2.78432
O         -6.06486        -4.14766         2.57921
H         -7.71581        -3.76648         3.24689
O         -0.26912         3.30358         0.97753
O          7.17855         2.60369         1.28593
O          2.57905        -1.20120         1.42927
H          3.25302        -1.80668         1.80854
O         -0.20272        -1.04343         1.73579
O          2.36908        -3.30916        -1.65413
O          5.71807        -0.05785         1.38905
O          2.20110         2.03386        -2.38810
O          0.82915         4.50438        -2.19091
O          2.36960        -6.64932        -1.54023
H          2.71653        -7.38207        -2.11230
O         -6.56191        -4.61030        -1.08842
O          3.40769        10.15931        -1.66957
H          2.91049         9.50464        -2.21670
O         -5.26362        -6.23941         1.86030
O         -4.89374        -2.87362        -0.51740
O          1.44089        -5.73970         1.77601
O          6.48591         3.46729        -2.23135
H          5.68494         3.78695        -2.72822
O          2.88736         5.18961         0.63470
O         -3.27221         3.06171        -1.34426
O         -5.83117         7.48479        -1.54389
O         -9.18684         1.17629        -1.89263
H         -8.23190         1.39729        -1.80090
O         -6.42923         4.46022         1.69633
O         10.18115        -2.54676        -1.05252
H         10.65267        -1.67008        -1.10942
O         -6.29920         0.01531         2.79836
H         -7.18336        -0.10761         3.21064
O          2.80767         9.42148         1.87750
H          3.20827         8.52154         1.82435
O         -8.27549        -3.07543         2.81222
O         -9.63848         1.44633         1.71524
H         -9.36454         0.89737         2.48610
O          9.54355        -1.70750         2.45715
H          9.17920        -0.89585         2.87213
O          9.07769         3.44644        -1.79242
H          8.26313         3.65015        -2.31699
O          9.80320        -5.54601        -0.49135
H          9.91596        -5.93322         0.40523
O         -3.04122         8.09867        -1.47644
O         -6.52601        -8.99517         1.82735
H         -5.58889        -9.10272         2.17688
O         -0.94418         1.25909        -1.82000
H         -0.64527         0.43698        -2.27125
O          4.49183         7.14330         1.45313
H          4.90495         6.35679         1.86886
O         -0.92171         1.31226         1.92579
H         -0.25783         0.70807         2.33060
O          4.25828         0.71230        -2.38086
H          3.73201         0.10645        -2.94646
O          8.74320        -4.30684         1.83853
H          8.67907        -3.59420         2.51622
O          3.41071        -8.99969        -2.11851
H          3.14645        -9.82575        -2.57480
O         -3.86568        -5.10979        -1.38231
H         -4.61871        -4.56801        -1.72484
O          3.54565        -8.29585         1.51745
H          4.25125        -8.94547         1.71505
O          1.05038        -3.03790        -2.19756
H          0.85503        -3.87322        -2.68864
O          0.79359         8.51557        -2.07271
H          0.65089         7.71229        -2.61671
H         11.98821        -1.13913         1.09764
H         11.96587         1.28845         0.80657
H         10.81286         3.35085         0.39860
H          9.52576         5.62949         0.09186
H          8.33155         7.74242         0.03003
H          7.10158         9.85592         0.41279
H          5.06879        11.16473         0.20452
H          2.48477        11.03324         0.63210
H          0.09080        11.04356         0.87637
H         -2.49211        11.23654         0.26767
H         -5.09612        11.24796         0.30792
H         -7.16784        10.13927        -0.25502
H         -8.59473         7.81291        -0.07071
H         -9.74569         5.63049        -0.30388
H        -10.84871         3.45321        -0.81137
H        -12.08168         1.17892        -0.72839
H        -12.06478        -1.24759        -0.32006
H        -10.72098        -3.45223        -0.24144
H         -9.85732        -5.48329         0.64590
H         -8.59996        -7.72573         1.22043
H         -7.20057        -9.20533        -1.13048
H         -5.05119       -10.15916        -1.76451
H         -2.65793       -10.73277        -1.06732
H         -0.09849       -11.19410         0.00138
H          2.28938       -11.16633        -0.37939
H          4.90358       -11.10471        -0.47843
H          6.99566        -9.84195        -0.50962
H          8.25430        -7.52388        -0.96323
H          8.44337        -4.37815        -1.51117
H         10.77871        -3.34326         0.79489
